WARNING: physical memory size is smaller than virtual memory size.
WARNING: option --warmup_instructions is deprecated. Use --warmup-instructions instead.
WARNING: option --simulation_instructions is deprecated. Use --simulation-instructions instead.

*** ChampSim Multicore Out-of-Order Simulator ***
Warmup Instructions: 200000000
Simulation Instructions: 1000000000
Number of CPUs: 1
Page size: 4096

Off-chip DRAM Size: 4 GiB Channels: 1 Width: 64-bit Data Race: 3200 MT/s
Heartbeat CPU 0 instructions: 10000000 cycles: 2774870 heartbeat IPC: 3.604 cumulative IPC: 3.604 (Simulation time: 00 hr 00 min 47 sec)
Heartbeat CPU 0 instructions: 20000000 cycles: 5630649 heartbeat IPC: 3.502 cumulative IPC: 3.552 (Simulation time: 00 hr 01 min 36 sec)
Heartbeat CPU 0 instructions: 30000000 cycles: 8488232 heartbeat IPC: 3.499 cumulative IPC: 3.534 (Simulation time: 00 hr 02 min 26 sec)
Heartbeat CPU 0 instructions: 40000002 cycles: 11338173 heartbeat IPC: 3.509 cumulative IPC: 3.528 (Simulation time: 00 hr 03 min 15 sec)
Heartbeat CPU 0 instructions: 50000000 cycles: 14183666 heartbeat IPC: 3.514 cumulative IPC: 3.525 (Simulation time: 00 hr 04 min 04 sec)
Heartbeat CPU 0 instructions: 60000000 cycles: 17044139 heartbeat IPC: 3.496 cumulative IPC: 3.52 (Simulation time: 00 hr 04 min 54 sec)
Heartbeat CPU 0 instructions: 70000004 cycles: 19916451 heartbeat IPC: 3.482 cumulative IPC: 3.515 (Simulation time: 00 hr 05 min 43 sec)
Heartbeat CPU 0 instructions: 80000000 cycles: 22795482 heartbeat IPC: 3.473 cumulative IPC: 3.509 (Simulation time: 00 hr 06 min 32 sec)
Heartbeat CPU 0 instructions: 90000002 cycles: 25580919 heartbeat IPC: 3.59 cumulative IPC: 3.518 (Simulation time: 00 hr 07 min 20 sec)
Heartbeat CPU 0 instructions: 100000003 cycles: 28406189 heartbeat IPC: 3.539 cumulative IPC: 3.52 (Simulation time: 00 hr 08 min 10 sec)
Heartbeat CPU 0 instructions: 110000003 cycles: 31292803 heartbeat IPC: 3.464 cumulative IPC: 3.515 (Simulation time: 00 hr 09 min 00 sec)
Heartbeat CPU 0 instructions: 120000002 cycles: 34168268 heartbeat IPC: 3.478 cumulative IPC: 3.512 (Simulation time: 00 hr 09 min 49 sec)
Heartbeat CPU 0 instructions: 130000003 cycles: 36983727 heartbeat IPC: 3.552 cumulative IPC: 3.515 (Simulation time: 00 hr 10 min 38 sec)
Heartbeat CPU 0 instructions: 140000001 cycles: 39783464 heartbeat IPC: 3.572 cumulative IPC: 3.519 (Simulation time: 00 hr 11 min 27 sec)
Heartbeat CPU 0 instructions: 150000000 cycles: 42591314 heartbeat IPC: 3.561 cumulative IPC: 3.522 (Simulation time: 00 hr 12 min 16 sec)
Heartbeat CPU 0 instructions: 160000003 cycles: 45463022 heartbeat IPC: 3.482 cumulative IPC: 3.519 (Simulation time: 00 hr 13 min 06 sec)
Heartbeat CPU 0 instructions: 170000001 cycles: 48289219 heartbeat IPC: 3.538 cumulative IPC: 3.52 (Simulation time: 00 hr 13 min 55 sec)
Heartbeat CPU 0 instructions: 180000003 cycles: 51135790 heartbeat IPC: 3.513 cumulative IPC: 3.52 (Simulation time: 00 hr 14 min 45 sec)
Heartbeat CPU 0 instructions: 190000002 cycles: 54005251 heartbeat IPC: 3.485 cumulative IPC: 3.518 (Simulation time: 00 hr 15 min 34 sec)
Heartbeat CPU 0 instructions: 200000001 cycles: 56851193 heartbeat IPC: 3.514 cumulative IPC: 3.518 (Simulation time: 00 hr 16 min 23 sec)
Warmup finished CPU 0 instructions: 200000001 cycles: 56851194 cumulative IPC: 3.518 (Simulation time: 00 hr 16 min 23 sec)
Warmup complete CPU 0 instructions: 200000001 cycles: 56851194 cumulative IPC: 3.518 (Simulation time: 00 hr 16 min 23 sec)
Heartbeat CPU 0 instructions: 210000002 cycles: 61581316 heartbeat IPC: 2.114 cumulative IPC: 2.114 (Simulation time: 00 hr 17 min 26 sec)
Heartbeat CPU 0 instructions: 220000003 cycles: 66130273 heartbeat IPC: 2.198 cumulative IPC: 2.155 (Simulation time: 00 hr 18 min 30 sec)
Heartbeat CPU 0 instructions: 230000002 cycles: 70820350 heartbeat IPC: 2.132 cumulative IPC: 2.148 (Simulation time: 00 hr 19 min 35 sec)
Heartbeat CPU 0 instructions: 240000004 cycles: 75424137 heartbeat IPC: 2.172 cumulative IPC: 2.154 (Simulation time: 00 hr 20 min 39 sec)
Heartbeat CPU 0 instructions: 250000003 cycles: 79857078 heartbeat IPC: 2.256 cumulative IPC: 2.173 (Simulation time: 00 hr 21 min 44 sec)
Heartbeat CPU 0 instructions: 260000000 cycles: 84439639 heartbeat IPC: 2.182 cumulative IPC: 2.175 (Simulation time: 00 hr 22 min 47 sec)
Heartbeat CPU 0 instructions: 270000000 cycles: 89064224 heartbeat IPC: 2.162 cumulative IPC: 2.173 (Simulation time: 00 hr 23 min 50 sec)
Heartbeat CPU 0 instructions: 280000002 cycles: 93611904 heartbeat IPC: 2.199 cumulative IPC: 2.176 (Simulation time: 00 hr 24 min 53 sec)
Heartbeat CPU 0 instructions: 290000001 cycles: 98088548 heartbeat IPC: 2.234 cumulative IPC: 2.182 (Simulation time: 00 hr 25 min 56 sec)
Heartbeat CPU 0 instructions: 300000002 cycles: 102686425 heartbeat IPC: 2.175 cumulative IPC: 2.182 (Simulation time: 00 hr 27 min 00 sec)
Heartbeat CPU 0 instructions: 310000001 cycles: 107395819 heartbeat IPC: 2.123 cumulative IPC: 2.176 (Simulation time: 00 hr 28 min 04 sec)
Heartbeat CPU 0 instructions: 320000004 cycles: 111932946 heartbeat IPC: 2.204 cumulative IPC: 2.179 (Simulation time: 00 hr 29 min 07 sec)
Heartbeat CPU 0 instructions: 330000001 cycles: 116255374 heartbeat IPC: 2.314 cumulative IPC: 2.188 (Simulation time: 00 hr 30 min 12 sec)
Heartbeat CPU 0 instructions: 340000004 cycles: 120691444 heartbeat IPC: 2.254 cumulative IPC: 2.193 (Simulation time: 00 hr 31 min 14 sec)
Heartbeat CPU 0 instructions: 350000002 cycles: 125167031 heartbeat IPC: 2.234 cumulative IPC: 2.196 (Simulation time: 00 hr 32 min 16 sec)
Heartbeat CPU 0 instructions: 360000001 cycles: 129655532 heartbeat IPC: 2.228 cumulative IPC: 2.198 (Simulation time: 00 hr 33 min 19 sec)
Heartbeat CPU 0 instructions: 370000002 cycles: 134017571 heartbeat IPC: 2.293 cumulative IPC: 2.203 (Simulation time: 00 hr 34 min 23 sec)
Heartbeat CPU 0 instructions: 380000001 cycles: 138550470 heartbeat IPC: 2.206 cumulative IPC: 2.203 (Simulation time: 00 hr 35 min 26 sec)
Heartbeat CPU 0 instructions: 390000002 cycles: 143157806 heartbeat IPC: 2.17 cumulative IPC: 2.201 (Simulation time: 00 hr 36 min 29 sec)
Heartbeat CPU 0 instructions: 400000001 cycles: 147744060 heartbeat IPC: 2.18 cumulative IPC: 2.2 (Simulation time: 00 hr 37 min 33 sec)
Heartbeat CPU 0 instructions: 410000000 cycles: 151943111 heartbeat IPC: 2.381 cumulative IPC: 2.208 (Simulation time: 00 hr 38 min 35 sec)
Heartbeat CPU 0 instructions: 420000000 cycles: 156465601 heartbeat IPC: 2.211 cumulative IPC: 2.209 (Simulation time: 00 hr 39 min 37 sec)
Heartbeat CPU 0 instructions: 430000001 cycles: 161094900 heartbeat IPC: 2.16 cumulative IPC: 2.206 (Simulation time: 00 hr 40 min 40 sec)
Heartbeat CPU 0 instructions: 440000003 cycles: 165761880 heartbeat IPC: 2.143 cumulative IPC: 2.204 (Simulation time: 00 hr 41 min 44 sec)
Heartbeat CPU 0 instructions: 450000004 cycles: 170254608 heartbeat IPC: 2.226 cumulative IPC: 2.205 (Simulation time: 00 hr 42 min 47 sec)
Heartbeat CPU 0 instructions: 460000001 cycles: 174832942 heartbeat IPC: 2.184 cumulative IPC: 2.204 (Simulation time: 00 hr 43 min 52 sec)
Heartbeat CPU 0 instructions: 470000001 cycles: 181728739 heartbeat IPC: 1.45 cumulative IPC: 2.162 (Simulation time: 00 hr 45 min 07 sec)
Heartbeat CPU 0 instructions: 480000000 cycles: 187433291 heartbeat IPC: 1.753 cumulative IPC: 2.144 (Simulation time: 00 hr 46 min 17 sec)
Heartbeat CPU 0 instructions: 490000003 cycles: 192332827 heartbeat IPC: 2.041 cumulative IPC: 2.141 (Simulation time: 00 hr 47 min 25 sec)
Heartbeat CPU 0 instructions: 500000002 cycles: 196929696 heartbeat IPC: 2.175 cumulative IPC: 2.142 (Simulation time: 00 hr 48 min 28 sec)
Heartbeat CPU 0 instructions: 510000001 cycles: 205300118 heartbeat IPC: 1.195 cumulative IPC: 2.088 (Simulation time: 00 hr 49 min 48 sec)
Heartbeat CPU 0 instructions: 520000001 cycles: 215592100 heartbeat IPC: 0.9716 cumulative IPC: 2.016 (Simulation time: 00 hr 51 min 21 sec)
Heartbeat CPU 0 instructions: 530000000 cycles: 224886293 heartbeat IPC: 1.076 cumulative IPC: 1.964 (Simulation time: 00 hr 52 min 49 sec)
Heartbeat CPU 0 instructions: 540000001 cycles: 233463698 heartbeat IPC: 1.166 cumulative IPC: 1.925 (Simulation time: 00 hr 54 min 12 sec)
Heartbeat CPU 0 instructions: 550000001 cycles: 243243690 heartbeat IPC: 1.022 cumulative IPC: 1.878 (Simulation time: 00 hr 55 min 40 sec)
Heartbeat CPU 0 instructions: 560000001 cycles: 248240377 heartbeat IPC: 2.001 cumulative IPC: 1.881 (Simulation time: 00 hr 56 min 46 sec)
Heartbeat CPU 0 instructions: 570000000 cycles: 253090150 heartbeat IPC: 2.062 cumulative IPC: 1.885 (Simulation time: 00 hr 57 min 52 sec)
Heartbeat CPU 0 instructions: 580000000 cycles: 258039740 heartbeat IPC: 2.02 cumulative IPC: 1.889 (Simulation time: 00 hr 58 min 58 sec)
Heartbeat CPU 0 instructions: 590000000 cycles: 262937333 heartbeat IPC: 2.042 cumulative IPC: 1.892 (Simulation time: 01 hr 00 min 04 sec)
Heartbeat CPU 0 instructions: 600000004 cycles: 271353049 heartbeat IPC: 1.188 cumulative IPC: 1.865 (Simulation time: 01 hr 01 min 28 sec)
Heartbeat CPU 0 instructions: 610000003 cycles: 281588248 heartbeat IPC: 0.977 cumulative IPC: 1.824 (Simulation time: 01 hr 02 min 59 sec)
Heartbeat CPU 0 instructions: 620000003 cycles: 291757034 heartbeat IPC: 0.9834 cumulative IPC: 1.788 (Simulation time: 01 hr 04 min 30 sec)
Heartbeat CPU 0 instructions: 630000001 cycles: 298705732 heartbeat IPC: 1.439 cumulative IPC: 1.778 (Simulation time: 01 hr 05 min 46 sec)
Heartbeat CPU 0 instructions: 640000004 cycles: 306726166 heartbeat IPC: 1.247 cumulative IPC: 1.761 (Simulation time: 01 hr 07 min 09 sec)
Heartbeat CPU 0 instructions: 650000004 cycles: 317667435 heartbeat IPC: 0.914 cumulative IPC: 1.725 (Simulation time: 01 hr 08 min 44 sec)
Heartbeat CPU 0 instructions: 660000000 cycles: 327226497 heartbeat IPC: 1.046 cumulative IPC: 1.701 (Simulation time: 01 hr 10 min 13 sec)
Heartbeat CPU 0 instructions: 670000002 cycles: 333059443 heartbeat IPC: 1.714 cumulative IPC: 1.702 (Simulation time: 01 hr 11 min 24 sec)
Heartbeat CPU 0 instructions: 680000002 cycles: 344683823 heartbeat IPC: 0.8603 cumulative IPC: 1.668 (Simulation time: 01 hr 13 min 04 sec)
Heartbeat CPU 0 instructions: 690000000 cycles: 354485709 heartbeat IPC: 1.02 cumulative IPC: 1.646 (Simulation time: 01 hr 14 min 34 sec)
Heartbeat CPU 0 instructions: 700000000 cycles: 359127564 heartbeat IPC: 2.154 cumulative IPC: 1.654 (Simulation time: 01 hr 15 min 38 sec)
Heartbeat CPU 0 instructions: 710000004 cycles: 363620781 heartbeat IPC: 2.226 cumulative IPC: 1.662 (Simulation time: 01 hr 16 min 42 sec)
Heartbeat CPU 0 instructions: 720000002 cycles: 368083520 heartbeat IPC: 2.241 cumulative IPC: 1.671 (Simulation time: 01 hr 17 min 44 sec)
Heartbeat CPU 0 instructions: 730000001 cycles: 372590356 heartbeat IPC: 2.219 cumulative IPC: 1.679 (Simulation time: 01 hr 18 min 47 sec)
Heartbeat CPU 0 instructions: 740000001 cycles: 377221716 heartbeat IPC: 2.159 cumulative IPC: 1.686 (Simulation time: 01 hr 19 min 50 sec)
Heartbeat CPU 0 instructions: 750000003 cycles: 381855203 heartbeat IPC: 2.158 cumulative IPC: 1.692 (Simulation time: 01 hr 20 min 55 sec)
Heartbeat CPU 0 instructions: 760000000 cycles: 386439447 heartbeat IPC: 2.181 cumulative IPC: 1.699 (Simulation time: 01 hr 21 min 58 sec)
Heartbeat CPU 0 instructions: 770000003 cycles: 390915038 heartbeat IPC: 2.234 cumulative IPC: 1.706 (Simulation time: 01 hr 23 min 02 sec)
Heartbeat CPU 0 instructions: 780000003 cycles: 395334650 heartbeat IPC: 2.263 cumulative IPC: 1.714 (Simulation time: 01 hr 24 min 06 sec)
Heartbeat CPU 0 instructions: 790000000 cycles: 399798012 heartbeat IPC: 2.24 cumulative IPC: 1.72 (Simulation time: 01 hr 25 min 09 sec)
Heartbeat CPU 0 instructions: 800000003 cycles: 404245116 heartbeat IPC: 2.249 cumulative IPC: 1.727 (Simulation time: 01 hr 26 min 12 sec)
Heartbeat CPU 0 instructions: 810000000 cycles: 408722886 heartbeat IPC: 2.233 cumulative IPC: 1.734 (Simulation time: 01 hr 27 min 15 sec)
Heartbeat CPU 0 instructions: 820000003 cycles: 413152194 heartbeat IPC: 2.258 cumulative IPC: 1.74 (Simulation time: 01 hr 28 min 17 sec)
Heartbeat CPU 0 instructions: 830000004 cycles: 417503275 heartbeat IPC: 2.298 cumulative IPC: 1.747 (Simulation time: 01 hr 29 min 19 sec)
Heartbeat CPU 0 instructions: 840000002 cycles: 421877132 heartbeat IPC: 2.286 cumulative IPC: 1.753 (Simulation time: 01 hr 30 min 21 sec)
Heartbeat CPU 0 instructions: 850000000 cycles: 426403687 heartbeat IPC: 2.209 cumulative IPC: 1.759 (Simulation time: 01 hr 31 min 24 sec)
Heartbeat CPU 0 instructions: 860000004 cycles: 430762536 heartbeat IPC: 2.294 cumulative IPC: 1.765 (Simulation time: 01 hr 32 min 28 sec)
Heartbeat CPU 0 instructions: 870000000 cycles: 434896685 heartbeat IPC: 2.419 cumulative IPC: 1.772 (Simulation time: 01 hr 33 min 33 sec)
Heartbeat CPU 0 instructions: 880000003 cycles: 439192066 heartbeat IPC: 2.328 cumulative IPC: 1.779 (Simulation time: 01 hr 34 min 37 sec)
Heartbeat CPU 0 instructions: 890000003 cycles: 443786195 heartbeat IPC: 2.177 cumulative IPC: 1.783 (Simulation time: 01 hr 35 min 42 sec)
Heartbeat CPU 0 instructions: 900000003 cycles: 448393127 heartbeat IPC: 2.171 cumulative IPC: 1.788 (Simulation time: 01 hr 36 min 46 sec)
Heartbeat CPU 0 instructions: 910000004 cycles: 452826139 heartbeat IPC: 2.256 cumulative IPC: 1.793 (Simulation time: 01 hr 37 min 49 sec)
Heartbeat CPU 0 instructions: 920000000 cycles: 457362221 heartbeat IPC: 2.205 cumulative IPC: 1.798 (Simulation time: 01 hr 38 min 52 sec)
Heartbeat CPU 0 instructions: 930000003 cycles: 461926837 heartbeat IPC: 2.191 cumulative IPC: 1.802 (Simulation time: 01 hr 39 min 57 sec)
Heartbeat CPU 0 instructions: 940000003 cycles: 466457651 heartbeat IPC: 2.207 cumulative IPC: 1.807 (Simulation time: 01 hr 41 min 01 sec)
Heartbeat CPU 0 instructions: 950000002 cycles: 470872678 heartbeat IPC: 2.265 cumulative IPC: 1.812 (Simulation time: 01 hr 42 min 04 sec)
Heartbeat CPU 0 instructions: 960000004 cycles: 475395324 heartbeat IPC: 2.211 cumulative IPC: 1.816 (Simulation time: 01 hr 43 min 08 sec)
Heartbeat CPU 0 instructions: 970000004 cycles: 479941692 heartbeat IPC: 2.2 cumulative IPC: 1.82 (Simulation time: 01 hr 44 min 12 sec)
Heartbeat CPU 0 instructions: 980000004 cycles: 484387500 heartbeat IPC: 2.249 cumulative IPC: 1.824 (Simulation time: 01 hr 45 min 16 sec)
Heartbeat CPU 0 instructions: 990000003 cycles: 488963729 heartbeat IPC: 2.185 cumulative IPC: 1.828 (Simulation time: 01 hr 46 min 20 sec)
Heartbeat CPU 0 instructions: 1000000004 cycles: 493398753 heartbeat IPC: 2.255 cumulative IPC: 1.833 (Simulation time: 01 hr 47 min 26 sec)
Heartbeat CPU 0 instructions: 1010000001 cycles: 497867475 heartbeat IPC: 2.238 cumulative IPC: 1.837 (Simulation time: 01 hr 48 min 30 sec)
Heartbeat CPU 0 instructions: 1020000003 cycles: 502332930 heartbeat IPC: 2.239 cumulative IPC: 1.841 (Simulation time: 01 hr 49 min 34 sec)
Heartbeat CPU 0 instructions: 1030000000 cycles: 506871354 heartbeat IPC: 2.203 cumulative IPC: 1.844 (Simulation time: 01 hr 50 min 36 sec)
Heartbeat CPU 0 instructions: 1040000000 cycles: 511381050 heartbeat IPC: 2.217 cumulative IPC: 1.848 (Simulation time: 01 hr 51 min 39 sec)
Heartbeat CPU 0 instructions: 1050000001 cycles: 515792942 heartbeat IPC: 2.267 cumulative IPC: 1.852 (Simulation time: 01 hr 52 min 43 sec)
Heartbeat CPU 0 instructions: 1060000001 cycles: 520305317 heartbeat IPC: 2.216 cumulative IPC: 1.856 (Simulation time: 01 hr 53 min 47 sec)
Heartbeat CPU 0 instructions: 1070000000 cycles: 524896198 heartbeat IPC: 2.178 cumulative IPC: 1.859 (Simulation time: 01 hr 54 min 51 sec)
Heartbeat CPU 0 instructions: 1080000003 cycles: 529281673 heartbeat IPC: 2.28 cumulative IPC: 1.863 (Simulation time: 01 hr 55 min 53 sec)
Heartbeat CPU 0 instructions: 1090000002 cycles: 533709140 heartbeat IPC: 2.259 cumulative IPC: 1.866 (Simulation time: 01 hr 56 min 59 sec)
Heartbeat CPU 0 instructions: 1100000004 cycles: 538108815 heartbeat IPC: 2.273 cumulative IPC: 1.87 (Simulation time: 01 hr 58 min 02 sec)
Heartbeat CPU 0 instructions: 1110000004 cycles: 542491271 heartbeat IPC: 2.282 cumulative IPC: 1.874 (Simulation time: 01 hr 59 min 05 sec)
Heartbeat CPU 0 instructions: 1120000000 cycles: 546839327 heartbeat IPC: 2.3 cumulative IPC: 1.878 (Simulation time: 02 hr 00 min 09 sec)
Heartbeat CPU 0 instructions: 1130000002 cycles: 551175495 heartbeat IPC: 2.306 cumulative IPC: 1.881 (Simulation time: 02 hr 01 min 13 sec)
Heartbeat CPU 0 instructions: 1140000002 cycles: 555727933 heartbeat IPC: 2.197 cumulative IPC: 1.884 (Simulation time: 02 hr 02 min 16 sec)
Heartbeat CPU 0 instructions: 1150000000 cycles: 560219407 heartbeat IPC: 2.226 cumulative IPC: 1.887 (Simulation time: 02 hr 03 min 20 sec)
Heartbeat CPU 0 instructions: 1160000000 cycles: 564560665 heartbeat IPC: 2.303 cumulative IPC: 1.891 (Simulation time: 02 hr 04 min 22 sec)
Heartbeat CPU 0 instructions: 1170000001 cycles: 568978186 heartbeat IPC: 2.264 cumulative IPC: 1.894 (Simulation time: 02 hr 05 min 26 sec)
Heartbeat CPU 0 instructions: 1180000004 cycles: 573400883 heartbeat IPC: 2.261 cumulative IPC: 1.897 (Simulation time: 02 hr 06 min 27 sec)
Heartbeat CPU 0 instructions: 1190000004 cycles: 577961819 heartbeat IPC: 2.193 cumulative IPC: 1.9 (Simulation time: 02 hr 07 min 30 sec)
Heartbeat CPU 0 instructions: 1200000004 cycles: 582378450 heartbeat IPC: 2.264 cumulative IPC: 1.903 (Simulation time: 02 hr 08 min 36 sec)
Simulation finished CPU 0 instructions: 1000000003 cycles: 525527257 cumulative IPC: 1.903 (Simulation time: 02 hr 08 min 36 sec)
Simulation complete CPU 0 instructions: 1000000003 cycles: 525527257 cumulative IPC: 1.903 (Simulation time: 02 hr 08 min 36 sec)

ChampSim completed all CPUs

=== Simulation ===
CPU 0 runs /home/faculty/p/pgratz/dpc3_traces/600.perlbench_s-210B.champsimtrace.xz
Region of Interest Statistics

CPU 0 cumulative IPC: 1.903 instructions: 1000000003 cycles: 525527257
CPU 0 Branch Prediction Accuracy: 96.81% MPKI: 4.737 Average ROB Occupancy at Mispredict: 94.07
Branch type MPKI
BRANCH_DIRECT_JUMP: 0.0486
BRANCH_INDIRECT: 0.311
BRANCH_CONDITIONAL: 4.22
BRANCH_DIRECT_CALL: 0.0117
BRANCH_INDIRECT_CALL: 0.135
BRANCH_RETURN: 0.012

LLC TOTAL        ACCESS:     552036 HIT:     197779 MISS:     354257
LLC LOAD         ACCESS:     406940 HIT:      93222 MISS:     313718
LLC RFO          ACCESS:      28337 HIT:       8169 MISS:      20168
LLC PREFETCH     ACCESS:          0 HIT:          0 MISS:          0
LLC WRITE        ACCESS:      92406 HIT:      91553 MISS:        853
LLC TRANSLATION  ACCESS:      24353 HIT:       4835 MISS:      19518
LLC PREFETCH REQUESTED:          0 ISSUED:          0 USEFUL:          0 USELESS:          0
LLC AVERAGE MISS LATENCY: 172.6 cycles
cpu0_DTLB TOTAL        ACCESS:  216738281 HIT:  215509871 MISS:    1228410
cpu0_DTLB LOAD         ACCESS:  216738281 HIT:  215509871 MISS:    1228410
cpu0_DTLB RFO          ACCESS:          0 HIT:          0 MISS:          0
cpu0_DTLB PREFETCH     ACCESS:          0 HIT:          0 MISS:          0
cpu0_DTLB WRITE        ACCESS:          0 HIT:          0 MISS:          0
cpu0_DTLB TRANSLATION  ACCESS:          0 HIT:          0 MISS:          0
cpu0_DTLB PREFETCH REQUESTED:          0 ISSUED:          0 USEFUL:          0 USELESS:          0
cpu0_DTLB AVERAGE MISS LATENCY: 10.74 cycles
cpu0_ITLB TOTAL        ACCESS:   12028629 HIT:   11763658 MISS:     264971
cpu0_ITLB LOAD         ACCESS:   12028629 HIT:   11763658 MISS:     264971
cpu0_ITLB RFO          ACCESS:          0 HIT:          0 MISS:          0
cpu0_ITLB PREFETCH     ACCESS:          0 HIT:          0 MISS:          0
cpu0_ITLB WRITE        ACCESS:          0 HIT:          0 MISS:          0
cpu0_ITLB TRANSLATION  ACCESS:          0 HIT:          0 MISS:          0
cpu0_ITLB PREFETCH REQUESTED:          0 ISSUED:          0 USEFUL:          0 USELESS:          0
cpu0_ITLB AVERAGE MISS LATENCY: 3.27 cycles
cpu0_L1D TOTAL        ACCESS:  301065808 HIT:  299526373 MISS:    1539435
cpu0_L1D LOAD         ACCESS:   95817786 HIT:   94566490 MISS:    1251296
cpu0_L1D RFO          ACCESS:          0 HIT:          0 MISS:          0
cpu0_L1D PREFETCH     ACCESS:          0 HIT:          0 MISS:          0
cpu0_L1D WRITE        ACCESS:  205210171 HIT:  204956624 MISS:     253547
cpu0_L1D TRANSLATION  ACCESS:      37851 HIT:       3259 MISS:      34592
cpu0_L1D PREFETCH REQUESTED:          0 ISSUED:          0 USEFUL:          0 USELESS:          0
cpu0_L1D AVERAGE MISS LATENCY: 48.69 cycles
cpu0_L1I TOTAL        ACCESS:   14070234 HIT:   12086392 MISS:    1983842
cpu0_L1I LOAD         ACCESS:   14070234 HIT:   12086392 MISS:    1983842
cpu0_L1I RFO          ACCESS:          0 HIT:          0 MISS:          0
cpu0_L1I PREFETCH     ACCESS:          0 HIT:          0 MISS:          0
cpu0_L1I WRITE        ACCESS:          0 HIT:          0 MISS:          0
cpu0_L1I TRANSLATION  ACCESS:          0 HIT:          0 MISS:          0
cpu0_L1I PREFETCH REQUESTED:          0 ISSUED:          0 USEFUL:          0 USELESS:          0
cpu0_L1I AVERAGE MISS LATENCY: 9.894 cycles
cpu0_L2C TOTAL        ACCESS:    3037850 HIT:    2577106 MISS:     460744
cpu0_L2C LOAD         ACCESS:    2648275 HIT:    2241335 MISS:     406940
cpu0_L2C RFO          ACCESS:      83689 HIT:      55352 MISS:      28337
cpu0_L2C PREFETCH     ACCESS:          0 HIT:          0 MISS:          0
cpu0_L2C WRITE        ACCESS:     271348 HIT:     270234 MISS:       1114
cpu0_L2C TRANSLATION  ACCESS:      34538 HIT:      10185 MISS:      24353
cpu0_L2C PREFETCH REQUESTED:          0 ISSUED:          0 USEFUL:          0 USELESS:          0
cpu0_L2C AVERAGE MISS LATENCY: 153.4 cycles
cpu0_STLB TOTAL        ACCESS:    1167597 HIT:    1134305 MISS:      33292
cpu0_STLB LOAD         ACCESS:    1167597 HIT:    1134305 MISS:      33292
cpu0_STLB RFO          ACCESS:          0 HIT:          0 MISS:          0
cpu0_STLB PREFETCH     ACCESS:          0 HIT:          0 MISS:          0
cpu0_STLB WRITE        ACCESS:          0 HIT:          0 MISS:          0
cpu0_STLB TRANSLATION  ACCESS:          0 HIT:          0 MISS:          0
cpu0_STLB PREFETCH REQUESTED:          0 ISSUED:          0 USEFUL:          0 USELESS:          0
cpu0_STLB AVERAGE MISS LATENCY: 180.1 cycles

DRAM Statistics

Channel 0 RQ ROW_BUFFER_HIT:      81157
  ROW_BUFFER_MISS:     272245
 AVG DBUS CONGESTED CYCLE: 3.772
WQ ROW_BUFFER_HIT: Channel 0 
  ROW_BUFFER_MISS:      24789
  FULL:      36586
