WARNING: physical memory size is smaller than virtual memory size.
WARNING: option --warmup_instructions is deprecated. Use --warmup-instructions instead.
WARNING: option --simulation_instructions is deprecated. Use --simulation-instructions instead.

*** ChampSim Multicore Out-of-Order Simulator ***
Warmup Instructions: 200000000
Simulation Instructions: 1000000000
Number of CPUs: 1
Page size: 4096

Off-chip DRAM Size: 4 GiB Channels: 1 Width: 64-bit Data Race: 3200 MT/s
Heartbeat CPU 0 instructions: 10000002 cycles: 2500046 heartbeat IPC: 4 cumulative IPC: 4 (Simulation time: 00 hr 00 min 38 sec)
Heartbeat CPU 0 instructions: 20000002 cycles: 5000052 heartbeat IPC: 4 cumulative IPC: 4 (Simulation time: 00 hr 01 min 16 sec)
Heartbeat CPU 0 instructions: 30000002 cycles: 7500052 heartbeat IPC: 4 cumulative IPC: 4 (Simulation time: 00 hr 01 min 55 sec)
Heartbeat CPU 0 instructions: 40000002 cycles: 10000052 heartbeat IPC: 4 cumulative IPC: 4 (Simulation time: 00 hr 02 min 34 sec)
Heartbeat CPU 0 instructions: 50000002 cycles: 12500052 heartbeat IPC: 4 cumulative IPC: 4 (Simulation time: 00 hr 03 min 13 sec)
Heartbeat CPU 0 instructions: 60000002 cycles: 15000052 heartbeat IPC: 4 cumulative IPC: 4 (Simulation time: 00 hr 03 min 51 sec)
Heartbeat CPU 0 instructions: 70000001 cycles: 17500957 heartbeat IPC: 3.999 cumulative IPC: 4 (Simulation time: 00 hr 04 min 30 sec)
Heartbeat CPU 0 instructions: 80000001 cycles: 20000957 heartbeat IPC: 4 cumulative IPC: 4 (Simulation time: 00 hr 05 min 09 sec)
Heartbeat CPU 0 instructions: 90000001 cycles: 22500957 heartbeat IPC: 4 cumulative IPC: 4 (Simulation time: 00 hr 05 min 48 sec)
Heartbeat CPU 0 instructions: 100000000 cycles: 25005779 heartbeat IPC: 3.992 cumulative IPC: 3.999 (Simulation time: 00 hr 06 min 27 sec)
Heartbeat CPU 0 instructions: 110000000 cycles: 27505779 heartbeat IPC: 4 cumulative IPC: 3.999 (Simulation time: 00 hr 07 min 05 sec)
Heartbeat CPU 0 instructions: 120000000 cycles: 30005779 heartbeat IPC: 4 cumulative IPC: 3.999 (Simulation time: 00 hr 07 min 43 sec)
Heartbeat CPU 0 instructions: 130000001 cycles: 32538934 heartbeat IPC: 3.948 cumulative IPC: 3.995 (Simulation time: 00 hr 08 min 22 sec)
Heartbeat CPU 0 instructions: 140000001 cycles: 35038934 heartbeat IPC: 4 cumulative IPC: 3.996 (Simulation time: 00 hr 09 min 01 sec)
Heartbeat CPU 0 instructions: 150000001 cycles: 37538934 heartbeat IPC: 4 cumulative IPC: 3.996 (Simulation time: 00 hr 09 min 39 sec)
Heartbeat CPU 0 instructions: 160000000 cycles: 40038936 heartbeat IPC: 4 cumulative IPC: 3.996 (Simulation time: 00 hr 10 min 18 sec)
Heartbeat CPU 0 instructions: 170000000 cycles: 42538936 heartbeat IPC: 4 cumulative IPC: 3.996 (Simulation time: 00 hr 10 min 56 sec)
Heartbeat CPU 0 instructions: 180000000 cycles: 45038936 heartbeat IPC: 4 cumulative IPC: 3.997 (Simulation time: 00 hr 11 min 35 sec)
Heartbeat CPU 0 instructions: 190000000 cycles: 47538936 heartbeat IPC: 4 cumulative IPC: 3.997 (Simulation time: 00 hr 12 min 14 sec)
Heartbeat CPU 0 instructions: 200000001 cycles: 50038937 heartbeat IPC: 4 cumulative IPC: 3.997 (Simulation time: 00 hr 12 min 53 sec)
Warmup finished CPU 0 instructions: 200000001 cycles: 50038938 cumulative IPC: 3.997 (Simulation time: 00 hr 12 min 53 sec)
Warmup complete CPU 0 instructions: 200000001 cycles: 50038938 cumulative IPC: 3.997 (Simulation time: 00 hr 12 min 53 sec)
Heartbeat CPU 0 instructions: 210000002 cycles: 54148528 heartbeat IPC: 2.433 cumulative IPC: 2.433 (Simulation time: 00 hr 14 min 01 sec)
Heartbeat CPU 0 instructions: 220000000 cycles: 58415175 heartbeat IPC: 2.344 cumulative IPC: 2.388 (Simulation time: 00 hr 15 min 10 sec)
Heartbeat CPU 0 instructions: 230000001 cycles: 63230395 heartbeat IPC: 2.077 cumulative IPC: 2.274 (Simulation time: 00 hr 16 min 24 sec)
Heartbeat CPU 0 instructions: 240000000 cycles: 68068436 heartbeat IPC: 2.067 cumulative IPC: 2.219 (Simulation time: 00 hr 17 min 39 sec)
Heartbeat CPU 0 instructions: 250000003 cycles: 73261040 heartbeat IPC: 1.926 cumulative IPC: 2.153 (Simulation time: 00 hr 18 min 54 sec)
Heartbeat CPU 0 instructions: 260000004 cycles: 77970193 heartbeat IPC: 2.124 cumulative IPC: 2.148 (Simulation time: 00 hr 20 min 07 sec)
Heartbeat CPU 0 instructions: 270000002 cycles: 83303920 heartbeat IPC: 1.875 cumulative IPC: 2.104 (Simulation time: 00 hr 21 min 23 sec)
Heartbeat CPU 0 instructions: 280000000 cycles: 88414897 heartbeat IPC: 1.957 cumulative IPC: 2.085 (Simulation time: 00 hr 22 min 40 sec)
Heartbeat CPU 0 instructions: 290000004 cycles: 93277309 heartbeat IPC: 2.057 cumulative IPC: 2.081 (Simulation time: 00 hr 23 min 54 sec)
Heartbeat CPU 0 instructions: 300000004 cycles: 98136843 heartbeat IPC: 2.058 cumulative IPC: 2.079 (Simulation time: 00 hr 25 min 09 sec)
Heartbeat CPU 0 instructions: 310000000 cycles: 102966332 heartbeat IPC: 2.071 cumulative IPC: 2.078 (Simulation time: 00 hr 26 min 23 sec)
Heartbeat CPU 0 instructions: 320000002 cycles: 107688935 heartbeat IPC: 2.117 cumulative IPC: 2.082 (Simulation time: 00 hr 27 min 36 sec)
Heartbeat CPU 0 instructions: 330000002 cycles: 112155270 heartbeat IPC: 2.239 cumulative IPC: 2.093 (Simulation time: 00 hr 28 min 47 sec)
Heartbeat CPU 0 instructions: 340000003 cycles: 116987041 heartbeat IPC: 2.07 cumulative IPC: 2.091 (Simulation time: 00 hr 30 min 01 sec)
Heartbeat CPU 0 instructions: 350000001 cycles: 121700914 heartbeat IPC: 2.121 cumulative IPC: 2.093 (Simulation time: 00 hr 31 min 14 sec)
Heartbeat CPU 0 instructions: 360000000 cycles: 126654926 heartbeat IPC: 2.019 cumulative IPC: 2.088 (Simulation time: 00 hr 32 min 27 sec)
Heartbeat CPU 0 instructions: 370000000 cycles: 131437156 heartbeat IPC: 2.091 cumulative IPC: 2.088 (Simulation time: 00 hr 33 min 41 sec)
Heartbeat CPU 0 instructions: 380000003 cycles: 136208287 heartbeat IPC: 2.096 cumulative IPC: 2.089 (Simulation time: 00 hr 34 min 54 sec)
Heartbeat CPU 0 instructions: 390000002 cycles: 141651939 heartbeat IPC: 1.837 cumulative IPC: 2.074 (Simulation time: 00 hr 36 min 11 sec)
Heartbeat CPU 0 instructions: 400000002 cycles: 146357413 heartbeat IPC: 2.125 cumulative IPC: 2.076 (Simulation time: 00 hr 37 min 25 sec)
Heartbeat CPU 0 instructions: 410000002 cycles: 151046228 heartbeat IPC: 2.133 cumulative IPC: 2.079 (Simulation time: 00 hr 38 min 39 sec)
Heartbeat CPU 0 instructions: 420000000 cycles: 157310722 heartbeat IPC: 1.596 cumulative IPC: 2.051 (Simulation time: 00 hr 40 min 00 sec)
Heartbeat CPU 0 instructions: 430000004 cycles: 162188827 heartbeat IPC: 2.05 cumulative IPC: 2.051 (Simulation time: 00 hr 41 min 16 sec)
Heartbeat CPU 0 instructions: 440000000 cycles: 166897256 heartbeat IPC: 2.124 cumulative IPC: 2.054 (Simulation time: 00 hr 42 min 30 sec)
Heartbeat CPU 0 instructions: 450000004 cycles: 171667279 heartbeat IPC: 2.096 cumulative IPC: 2.055 (Simulation time: 00 hr 43 min 43 sec)
Heartbeat CPU 0 instructions: 460000002 cycles: 176569592 heartbeat IPC: 2.04 cumulative IPC: 2.055 (Simulation time: 00 hr 44 min 59 sec)
Heartbeat CPU 0 instructions: 470000002 cycles: 181388773 heartbeat IPC: 2.075 cumulative IPC: 2.056 (Simulation time: 00 hr 46 min 14 sec)
Heartbeat CPU 0 instructions: 480000004 cycles: 186578516 heartbeat IPC: 1.927 cumulative IPC: 2.051 (Simulation time: 00 hr 47 min 30 sec)
Heartbeat CPU 0 instructions: 490000002 cycles: 191353037 heartbeat IPC: 2.094 cumulative IPC: 2.052 (Simulation time: 00 hr 48 min 44 sec)
Heartbeat CPU 0 instructions: 500000001 cycles: 196246008 heartbeat IPC: 2.044 cumulative IPC: 2.052 (Simulation time: 00 hr 49 min 58 sec)
Heartbeat CPU 0 instructions: 510000000 cycles: 200994936 heartbeat IPC: 2.106 cumulative IPC: 2.054 (Simulation time: 00 hr 51 min 12 sec)
Heartbeat CPU 0 instructions: 520000001 cycles: 205629865 heartbeat IPC: 2.158 cumulative IPC: 2.057 (Simulation time: 00 hr 52 min 23 sec)
Heartbeat CPU 0 instructions: 530000000 cycles: 210406466 heartbeat IPC: 2.094 cumulative IPC: 2.058 (Simulation time: 00 hr 53 min 37 sec)
Heartbeat CPU 0 instructions: 540000003 cycles: 215206014 heartbeat IPC: 2.084 cumulative IPC: 2.059 (Simulation time: 00 hr 54 min 51 sec)
Heartbeat CPU 0 instructions: 550000001 cycles: 219715842 heartbeat IPC: 2.217 cumulative IPC: 2.063 (Simulation time: 00 hr 56 min 03 sec)
Heartbeat CPU 0 instructions: 560000002 cycles: 226096232 heartbeat IPC: 1.567 cumulative IPC: 2.045 (Simulation time: 00 hr 57 min 24 sec)
Heartbeat CPU 0 instructions: 570000002 cycles: 229958280 heartbeat IPC: 2.589 cumulative IPC: 2.056 (Simulation time: 00 hr 58 min 28 sec)
Heartbeat CPU 0 instructions: 580000001 cycles: 234447563 heartbeat IPC: 2.228 cumulative IPC: 2.061 (Simulation time: 00 hr 59 min 36 sec)
Heartbeat CPU 0 instructions: 590000001 cycles: 239440325 heartbeat IPC: 2.003 cumulative IPC: 2.059 (Simulation time: 01 hr 00 min 52 sec)
Heartbeat CPU 0 instructions: 600000000 cycles: 244122393 heartbeat IPC: 2.136 cumulative IPC: 2.061 (Simulation time: 01 hr 02 min 05 sec)
Heartbeat CPU 0 instructions: 610000002 cycles: 248723334 heartbeat IPC: 2.173 cumulative IPC: 2.064 (Simulation time: 01 hr 03 min 16 sec)
Heartbeat CPU 0 instructions: 620000001 cycles: 253483198 heartbeat IPC: 2.101 cumulative IPC: 2.064 (Simulation time: 01 hr 04 min 30 sec)
Heartbeat CPU 0 instructions: 630000003 cycles: 258304657 heartbeat IPC: 2.074 cumulative IPC: 2.065 (Simulation time: 01 hr 05 min 45 sec)
Heartbeat CPU 0 instructions: 640000002 cycles: 262813233 heartbeat IPC: 2.218 cumulative IPC: 2.068 (Simulation time: 01 hr 06 min 56 sec)
Heartbeat CPU 0 instructions: 650000001 cycles: 267609747 heartbeat IPC: 2.085 cumulative IPC: 2.068 (Simulation time: 01 hr 08 min 10 sec)
Heartbeat CPU 0 instructions: 660000000 cycles: 272460622 heartbeat IPC: 2.061 cumulative IPC: 2.068 (Simulation time: 01 hr 09 min 24 sec)
Heartbeat CPU 0 instructions: 670000002 cycles: 276979893 heartbeat IPC: 2.213 cumulative IPC: 2.071 (Simulation time: 01 hr 10 min 35 sec)
Heartbeat CPU 0 instructions: 680000001 cycles: 282000852 heartbeat IPC: 1.992 cumulative IPC: 2.069 (Simulation time: 01 hr 11 min 51 sec)
Heartbeat CPU 0 instructions: 690000000 cycles: 286670774 heartbeat IPC: 2.141 cumulative IPC: 2.071 (Simulation time: 01 hr 13 min 03 sec)
Heartbeat CPU 0 instructions: 700000000 cycles: 291287199 heartbeat IPC: 2.166 cumulative IPC: 2.073 (Simulation time: 01 hr 14 min 15 sec)
Heartbeat CPU 0 instructions: 710000002 cycles: 296028065 heartbeat IPC: 2.109 cumulative IPC: 2.073 (Simulation time: 01 hr 15 min 30 sec)
Heartbeat CPU 0 instructions: 720000002 cycles: 300826337 heartbeat IPC: 2.084 cumulative IPC: 2.073 (Simulation time: 01 hr 16 min 45 sec)
Heartbeat CPU 0 instructions: 730000000 cycles: 305470120 heartbeat IPC: 2.153 cumulative IPC: 2.075 (Simulation time: 01 hr 17 min 56 sec)
Heartbeat CPU 0 instructions: 740000003 cycles: 309298068 heartbeat IPC: 2.612 cumulative IPC: 2.083 (Simulation time: 01 hr 19 min 01 sec)
Heartbeat CPU 0 instructions: 750000000 cycles: 313365424 heartbeat IPC: 2.459 cumulative IPC: 2.089 (Simulation time: 01 hr 20 min 07 sec)
Heartbeat CPU 0 instructions: 760000001 cycles: 327571080 heartbeat IPC: 0.7039 cumulative IPC: 2.018 (Simulation time: 01 hr 21 min 59 sec)
Heartbeat CPU 0 instructions: 770000004 cycles: 335186853 heartbeat IPC: 1.313 cumulative IPC: 1.999 (Simulation time: 01 hr 23 min 23 sec)
Heartbeat CPU 0 instructions: 780000003 cycles: 339898981 heartbeat IPC: 2.122 cumulative IPC: 2.001 (Simulation time: 01 hr 24 min 38 sec)
Heartbeat CPU 0 instructions: 790000001 cycles: 344478184 heartbeat IPC: 2.184 cumulative IPC: 2.004 (Simulation time: 01 hr 25 min 49 sec)
Heartbeat CPU 0 instructions: 800000000 cycles: 349411837 heartbeat IPC: 2.027 cumulative IPC: 2.004 (Simulation time: 01 hr 27 min 05 sec)
Heartbeat CPU 0 instructions: 810000004 cycles: 354136585 heartbeat IPC: 2.117 cumulative IPC: 2.006 (Simulation time: 01 hr 28 min 19 sec)
Heartbeat CPU 0 instructions: 820000004 cycles: 358813383 heartbeat IPC: 2.138 cumulative IPC: 2.008 (Simulation time: 01 hr 29 min 32 sec)
Heartbeat CPU 0 instructions: 830000001 cycles: 363297099 heartbeat IPC: 2.23 cumulative IPC: 2.011 (Simulation time: 01 hr 30 min 42 sec)
Heartbeat CPU 0 instructions: 840000001 cycles: 367110984 heartbeat IPC: 2.622 cumulative IPC: 2.018 (Simulation time: 01 hr 31 min 46 sec)
Heartbeat CPU 0 instructions: 850000003 cycles: 372353252 heartbeat IPC: 1.908 cumulative IPC: 2.017 (Simulation time: 01 hr 33 min 02 sec)
Heartbeat CPU 0 instructions: 860000003 cycles: 377127701 heartbeat IPC: 2.094 cumulative IPC: 2.018 (Simulation time: 01 hr 34 min 16 sec)
Heartbeat CPU 0 instructions: 870000004 cycles: 381548556 heartbeat IPC: 2.262 cumulative IPC: 2.021 (Simulation time: 01 hr 35 min 28 sec)
Heartbeat CPU 0 instructions: 880000002 cycles: 386397655 heartbeat IPC: 2.062 cumulative IPC: 2.022 (Simulation time: 01 hr 36 min 43 sec)
Heartbeat CPU 0 instructions: 890000002 cycles: 391078873 heartbeat IPC: 2.136 cumulative IPC: 2.023 (Simulation time: 01 hr 37 min 57 sec)
Heartbeat CPU 0 instructions: 900000000 cycles: 395601175 heartbeat IPC: 2.211 cumulative IPC: 2.026 (Simulation time: 01 hr 39 min 08 sec)
Heartbeat CPU 0 instructions: 910000001 cycles: 400440654 heartbeat IPC: 2.066 cumulative IPC: 2.026 (Simulation time: 01 hr 40 min 22 sec)
Heartbeat CPU 0 instructions: 920000000 cycles: 405213345 heartbeat IPC: 2.095 cumulative IPC: 2.027 (Simulation time: 01 hr 41 min 36 sec)
Heartbeat CPU 0 instructions: 930000001 cycles: 409760957 heartbeat IPC: 2.199 cumulative IPC: 2.029 (Simulation time: 01 hr 42 min 47 sec)
Heartbeat CPU 0 instructions: 940000001 cycles: 414754070 heartbeat IPC: 2.003 cumulative IPC: 2.029 (Simulation time: 01 hr 44 min 03 sec)
Heartbeat CPU 0 instructions: 950000003 cycles: 419464838 heartbeat IPC: 2.123 cumulative IPC: 2.03 (Simulation time: 01 hr 45 min 17 sec)
Heartbeat CPU 0 instructions: 960000002 cycles: 423946152 heartbeat IPC: 2.231 cumulative IPC: 2.033 (Simulation time: 01 hr 46 min 28 sec)
Heartbeat CPU 0 instructions: 970000003 cycles: 428803199 heartbeat IPC: 2.059 cumulative IPC: 2.033 (Simulation time: 01 hr 47 min 43 sec)
Heartbeat CPU 0 instructions: 980000002 cycles: 433544393 heartbeat IPC: 2.109 cumulative IPC: 2.034 (Simulation time: 01 hr 48 min 56 sec)
Heartbeat CPU 0 instructions: 990000003 cycles: 438506177 heartbeat IPC: 2.015 cumulative IPC: 2.034 (Simulation time: 01 hr 50 min 10 sec)
Heartbeat CPU 0 instructions: 1000000000 cycles: 443274633 heartbeat IPC: 2.097 cumulative IPC: 2.034 (Simulation time: 01 hr 51 min 24 sec)
Heartbeat CPU 0 instructions: 1010000001 cycles: 448086273 heartbeat IPC: 2.078 cumulative IPC: 2.035 (Simulation time: 01 hr 52 min 38 sec)
Heartbeat CPU 0 instructions: 1020000004 cycles: 452595998 heartbeat IPC: 2.217 cumulative IPC: 2.037 (Simulation time: 01 hr 53 min 49 sec)
Heartbeat CPU 0 instructions: 1030000003 cycles: 457336392 heartbeat IPC: 2.11 cumulative IPC: 2.038 (Simulation time: 01 hr 55 min 03 sec)
Heartbeat CPU 0 instructions: 1040000003 cycles: 462165107 heartbeat IPC: 2.071 cumulative IPC: 2.038 (Simulation time: 01 hr 56 min 18 sec)
Heartbeat CPU 0 instructions: 1050000001 cycles: 466736369 heartbeat IPC: 2.188 cumulative IPC: 2.04 (Simulation time: 01 hr 57 min 29 sec)
Heartbeat CPU 0 instructions: 1060000003 cycles: 471481190 heartbeat IPC: 2.108 cumulative IPC: 2.041 (Simulation time: 01 hr 58 min 42 sec)
Heartbeat CPU 0 instructions: 1070000000 cycles: 476224293 heartbeat IPC: 2.108 cumulative IPC: 2.041 (Simulation time: 01 hr 59 min 56 sec)
Heartbeat CPU 0 instructions: 1080000000 cycles: 480775207 heartbeat IPC: 2.197 cumulative IPC: 2.043 (Simulation time: 02 hr 01 min 07 sec)
Heartbeat CPU 0 instructions: 1090000004 cycles: 485384467 heartbeat IPC: 2.17 cumulative IPC: 2.044 (Simulation time: 02 hr 02 min 19 sec)
Heartbeat CPU 0 instructions: 1100000002 cycles: 490106047 heartbeat IPC: 2.118 cumulative IPC: 2.045 (Simulation time: 02 hr 03 min 33 sec)
Heartbeat CPU 0 instructions: 1110000001 cycles: 494758303 heartbeat IPC: 2.149 cumulative IPC: 2.046 (Simulation time: 02 hr 04 min 44 sec)
Heartbeat CPU 0 instructions: 1120000001 cycles: 499699348 heartbeat IPC: 2.024 cumulative IPC: 2.046 (Simulation time: 02 hr 06 min 00 sec)
Heartbeat CPU 0 instructions: 1130000003 cycles: 504379322 heartbeat IPC: 2.137 cumulative IPC: 2.047 (Simulation time: 02 hr 07 min 13 sec)
Heartbeat CPU 0 instructions: 1140000001 cycles: 508678090 heartbeat IPC: 2.326 cumulative IPC: 2.05 (Simulation time: 02 hr 08 min 22 sec)
Heartbeat CPU 0 instructions: 1150000003 cycles: 513416411 heartbeat IPC: 2.11 cumulative IPC: 2.05 (Simulation time: 02 hr 09 min 36 sec)
Heartbeat CPU 0 instructions: 1160000004 cycles: 518120238 heartbeat IPC: 2.126 cumulative IPC: 2.051 (Simulation time: 02 hr 10 min 49 sec)
Heartbeat CPU 0 instructions: 1170000000 cycles: 522716455 heartbeat IPC: 2.176 cumulative IPC: 2.052 (Simulation time: 02 hr 12 min 01 sec)
Heartbeat CPU 0 instructions: 1180000002 cycles: 527629514 heartbeat IPC: 2.035 cumulative IPC: 2.052 (Simulation time: 02 hr 13 min 16 sec)
Heartbeat CPU 0 instructions: 1190000002 cycles: 532396881 heartbeat IPC: 2.098 cumulative IPC: 2.052 (Simulation time: 02 hr 14 min 29 sec)
Heartbeat CPU 0 instructions: 1200000002 cycles: 537155352 heartbeat IPC: 2.102 cumulative IPC: 2.053 (Simulation time: 02 hr 15 min 42 sec)
Simulation finished CPU 0 instructions: 1000000001 cycles: 487116415 cumulative IPC: 2.053 (Simulation time: 02 hr 15 min 42 sec)
Simulation complete CPU 0 instructions: 1000000001 cycles: 487116415 cumulative IPC: 2.053 (Simulation time: 02 hr 15 min 42 sec)

ChampSim completed all CPUs

=== Simulation ===
CPU 0 runs /home/faculty/p/pgratz/dpc3_traces/602.gcc_s-734B.champsimtrace.xz
Region of Interest Statistics

CPU 0 cumulative IPC: 2.053 instructions: 1000000001 cycles: 487116415
CPU 0 Branch Prediction Accuracy: 99.78% MPKI: 0.5144 Average ROB Occupancy at Mispredict: 91.5
Branch type MPKI
BRANCH_DIRECT_JUMP: 0.104
BRANCH_INDIRECT: 0
BRANCH_CONDITIONAL: 0.335
BRANCH_DIRECT_CALL: 0.075
BRANCH_INDIRECT_CALL: 2e-06
BRANCH_RETURN: 1e-06

LLC TOTAL        ACCESS:    8439891 HIT:      90622 MISS:    8349269
LLC LOAD         ACCESS:    8246068 HIT:      19380 MISS:    8226688
LLC RFO          ACCESS:       7632 HIT:         97 MISS:       7535
LLC PREFETCH     ACCESS:          0 HIT:          0 MISS:          0
LLC WRITE        ACCESS:      79637 HIT:      61860 MISS:      17777
LLC TRANSLATION  ACCESS:     106554 HIT:       9285 MISS:      97269
LLC PREFETCH REQUESTED:          0 ISSUED:          0 USEFUL:          0 USELESS:          0
LLC AVERAGE MISS LATENCY: 102.6 cycles
cpu0_DTLB TOTAL        ACCESS:  118303752 HIT:  117462066 MISS:     841686
cpu0_DTLB LOAD         ACCESS:  118303752 HIT:  117462066 MISS:     841686
cpu0_DTLB RFO          ACCESS:          0 HIT:          0 MISS:          0
cpu0_DTLB PREFETCH     ACCESS:          0 HIT:          0 MISS:          0
cpu0_DTLB WRITE        ACCESS:          0 HIT:          0 MISS:          0
cpu0_DTLB TRANSLATION  ACCESS:          0 HIT:          0 MISS:          0
cpu0_DTLB PREFETCH REQUESTED:          0 ISSUED:          0 USEFUL:          0 USELESS:          0
cpu0_DTLB AVERAGE MISS LATENCY: 29.87 cycles
cpu0_ITLB TOTAL        ACCESS:       2948 HIT:       2948 MISS:          0
cpu0_ITLB LOAD         ACCESS:       2948 HIT:       2948 MISS:          0
cpu0_ITLB RFO          ACCESS:          0 HIT:          0 MISS:          0
cpu0_ITLB PREFETCH     ACCESS:          0 HIT:          0 MISS:          0
cpu0_ITLB WRITE        ACCESS:          0 HIT:          0 MISS:          0
cpu0_ITLB TRANSLATION  ACCESS:          0 HIT:          0 MISS:          0
cpu0_ITLB PREFETCH REQUESTED:          0 ISSUED:          0 USEFUL:          0 USELESS:          0
cpu0_ITLB AVERAGE MISS LATENCY: -nan cycles
cpu0_L1D TOTAL        ACCESS:  171403345 HIT:  131384920 MISS:   40018425
cpu0_L1D LOAD         ACCESS:   71042025 HIT:   31312781 MISS:   39729244
cpu0_L1D RFO          ACCESS:          0 HIT:          0 MISS:          0
cpu0_L1D PREFETCH     ACCESS:          0 HIT:          0 MISS:          0
cpu0_L1D WRITE        ACCESS:  100125622 HIT:   99955500 MISS:     170122
cpu0_L1D TRANSLATION  ACCESS:     235698 HIT:     116639 MISS:     119059
cpu0_L1D PREFETCH REQUESTED:          0 ISSUED:          0 USEFUL:          0 USELESS:          0
cpu0_L1D AVERAGE MISS LATENCY: 20.04 cycles
cpu0_L1I TOTAL        ACCESS:       3191 HIT:       3190 MISS:          1
cpu0_L1I LOAD         ACCESS:       3191 HIT:       3190 MISS:          1
cpu0_L1I RFO          ACCESS:          0 HIT:          0 MISS:          0
cpu0_L1I PREFETCH     ACCESS:          0 HIT:          0 MISS:          0
cpu0_L1I WRITE        ACCESS:          0 HIT:          0 MISS:          0
cpu0_L1I TRANSLATION  ACCESS:          0 HIT:          0 MISS:          0
cpu0_L1I PREFETCH REQUESTED:          0 ISSUED:          0 USEFUL:          0 USELESS:          0
cpu0_L1I AVERAGE MISS LATENCY: 197 cycles
cpu0_L2C TOTAL        ACCESS:   16849996 HIT:    8489722 MISS:    8360274
cpu0_L2C LOAD         ACCESS:   16489716 HIT:    8243648 MISS:    8246068
cpu0_L2C RFO          ACCESS:      40823 HIT:      33191 MISS:       7632
cpu0_L2C PREFETCH     ACCESS:          0 HIT:          0 MISS:          0
cpu0_L2C WRITE        ACCESS:     200643 HIT:     200623 MISS:         20
cpu0_L2C TRANSLATION  ACCESS:     118814 HIT:      12260 MISS:     106554
cpu0_L2C PREFETCH REQUESTED:          0 ISSUED:          0 USEFUL:          0 USELESS:          0
cpu0_L2C AVERAGE MISS LATENCY: 123.5 cycles
cpu0_STLB TOTAL        ACCESS:     440875 HIT:     222795 MISS:     218080
cpu0_STLB LOAD         ACCESS:     440875 HIT:     222795 MISS:     218080
cpu0_STLB RFO          ACCESS:          0 HIT:          0 MISS:          0
cpu0_STLB PREFETCH     ACCESS:          0 HIT:          0 MISS:          0
cpu0_STLB WRITE        ACCESS:          0 HIT:          0 MISS:          0
cpu0_STLB TRANSLATION  ACCESS:          0 HIT:          0 MISS:          0
cpu0_STLB PREFETCH REQUESTED:          0 ISSUED:          0 USEFUL:          0 USELESS:          0
cpu0_STLB AVERAGE MISS LATENCY: 126.9 cycles

DRAM Statistics

Channel 0 RQ ROW_BUFFER_HIT:    5555390
  ROW_BUFFER_MISS:    2776082
 AVG DBUS CONGESTED CYCLE: 3.705
WQ ROW_BUFFER_HIT: Channel 0 
  ROW_BUFFER_MISS:      17872
  FULL:      60899
