WARNING: physical memory size is smaller than virtual memory size.
WARNING: option --warmup_instructions is deprecated. Use --warmup-instructions instead.
WARNING: option --simulation_instructions is deprecated. Use --simulation-instructions instead.

*** ChampSim Multicore Out-of-Order Simulator ***
Warmup Instructions: 200000000
Simulation Instructions: 1000000000
Number of CPUs: 1
Page size: 4096

Off-chip DRAM Size: 4 GiB Channels: 1 Width: 64-bit Data Race: 3200 MT/s
Heartbeat CPU 0 instructions: 10000001 cycles: 2521500 heartbeat IPC: 3.966 cumulative IPC: 3.966 (Simulation time: 00 hr 00 min 35 sec)
Heartbeat CPU 0 instructions: 20000001 cycles: 5037590 heartbeat IPC: 3.974 cumulative IPC: 3.97 (Simulation time: 00 hr 01 min 11 sec)
Heartbeat CPU 0 instructions: 30000000 cycles: 7552355 heartbeat IPC: 3.977 cumulative IPC: 3.972 (Simulation time: 00 hr 01 min 48 sec)
Heartbeat CPU 0 instructions: 40000000 cycles: 10075961 heartbeat IPC: 3.963 cumulative IPC: 3.97 (Simulation time: 00 hr 02 min 23 sec)
Heartbeat CPU 0 instructions: 50000001 cycles: 12597382 heartbeat IPC: 3.966 cumulative IPC: 3.969 (Simulation time: 00 hr 02 min 58 sec)
Heartbeat CPU 0 instructions: 60000000 cycles: 15121980 heartbeat IPC: 3.961 cumulative IPC: 3.968 (Simulation time: 00 hr 03 min 33 sec)
Heartbeat CPU 0 instructions: 70000004 cycles: 17646373 heartbeat IPC: 3.961 cumulative IPC: 3.967 (Simulation time: 00 hr 04 min 08 sec)
Heartbeat CPU 0 instructions: 80000003 cycles: 20171192 heartbeat IPC: 3.961 cumulative IPC: 3.966 (Simulation time: 00 hr 04 min 43 sec)
Heartbeat CPU 0 instructions: 90000001 cycles: 22695369 heartbeat IPC: 3.962 cumulative IPC: 3.966 (Simulation time: 00 hr 05 min 19 sec)
Heartbeat CPU 0 instructions: 100000003 cycles: 25221257 heartbeat IPC: 3.959 cumulative IPC: 3.965 (Simulation time: 00 hr 05 min 54 sec)
Heartbeat CPU 0 instructions: 110000002 cycles: 27745127 heartbeat IPC: 3.962 cumulative IPC: 3.965 (Simulation time: 00 hr 06 min 29 sec)
Heartbeat CPU 0 instructions: 120000002 cycles: 30269376 heartbeat IPC: 3.962 cumulative IPC: 3.964 (Simulation time: 00 hr 07 min 04 sec)
Heartbeat CPU 0 instructions: 130000002 cycles: 32791162 heartbeat IPC: 3.965 cumulative IPC: 3.964 (Simulation time: 00 hr 07 min 40 sec)
Heartbeat CPU 0 instructions: 140000002 cycles: 35311235 heartbeat IPC: 3.968 cumulative IPC: 3.965 (Simulation time: 00 hr 08 min 15 sec)
Heartbeat CPU 0 instructions: 150000002 cycles: 37832771 heartbeat IPC: 3.966 cumulative IPC: 3.965 (Simulation time: 00 hr 08 min 51 sec)
Heartbeat CPU 0 instructions: 160000003 cycles: 40355169 heartbeat IPC: 3.964 cumulative IPC: 3.965 (Simulation time: 00 hr 09 min 27 sec)
Heartbeat CPU 0 instructions: 170000000 cycles: 42875252 heartbeat IPC: 3.968 cumulative IPC: 3.965 (Simulation time: 00 hr 10 min 02 sec)
Heartbeat CPU 0 instructions: 180000001 cycles: 45395654 heartbeat IPC: 3.968 cumulative IPC: 3.965 (Simulation time: 00 hr 10 min 38 sec)
Heartbeat CPU 0 instructions: 190000003 cycles: 47917507 heartbeat IPC: 3.965 cumulative IPC: 3.965 (Simulation time: 00 hr 11 min 13 sec)
Heartbeat CPU 0 instructions: 200000001 cycles: 50443236 heartbeat IPC: 3.959 cumulative IPC: 3.965 (Simulation time: 00 hr 11 min 48 sec)
Warmup finished CPU 0 instructions: 200000001 cycles: 50443237 cumulative IPC: 3.965 (Simulation time: 00 hr 11 min 48 sec)
Warmup complete CPU 0 instructions: 200000001 cycles: 50443237 cumulative IPC: 3.965 (Simulation time: 00 hr 11 min 48 sec)
Heartbeat CPU 0 instructions: 210000001 cycles: 54809781 heartbeat IPC: 2.29 cumulative IPC: 2.29 (Simulation time: 00 hr 12 min 39 sec)
Heartbeat CPU 0 instructions: 220000002 cycles: 59194645 heartbeat IPC: 2.281 cumulative IPC: 2.285 (Simulation time: 00 hr 13 min 30 sec)
Heartbeat CPU 0 instructions: 230000000 cycles: 63533471 heartbeat IPC: 2.305 cumulative IPC: 2.292 (Simulation time: 00 hr 14 min 21 sec)
Heartbeat CPU 0 instructions: 240000001 cycles: 67925950 heartbeat IPC: 2.277 cumulative IPC: 2.288 (Simulation time: 00 hr 15 min 11 sec)
Heartbeat CPU 0 instructions: 250000001 cycles: 72262903 heartbeat IPC: 2.306 cumulative IPC: 2.292 (Simulation time: 00 hr 16 min 01 sec)
Heartbeat CPU 0 instructions: 260000000 cycles: 76615765 heartbeat IPC: 2.297 cumulative IPC: 2.292 (Simulation time: 00 hr 16 min 52 sec)
Heartbeat CPU 0 instructions: 270000003 cycles: 80984870 heartbeat IPC: 2.289 cumulative IPC: 2.292 (Simulation time: 00 hr 17 min 42 sec)
Heartbeat CPU 0 instructions: 280000003 cycles: 85306733 heartbeat IPC: 2.314 cumulative IPC: 2.295 (Simulation time: 00 hr 18 min 32 sec)
Heartbeat CPU 0 instructions: 290000001 cycles: 89645349 heartbeat IPC: 2.305 cumulative IPC: 2.296 (Simulation time: 00 hr 19 min 22 sec)
Heartbeat CPU 0 instructions: 300000002 cycles: 93975495 heartbeat IPC: 2.309 cumulative IPC: 2.297 (Simulation time: 00 hr 20 min 12 sec)
Heartbeat CPU 0 instructions: 310000002 cycles: 98288032 heartbeat IPC: 2.319 cumulative IPC: 2.299 (Simulation time: 00 hr 21 min 02 sec)
Heartbeat CPU 0 instructions: 320000002 cycles: 102654843 heartbeat IPC: 2.29 cumulative IPC: 2.298 (Simulation time: 00 hr 21 min 53 sec)
Heartbeat CPU 0 instructions: 330000004 cycles: 107041664 heartbeat IPC: 2.28 cumulative IPC: 2.297 (Simulation time: 00 hr 22 min 43 sec)
Heartbeat CPU 0 instructions: 340000001 cycles: 111403011 heartbeat IPC: 2.293 cumulative IPC: 2.297 (Simulation time: 00 hr 23 min 34 sec)
Heartbeat CPU 0 instructions: 350000001 cycles: 115779211 heartbeat IPC: 2.285 cumulative IPC: 2.296 (Simulation time: 00 hr 24 min 24 sec)
Heartbeat CPU 0 instructions: 360000004 cycles: 120181683 heartbeat IPC: 2.271 cumulative IPC: 2.294 (Simulation time: 00 hr 25 min 15 sec)
Heartbeat CPU 0 instructions: 370000000 cycles: 124535469 heartbeat IPC: 2.297 cumulative IPC: 2.294 (Simulation time: 00 hr 26 min 06 sec)
Heartbeat CPU 0 instructions: 380000000 cycles: 128933561 heartbeat IPC: 2.274 cumulative IPC: 2.293 (Simulation time: 00 hr 26 min 56 sec)
Heartbeat CPU 0 instructions: 390000000 cycles: 133303594 heartbeat IPC: 2.288 cumulative IPC: 2.293 (Simulation time: 00 hr 27 min 47 sec)
Heartbeat CPU 0 instructions: 400000000 cycles: 137721098 heartbeat IPC: 2.264 cumulative IPC: 2.292 (Simulation time: 00 hr 28 min 37 sec)
Heartbeat CPU 0 instructions: 410000000 cycles: 142105488 heartbeat IPC: 2.281 cumulative IPC: 2.291 (Simulation time: 00 hr 29 min 28 sec)
Heartbeat CPU 0 instructions: 420000004 cycles: 146517982 heartbeat IPC: 2.266 cumulative IPC: 2.29 (Simulation time: 00 hr 30 min 18 sec)
Heartbeat CPU 0 instructions: 430000004 cycles: 150927615 heartbeat IPC: 2.268 cumulative IPC: 2.289 (Simulation time: 00 hr 31 min 09 sec)
Heartbeat CPU 0 instructions: 440000003 cycles: 155344277 heartbeat IPC: 2.264 cumulative IPC: 2.288 (Simulation time: 00 hr 32 min 00 sec)
Heartbeat CPU 0 instructions: 450000000 cycles: 159691492 heartbeat IPC: 2.3 cumulative IPC: 2.288 (Simulation time: 00 hr 32 min 50 sec)
Heartbeat CPU 0 instructions: 460000003 cycles: 164072239 heartbeat IPC: 2.283 cumulative IPC: 2.288 (Simulation time: 00 hr 33 min 40 sec)
Heartbeat CPU 0 instructions: 470000002 cycles: 168389392 heartbeat IPC: 2.316 cumulative IPC: 2.289 (Simulation time: 00 hr 34 min 30 sec)
Heartbeat CPU 0 instructions: 480000000 cycles: 172715618 heartbeat IPC: 2.311 cumulative IPC: 2.29 (Simulation time: 00 hr 35 min 20 sec)
Heartbeat CPU 0 instructions: 490000002 cycles: 176998864 heartbeat IPC: 2.335 cumulative IPC: 2.291 (Simulation time: 00 hr 36 min 09 sec)
Heartbeat CPU 0 instructions: 500000000 cycles: 181299472 heartbeat IPC: 2.325 cumulative IPC: 2.293 (Simulation time: 00 hr 36 min 59 sec)
Heartbeat CPU 0 instructions: 510000004 cycles: 185587282 heartbeat IPC: 2.332 cumulative IPC: 2.294 (Simulation time: 00 hr 37 min 49 sec)
Heartbeat CPU 0 instructions: 520000000 cycles: 189875160 heartbeat IPC: 2.332 cumulative IPC: 2.295 (Simulation time: 00 hr 38 min 38 sec)
Heartbeat CPU 0 instructions: 530000002 cycles: 195294533 heartbeat IPC: 1.845 cumulative IPC: 2.278 (Simulation time: 00 hr 39 min 43 sec)
Heartbeat CPU 0 instructions: 540000003 cycles: 200407033 heartbeat IPC: 1.956 cumulative IPC: 2.267 (Simulation time: 00 hr 40 min 43 sec)
Heartbeat CPU 0 instructions: 550000002 cycles: 204712214 heartbeat IPC: 2.323 cumulative IPC: 2.269 (Simulation time: 00 hr 41 min 34 sec)
Heartbeat CPU 0 instructions: 560000002 cycles: 209035597 heartbeat IPC: 2.313 cumulative IPC: 2.27 (Simulation time: 00 hr 42 min 25 sec)
Heartbeat CPU 0 instructions: 570000001 cycles: 213352603 heartbeat IPC: 2.316 cumulative IPC: 2.271 (Simulation time: 00 hr 43 min 14 sec)
Heartbeat CPU 0 instructions: 580000002 cycles: 217610296 heartbeat IPC: 2.349 cumulative IPC: 2.273 (Simulation time: 00 hr 44 min 04 sec)
Heartbeat CPU 0 instructions: 590000002 cycles: 221868688 heartbeat IPC: 2.348 cumulative IPC: 2.275 (Simulation time: 00 hr 44 min 54 sec)
Heartbeat CPU 0 instructions: 600000000 cycles: 226113093 heartbeat IPC: 2.356 cumulative IPC: 2.277 (Simulation time: 00 hr 45 min 43 sec)
Heartbeat CPU 0 instructions: 610000000 cycles: 230386757 heartbeat IPC: 2.34 cumulative IPC: 2.278 (Simulation time: 00 hr 46 min 33 sec)
Heartbeat CPU 0 instructions: 620000001 cycles: 234709768 heartbeat IPC: 2.313 cumulative IPC: 2.279 (Simulation time: 00 hr 47 min 23 sec)
Heartbeat CPU 0 instructions: 630000001 cycles: 239029607 heartbeat IPC: 2.315 cumulative IPC: 2.28 (Simulation time: 00 hr 48 min 13 sec)
Heartbeat CPU 0 instructions: 640000001 cycles: 243343636 heartbeat IPC: 2.318 cumulative IPC: 2.281 (Simulation time: 00 hr 49 min 02 sec)
Heartbeat CPU 0 instructions: 650000000 cycles: 247657165 heartbeat IPC: 2.318 cumulative IPC: 2.282 (Simulation time: 00 hr 49 min 52 sec)
Heartbeat CPU 0 instructions: 660000002 cycles: 251999866 heartbeat IPC: 2.303 cumulative IPC: 2.282 (Simulation time: 00 hr 50 min 42 sec)
Heartbeat CPU 0 instructions: 670000001 cycles: 256368184 heartbeat IPC: 2.289 cumulative IPC: 2.282 (Simulation time: 00 hr 51 min 33 sec)
Heartbeat CPU 0 instructions: 680000002 cycles: 260761505 heartbeat IPC: 2.276 cumulative IPC: 2.282 (Simulation time: 00 hr 52 min 24 sec)
Heartbeat CPU 0 instructions: 690000001 cycles: 265122013 heartbeat IPC: 2.293 cumulative IPC: 2.282 (Simulation time: 00 hr 53 min 14 sec)
Heartbeat CPU 0 instructions: 700000000 cycles: 269483227 heartbeat IPC: 2.293 cumulative IPC: 2.283 (Simulation time: 00 hr 54 min 04 sec)
Heartbeat CPU 0 instructions: 710000002 cycles: 273851436 heartbeat IPC: 2.289 cumulative IPC: 2.283 (Simulation time: 00 hr 54 min 55 sec)
Heartbeat CPU 0 instructions: 720000004 cycles: 278257986 heartbeat IPC: 2.269 cumulative IPC: 2.283 (Simulation time: 00 hr 55 min 46 sec)
Heartbeat CPU 0 instructions: 730000002 cycles: 282640536 heartbeat IPC: 2.282 cumulative IPC: 2.283 (Simulation time: 00 hr 56 min 36 sec)
Heartbeat CPU 0 instructions: 740000004 cycles: 287012383 heartbeat IPC: 2.287 cumulative IPC: 2.283 (Simulation time: 00 hr 57 min 27 sec)
Heartbeat CPU 0 instructions: 750000001 cycles: 291433442 heartbeat IPC: 2.262 cumulative IPC: 2.282 (Simulation time: 00 hr 58 min 18 sec)
Heartbeat CPU 0 instructions: 760000000 cycles: 295812850 heartbeat IPC: 2.283 cumulative IPC: 2.282 (Simulation time: 00 hr 59 min 08 sec)
Heartbeat CPU 0 instructions: 770000002 cycles: 300153993 heartbeat IPC: 2.304 cumulative IPC: 2.283 (Simulation time: 00 hr 59 min 59 sec)
Heartbeat CPU 0 instructions: 780000002 cycles: 304493648 heartbeat IPC: 2.304 cumulative IPC: 2.283 (Simulation time: 01 hr 00 min 49 sec)
Heartbeat CPU 0 instructions: 790000002 cycles: 308814549 heartbeat IPC: 2.314 cumulative IPC: 2.284 (Simulation time: 01 hr 01 min 39 sec)
Heartbeat CPU 0 instructions: 800000001 cycles: 313145700 heartbeat IPC: 2.309 cumulative IPC: 2.284 (Simulation time: 01 hr 02 min 30 sec)
Heartbeat CPU 0 instructions: 810000000 cycles: 317486242 heartbeat IPC: 2.304 cumulative IPC: 2.284 (Simulation time: 01 hr 03 min 20 sec)
Heartbeat CPU 0 instructions: 820000000 cycles: 321801895 heartbeat IPC: 2.317 cumulative IPC: 2.285 (Simulation time: 01 hr 04 min 10 sec)
Heartbeat CPU 0 instructions: 830000004 cycles: 326135125 heartbeat IPC: 2.308 cumulative IPC: 2.285 (Simulation time: 01 hr 05 min 00 sec)
Heartbeat CPU 0 instructions: 840000003 cycles: 330483979 heartbeat IPC: 2.299 cumulative IPC: 2.285 (Simulation time: 01 hr 05 min 51 sec)
Heartbeat CPU 0 instructions: 850000001 cycles: 334783072 heartbeat IPC: 2.326 cumulative IPC: 2.286 (Simulation time: 01 hr 06 min 41 sec)
Heartbeat CPU 0 instructions: 860000003 cycles: 339123856 heartbeat IPC: 2.304 cumulative IPC: 2.286 (Simulation time: 01 hr 07 min 31 sec)
Heartbeat CPU 0 instructions: 870000003 cycles: 343466481 heartbeat IPC: 2.303 cumulative IPC: 2.287 (Simulation time: 01 hr 08 min 22 sec)
Heartbeat CPU 0 instructions: 880000000 cycles: 347830992 heartbeat IPC: 2.291 cumulative IPC: 2.287 (Simulation time: 01 hr 09 min 12 sec)
Heartbeat CPU 0 instructions: 890000004 cycles: 352166771 heartbeat IPC: 2.306 cumulative IPC: 2.287 (Simulation time: 01 hr 10 min 02 sec)
Heartbeat CPU 0 instructions: 900000000 cycles: 356514024 heartbeat IPC: 2.3 cumulative IPC: 2.287 (Simulation time: 01 hr 10 min 53 sec)
Heartbeat CPU 0 instructions: 910000003 cycles: 360873787 heartbeat IPC: 2.294 cumulative IPC: 2.287 (Simulation time: 01 hr 11 min 43 sec)
Heartbeat CPU 0 instructions: 920000001 cycles: 365214565 heartbeat IPC: 2.304 cumulative IPC: 2.287 (Simulation time: 01 hr 12 min 34 sec)
Heartbeat CPU 0 instructions: 930000001 cycles: 369564580 heartbeat IPC: 2.299 cumulative IPC: 2.288 (Simulation time: 01 hr 13 min 24 sec)
Heartbeat CPU 0 instructions: 940000000 cycles: 373946464 heartbeat IPC: 2.282 cumulative IPC: 2.287 (Simulation time: 01 hr 14 min 15 sec)
Heartbeat CPU 0 instructions: 950000000 cycles: 378356514 heartbeat IPC: 2.268 cumulative IPC: 2.287 (Simulation time: 01 hr 15 min 06 sec)
Heartbeat CPU 0 instructions: 960000003 cycles: 382776777 heartbeat IPC: 2.262 cumulative IPC: 2.287 (Simulation time: 01 hr 15 min 56 sec)
Heartbeat CPU 0 instructions: 970000001 cycles: 387142152 heartbeat IPC: 2.291 cumulative IPC: 2.287 (Simulation time: 01 hr 16 min 47 sec)
Heartbeat CPU 0 instructions: 980000000 cycles: 391541760 heartbeat IPC: 2.273 cumulative IPC: 2.287 (Simulation time: 01 hr 17 min 38 sec)
Heartbeat CPU 0 instructions: 990000004 cycles: 395917158 heartbeat IPC: 2.286 cumulative IPC: 2.287 (Simulation time: 01 hr 18 min 28 sec)
Heartbeat CPU 0 instructions: 1000000004 cycles: 400324795 heartbeat IPC: 2.269 cumulative IPC: 2.286 (Simulation time: 01 hr 19 min 19 sec)
Heartbeat CPU 0 instructions: 1010000003 cycles: 404707294 heartbeat IPC: 2.282 cumulative IPC: 2.286 (Simulation time: 01 hr 20 min 10 sec)
Heartbeat CPU 0 instructions: 1020000002 cycles: 409041662 heartbeat IPC: 2.307 cumulative IPC: 2.287 (Simulation time: 01 hr 21 min 00 sec)
Heartbeat CPU 0 instructions: 1030000004 cycles: 413364969 heartbeat IPC: 2.313 cumulative IPC: 2.287 (Simulation time: 01 hr 21 min 50 sec)
Heartbeat CPU 0 instructions: 1040000001 cycles: 417648635 heartbeat IPC: 2.334 cumulative IPC: 2.288 (Simulation time: 01 hr 22 min 40 sec)
Heartbeat CPU 0 instructions: 1050000004 cycles: 421908244 heartbeat IPC: 2.348 cumulative IPC: 2.288 (Simulation time: 01 hr 23 min 29 sec)
Heartbeat CPU 0 instructions: 1060000001 cycles: 426221447 heartbeat IPC: 2.318 cumulative IPC: 2.289 (Simulation time: 01 hr 24 min 19 sec)
Heartbeat CPU 0 instructions: 1070000000 cycles: 430491782 heartbeat IPC: 2.342 cumulative IPC: 2.289 (Simulation time: 01 hr 25 min 09 sec)
Heartbeat CPU 0 instructions: 1080000000 cycles: 434767117 heartbeat IPC: 2.339 cumulative IPC: 2.29 (Simulation time: 01 hr 25 min 59 sec)
Heartbeat CPU 0 instructions: 1090000000 cycles: 439044598 heartbeat IPC: 2.338 cumulative IPC: 2.29 (Simulation time: 01 hr 26 min 48 sec)
Heartbeat CPU 0 instructions: 1100000000 cycles: 443308890 heartbeat IPC: 2.345 cumulative IPC: 2.291 (Simulation time: 01 hr 27 min 38 sec)
Heartbeat CPU 0 instructions: 1110000001 cycles: 447618895 heartbeat IPC: 2.32 cumulative IPC: 2.291 (Simulation time: 01 hr 28 min 28 sec)
Heartbeat CPU 0 instructions: 1120000004 cycles: 451904053 heartbeat IPC: 2.334 cumulative IPC: 2.292 (Simulation time: 01 hr 29 min 18 sec)
Heartbeat CPU 0 instructions: 1130000000 cycles: 456231508 heartbeat IPC: 2.311 cumulative IPC: 2.292 (Simulation time: 01 hr 30 min 08 sec)
Heartbeat CPU 0 instructions: 1140000002 cycles: 460500702 heartbeat IPC: 2.342 cumulative IPC: 2.292 (Simulation time: 01 hr 30 min 57 sec)
Heartbeat CPU 0 instructions: 1150000000 cycles: 464736208 heartbeat IPC: 2.361 cumulative IPC: 2.293 (Simulation time: 01 hr 31 min 47 sec)
Heartbeat CPU 0 instructions: 1160000001 cycles: 470918458 heartbeat IPC: 1.618 cumulative IPC: 2.283 (Simulation time: 01 hr 33 min 02 sec)
Heartbeat CPU 0 instructions: 1170000001 cycles: 475238343 heartbeat IPC: 2.315 cumulative IPC: 2.283 (Simulation time: 01 hr 33 min 52 sec)
Heartbeat CPU 0 instructions: 1180000001 cycles: 479525226 heartbeat IPC: 2.333 cumulative IPC: 2.284 (Simulation time: 01 hr 34 min 42 sec)
Heartbeat CPU 0 instructions: 1190000001 cycles: 483825881 heartbeat IPC: 2.325 cumulative IPC: 2.284 (Simulation time: 01 hr 35 min 32 sec)
Heartbeat CPU 0 instructions: 1200000001 cycles: 488086029 heartbeat IPC: 2.347 cumulative IPC: 2.285 (Simulation time: 01 hr 36 min 22 sec)
Simulation finished CPU 0 instructions: 1000000000 cycles: 437642793 cumulative IPC: 2.285 (Simulation time: 01 hr 36 min 22 sec)
Simulation complete CPU 0 instructions: 1000000000 cycles: 437642793 cumulative IPC: 2.285 (Simulation time: 01 hr 36 min 22 sec)

ChampSim completed all CPUs

=== Simulation ===
CPU 0 runs /home/faculty/p/pgratz/dpc3_traces/603.bwaves_s-3699B.champsimtrace.xz
Region of Interest Statistics

CPU 0 cumulative IPC: 2.285 instructions: 1000000000 cycles: 437642793
CPU 0 Branch Prediction Accuracy: 90.06% MPKI: 14.43 Average ROB Occupancy at Mispredict: 29.2
Branch type MPKI
BRANCH_DIRECT_JUMP: 0.0568
BRANCH_INDIRECT: 0
BRANCH_CONDITIONAL: 14.3
BRANCH_DIRECT_CALL: 0
BRANCH_INDIRECT_CALL: 0
BRANCH_RETURN: 0.0618

LLC TOTAL        ACCESS:     368636 HIT:     167486 MISS:     201150
LLC LOAD         ACCESS:      33568 HIT:         27 MISS:      33541
LLC RFO          ACCESS:     167408 HIT:          0 MISS:     167408
LLC PREFETCH     ACCESS:          0 HIT:          0 MISS:          0
LLC WRITE        ACCESS:     167636 HIT:     167456 MISS:        180
LLC TRANSLATION  ACCESS:         24 HIT:          3 MISS:         21
LLC PREFETCH REQUESTED:          0 ISSUED:          0 USEFUL:          0 USELESS:          0
LLC AVERAGE MISS LATENCY: 302.2 cycles
cpu0_DTLB TOTAL        ACCESS:  131520858 HIT:  131494442 MISS:      26416
cpu0_DTLB LOAD         ACCESS:  131520858 HIT:  131494442 MISS:      26416
cpu0_DTLB RFO          ACCESS:          0 HIT:          0 MISS:          0
cpu0_DTLB PREFETCH     ACCESS:          0 HIT:          0 MISS:          0
cpu0_DTLB WRITE        ACCESS:          0 HIT:          0 MISS:          0
cpu0_DTLB TRANSLATION  ACCESS:          0 HIT:          0 MISS:          0
cpu0_DTLB PREFETCH REQUESTED:          0 ISSUED:          0 USEFUL:          0 USELESS:          0
cpu0_DTLB AVERAGE MISS LATENCY: 20.44 cycles
cpu0_ITLB TOTAL        ACCESS:    3289078 HIT:    3289078 MISS:          0
cpu0_ITLB LOAD         ACCESS:    3289078 HIT:    3289078 MISS:          0
cpu0_ITLB RFO          ACCESS:          0 HIT:          0 MISS:          0
cpu0_ITLB PREFETCH     ACCESS:          0 HIT:          0 MISS:          0
cpu0_ITLB WRITE        ACCESS:          0 HIT:          0 MISS:          0
cpu0_ITLB TRANSLATION  ACCESS:          0 HIT:          0 MISS:          0
cpu0_ITLB PREFETCH REQUESTED:          0 ISSUED:          0 USEFUL:          0 USELESS:          0
cpu0_ITLB AVERAGE MISS LATENCY: -nan cycles
cpu0_L1D TOTAL        ACCESS:  190649065 HIT:  189425669 MISS:    1223396
cpu0_L1D LOAD         ACCESS:  151943066 HIT:  151899982 MISS:      43084
cpu0_L1D RFO          ACCESS:          0 HIT:          0 MISS:          0
cpu0_L1D PREFETCH     ACCESS:          0 HIT:          0 MISS:          0
cpu0_L1D WRITE        ACCESS:   38702847 HIT:   37522866 MISS:    1179981
cpu0_L1D TRANSLATION  ACCESS:       3152 HIT:       2821 MISS:        331
cpu0_L1D PREFETCH REQUESTED:          0 ISSUED:          0 USEFUL:          0 USELESS:          0
cpu0_L1D AVERAGE MISS LATENCY: 52.38 cycles
cpu0_L1I TOTAL        ACCESS:    3775229 HIT:    3775229 MISS:          0
cpu0_L1I LOAD         ACCESS:    3775229 HIT:    3775229 MISS:          0
cpu0_L1I RFO          ACCESS:          0 HIT:          0 MISS:          0
cpu0_L1I PREFETCH     ACCESS:          0 HIT:          0 MISS:          0
cpu0_L1I WRITE        ACCESS:          0 HIT:          0 MISS:          0
cpu0_L1I TRANSLATION  ACCESS:          0 HIT:          0 MISS:          0
cpu0_L1I PREFETCH REQUESTED:          0 ISSUED:          0 USEFUL:          0 USELESS:          0
cpu0_L1I AVERAGE MISS LATENCY: -nan cycles
cpu0_L2C TOTAL        ACCESS:     373677 HIT:     172455 MISS:     201222
cpu0_L2C LOAD         ACCESS:      35753 HIT:       2185 MISS:      33568
cpu0_L2C RFO          ACCESS:     168645 HIT:       1237 MISS:     167408
cpu0_L2C PREFETCH     ACCESS:          0 HIT:          0 MISS:          0
cpu0_L2C WRITE        ACCESS:     168948 HIT:     168726 MISS:        222
cpu0_L2C TRANSLATION  ACCESS:        331 HIT:        307 MISS:         24
cpu0_L2C PREFETCH REQUESTED:          0 ISSUED:          0 USEFUL:          0 USELESS:          0
cpu0_L2C AVERAGE MISS LATENCY: 323.1 cycles
cpu0_STLB TOTAL        ACCESS:       3289 HIT:        142 MISS:       3147
cpu0_STLB LOAD         ACCESS:       3289 HIT:        142 MISS:       3147
cpu0_STLB RFO          ACCESS:          0 HIT:          0 MISS:          0
cpu0_STLB PREFETCH     ACCESS:          0 HIT:          0 MISS:          0
cpu0_STLB WRITE        ACCESS:          0 HIT:          0 MISS:          0
cpu0_STLB TRANSLATION  ACCESS:          0 HIT:          0 MISS:          0
cpu0_STLB PREFETCH REQUESTED:          0 ISSUED:          0 USEFUL:          0 USELESS:          0
cpu0_STLB AVERAGE MISS LATENCY: 196.5 cycles

DRAM Statistics

Channel 0 RQ ROW_BUFFER_HIT:      61206
  ROW_BUFFER_MISS:     139764
 AVG DBUS CONGESTED CYCLE: 3.952
WQ ROW_BUFFER_HIT: Channel 0 
  ROW_BUFFER_MISS:      38905
  FULL:     128790
