WARNING: physical memory size is smaller than virtual memory size.
WARNING: option --warmup_instructions is deprecated. Use --warmup-instructions instead.
WARNING: option --simulation_instructions is deprecated. Use --simulation-instructions instead.

*** ChampSim Multicore Out-of-Order Simulator ***
Warmup Instructions: 200000000
Simulation Instructions: 1000000000
Number of CPUs: 1
Page size: 4096

Off-chip DRAM Size: 4 GiB Channels: 1 Width: 64-bit Data Race: 3200 MT/s
Heartbeat CPU 0 instructions: 10000003 cycles: 2728741 heartbeat IPC: 3.665 cumulative IPC: 3.665 (Simulation time: 00 hr 00 min 46 sec)
Heartbeat CPU 0 instructions: 20000003 cycles: 5467438 heartbeat IPC: 3.651 cumulative IPC: 3.658 (Simulation time: 00 hr 01 min 32 sec)
Heartbeat CPU 0 instructions: 30000003 cycles: 8200572 heartbeat IPC: 3.659 cumulative IPC: 3.658 (Simulation time: 00 hr 02 min 18 sec)
Heartbeat CPU 0 instructions: 40000004 cycles: 10929649 heartbeat IPC: 3.664 cumulative IPC: 3.66 (Simulation time: 00 hr 03 min 05 sec)
Heartbeat CPU 0 instructions: 50000000 cycles: 13652132 heartbeat IPC: 3.673 cumulative IPC: 3.662 (Simulation time: 00 hr 03 min 51 sec)
Heartbeat CPU 0 instructions: 60000002 cycles: 16385970 heartbeat IPC: 3.658 cumulative IPC: 3.662 (Simulation time: 00 hr 04 min 38 sec)
Heartbeat CPU 0 instructions: 70000001 cycles: 19117804 heartbeat IPC: 3.661 cumulative IPC: 3.662 (Simulation time: 00 hr 05 min 24 sec)
Heartbeat CPU 0 instructions: 80000001 cycles: 21848058 heartbeat IPC: 3.663 cumulative IPC: 3.662 (Simulation time: 00 hr 06 min 11 sec)
Heartbeat CPU 0 instructions: 90000001 cycles: 24575676 heartbeat IPC: 3.666 cumulative IPC: 3.662 (Simulation time: 00 hr 06 min 57 sec)
Heartbeat CPU 0 instructions: 100000004 cycles: 27298835 heartbeat IPC: 3.672 cumulative IPC: 3.663 (Simulation time: 00 hr 07 min 43 sec)
Heartbeat CPU 0 instructions: 110000002 cycles: 30022440 heartbeat IPC: 3.672 cumulative IPC: 3.664 (Simulation time: 00 hr 08 min 29 sec)
Heartbeat CPU 0 instructions: 120000000 cycles: 32743029 heartbeat IPC: 3.676 cumulative IPC: 3.665 (Simulation time: 00 hr 09 min 15 sec)
Heartbeat CPU 0 instructions: 130000002 cycles: 35462569 heartbeat IPC: 3.677 cumulative IPC: 3.666 (Simulation time: 00 hr 10 min 00 sec)
Heartbeat CPU 0 instructions: 140000004 cycles: 38183042 heartbeat IPC: 3.676 cumulative IPC: 3.667 (Simulation time: 00 hr 10 min 46 sec)
Heartbeat CPU 0 instructions: 150000001 cycles: 40903547 heartbeat IPC: 3.676 cumulative IPC: 3.667 (Simulation time: 00 hr 11 min 32 sec)
Heartbeat CPU 0 instructions: 160000001 cycles: 43617264 heartbeat IPC: 3.685 cumulative IPC: 3.668 (Simulation time: 00 hr 12 min 17 sec)
Heartbeat CPU 0 instructions: 170000000 cycles: 46340178 heartbeat IPC: 3.673 cumulative IPC: 3.669 (Simulation time: 00 hr 13 min 03 sec)
Heartbeat CPU 0 instructions: 180000000 cycles: 49051933 heartbeat IPC: 3.688 cumulative IPC: 3.67 (Simulation time: 00 hr 13 min 48 sec)
Heartbeat CPU 0 instructions: 190000002 cycles: 51775795 heartbeat IPC: 3.671 cumulative IPC: 3.67 (Simulation time: 00 hr 14 min 34 sec)
Heartbeat CPU 0 instructions: 200000003 cycles: 54500598 heartbeat IPC: 3.67 cumulative IPC: 3.67 (Simulation time: 00 hr 15 min 20 sec)
Warmup finished CPU 0 instructions: 200000003 cycles: 54500599 cumulative IPC: 3.67 (Simulation time: 00 hr 15 min 20 sec)
Warmup complete CPU 0 instructions: 200000003 cycles: 54500599 cumulative IPC: 3.67 (Simulation time: 00 hr 15 min 20 sec)
Heartbeat CPU 0 instructions: 210000000 cycles: 72299174 heartbeat IPC: 0.5618 cumulative IPC: 0.5618 (Simulation time: 00 hr 17 min 28 sec)
Heartbeat CPU 0 instructions: 220000004 cycles: 89529710 heartbeat IPC: 0.5804 cumulative IPC: 0.571 (Simulation time: 00 hr 19 min 32 sec)
Heartbeat CPU 0 instructions: 230000000 cycles: 107975158 heartbeat IPC: 0.5421 cumulative IPC: 0.561 (Simulation time: 00 hr 21 min 43 sec)
Heartbeat CPU 0 instructions: 240000004 cycles: 124458041 heartbeat IPC: 0.6067 cumulative IPC: 0.5718 (Simulation time: 00 hr 23 min 43 sec)
Heartbeat CPU 0 instructions: 250000000 cycles: 141410813 heartbeat IPC: 0.5899 cumulative IPC: 0.5753 (Simulation time: 00 hr 25 min 46 sec)
Heartbeat CPU 0 instructions: 260000002 cycles: 158402858 heartbeat IPC: 0.5885 cumulative IPC: 0.5775 (Simulation time: 00 hr 27 min 50 sec)
Heartbeat CPU 0 instructions: 270000000 cycles: 175412955 heartbeat IPC: 0.5879 cumulative IPC: 0.5789 (Simulation time: 00 hr 29 min 53 sec)
Heartbeat CPU 0 instructions: 280000000 cycles: 192355433 heartbeat IPC: 0.5902 cumulative IPC: 0.5803 (Simulation time: 00 hr 31 min 56 sec)
Heartbeat CPU 0 instructions: 290000004 cycles: 208707485 heartbeat IPC: 0.6115 cumulative IPC: 0.5836 (Simulation time: 00 hr 33 min 56 sec)
Heartbeat CPU 0 instructions: 300000000 cycles: 225347824 heartbeat IPC: 0.6009 cumulative IPC: 0.5853 (Simulation time: 00 hr 35 min 59 sec)
Heartbeat CPU 0 instructions: 310000001 cycles: 240401387 heartbeat IPC: 0.6643 cumulative IPC: 0.5917 (Simulation time: 00 hr 37 min 53 sec)
Heartbeat CPU 0 instructions: 320000004 cycles: 256611365 heartbeat IPC: 0.6169 cumulative IPC: 0.5937 (Simulation time: 00 hr 39 min 54 sec)
Heartbeat CPU 0 instructions: 330000001 cycles: 272413590 heartbeat IPC: 0.6328 cumulative IPC: 0.5966 (Simulation time: 00 hr 41 min 52 sec)
Heartbeat CPU 0 instructions: 340000001 cycles: 288184195 heartbeat IPC: 0.6341 cumulative IPC: 0.5991 (Simulation time: 00 hr 43 min 51 sec)
Heartbeat CPU 0 instructions: 350000002 cycles: 304025984 heartbeat IPC: 0.6312 cumulative IPC: 0.6011 (Simulation time: 00 hr 45 min 49 sec)
Heartbeat CPU 0 instructions: 360000003 cycles: 319583408 heartbeat IPC: 0.6428 cumulative IPC: 0.6036 (Simulation time: 00 hr 47 min 45 sec)
Heartbeat CPU 0 instructions: 370000002 cycles: 335054937 heartbeat IPC: 0.6463 cumulative IPC: 0.6059 (Simulation time: 00 hr 49 min 42 sec)
Heartbeat CPU 0 instructions: 380000001 cycles: 350849581 heartbeat IPC: 0.6331 cumulative IPC: 0.6074 (Simulation time: 00 hr 51 min 40 sec)
Heartbeat CPU 0 instructions: 390000002 cycles: 366584094 heartbeat IPC: 0.6355 cumulative IPC: 0.6088 (Simulation time: 00 hr 53 min 38 sec)
Heartbeat CPU 0 instructions: 400000002 cycles: 382348159 heartbeat IPC: 0.6344 cumulative IPC: 0.61 (Simulation time: 00 hr 55 min 35 sec)
Heartbeat CPU 0 instructions: 410000001 cycles: 398170927 heartbeat IPC: 0.632 cumulative IPC: 0.6111 (Simulation time: 00 hr 57 min 33 sec)
Heartbeat CPU 0 instructions: 420000002 cycles: 413989533 heartbeat IPC: 0.6322 cumulative IPC: 0.612 (Simulation time: 00 hr 59 min 31 sec)
Heartbeat CPU 0 instructions: 430000000 cycles: 429795616 heartbeat IPC: 0.6327 cumulative IPC: 0.6129 (Simulation time: 01 hr 01 min 29 sec)
Heartbeat CPU 0 instructions: 440000001 cycles: 445597407 heartbeat IPC: 0.6328 cumulative IPC: 0.6137 (Simulation time: 01 hr 03 min 27 sec)
Heartbeat CPU 0 instructions: 450000000 cycles: 461891897 heartbeat IPC: 0.6137 cumulative IPC: 0.6137 (Simulation time: 01 hr 05 min 28 sec)
Heartbeat CPU 0 instructions: 460000001 cycles: 478343932 heartbeat IPC: 0.6078 cumulative IPC: 0.6134 (Simulation time: 01 hr 07 min 28 sec)
Heartbeat CPU 0 instructions: 470000002 cycles: 495843517 heartbeat IPC: 0.5714 cumulative IPC: 0.6118 (Simulation time: 01 hr 09 min 35 sec)
Heartbeat CPU 0 instructions: 480000004 cycles: 512772669 heartbeat IPC: 0.5907 cumulative IPC: 0.611 (Simulation time: 01 hr 11 min 39 sec)
Heartbeat CPU 0 instructions: 490000003 cycles: 529732524 heartbeat IPC: 0.5896 cumulative IPC: 0.6102 (Simulation time: 01 hr 13 min 41 sec)
Heartbeat CPU 0 instructions: 500000000 cycles: 547322694 heartbeat IPC: 0.5685 cumulative IPC: 0.6087 (Simulation time: 01 hr 15 min 47 sec)
Heartbeat CPU 0 instructions: 510000001 cycles: 564198887 heartbeat IPC: 0.5926 cumulative IPC: 0.6082 (Simulation time: 01 hr 17 min 50 sec)
Heartbeat CPU 0 instructions: 520000000 cycles: 581110787 heartbeat IPC: 0.5913 cumulative IPC: 0.6077 (Simulation time: 01 hr 19 min 52 sec)
Heartbeat CPU 0 instructions: 530000004 cycles: 598657824 heartbeat IPC: 0.5699 cumulative IPC: 0.6064 (Simulation time: 01 hr 21 min 58 sec)
Heartbeat CPU 0 instructions: 540000002 cycles: 615782452 heartbeat IPC: 0.584 cumulative IPC: 0.6058 (Simulation time: 01 hr 24 min 01 sec)
Heartbeat CPU 0 instructions: 550000003 cycles: 633517412 heartbeat IPC: 0.5639 cumulative IPC: 0.6045 (Simulation time: 01 hr 26 min 08 sec)
Heartbeat CPU 0 instructions: 560000002 cycles: 651219044 heartbeat IPC: 0.5649 cumulative IPC: 0.6033 (Simulation time: 01 hr 28 min 14 sec)
Heartbeat CPU 0 instructions: 570000001 cycles: 674178562 heartbeat IPC: 0.4355 cumulative IPC: 0.5971 (Simulation time: 01 hr 30 min 50 sec)
Heartbeat CPU 0 instructions: 580000000 cycles: 694675937 heartbeat IPC: 0.4879 cumulative IPC: 0.5936 (Simulation time: 01 hr 33 min 11 sec)
Heartbeat CPU 0 instructions: 590000001 cycles: 714965078 heartbeat IPC: 0.4929 cumulative IPC: 0.5905 (Simulation time: 01 hr 35 min 31 sec)
Heartbeat CPU 0 instructions: 600000000 cycles: 734707854 heartbeat IPC: 0.5065 cumulative IPC: 0.5881 (Simulation time: 01 hr 37 min 48 sec)
Heartbeat CPU 0 instructions: 610000003 cycles: 755427156 heartbeat IPC: 0.4826 cumulative IPC: 0.5849 (Simulation time: 01 hr 40 min 09 sec)
Heartbeat CPU 0 instructions: 620000001 cycles: 775070634 heartbeat IPC: 0.5091 cumulative IPC: 0.5829 (Simulation time: 01 hr 42 min 25 sec)
Heartbeat CPU 0 instructions: 630000002 cycles: 795348016 heartbeat IPC: 0.4932 cumulative IPC: 0.5804 (Simulation time: 01 hr 44 min 45 sec)
Heartbeat CPU 0 instructions: 640000004 cycles: 815565355 heartbeat IPC: 0.4946 cumulative IPC: 0.5781 (Simulation time: 01 hr 47 min 04 sec)
Heartbeat CPU 0 instructions: 650000002 cycles: 835215094 heartbeat IPC: 0.5089 cumulative IPC: 0.5764 (Simulation time: 01 hr 49 min 20 sec)
Heartbeat CPU 0 instructions: 660000003 cycles: 855342046 heartbeat IPC: 0.4968 cumulative IPC: 0.5744 (Simulation time: 01 hr 51 min 38 sec)
Heartbeat CPU 0 instructions: 670000003 cycles: 875514418 heartbeat IPC: 0.4957 cumulative IPC: 0.5725 (Simulation time: 01 hr 53 min 57 sec)
Heartbeat CPU 0 instructions: 680000004 cycles: 895737304 heartbeat IPC: 0.4945 cumulative IPC: 0.5706 (Simulation time: 01 hr 56 min 16 sec)
Heartbeat CPU 0 instructions: 690000000 cycles: 915288427 heartbeat IPC: 0.5115 cumulative IPC: 0.5692 (Simulation time: 01 hr 58 min 32 sec)
Heartbeat CPU 0 instructions: 700000001 cycles: 935594108 heartbeat IPC: 0.4925 cumulative IPC: 0.5675 (Simulation time: 02 hr 00 min 51 sec)
Heartbeat CPU 0 instructions: 710000001 cycles: 955889088 heartbeat IPC: 0.4927 cumulative IPC: 0.5658 (Simulation time: 02 hr 03 min 10 sec)
Heartbeat CPU 0 instructions: 720000000 cycles: 976472958 heartbeat IPC: 0.4858 cumulative IPC: 0.564 (Simulation time: 02 hr 05 min 31 sec)
Heartbeat CPU 0 instructions: 730000000 cycles: 997294100 heartbeat IPC: 0.4803 cumulative IPC: 0.5622 (Simulation time: 02 hr 07 min 53 sec)
Heartbeat CPU 0 instructions: 740000000 cycles: 1018024580 heartbeat IPC: 0.4824 cumulative IPC: 0.5604 (Simulation time: 02 hr 10 min 15 sec)
Heartbeat CPU 0 instructions: 750000000 cycles: 1038682105 heartbeat IPC: 0.4841 cumulative IPC: 0.5588 (Simulation time: 02 hr 12 min 36 sec)
Heartbeat CPU 0 instructions: 760000001 cycles: 1059814808 heartbeat IPC: 0.4732 cumulative IPC: 0.557 (Simulation time: 02 hr 14 min 59 sec)
Heartbeat CPU 0 instructions: 770000001 cycles: 1081075805 heartbeat IPC: 0.4703 cumulative IPC: 0.5552 (Simulation time: 02 hr 17 min 22 sec)
Heartbeat CPU 0 instructions: 780000001 cycles: 1102255893 heartbeat IPC: 0.4721 cumulative IPC: 0.5536 (Simulation time: 02 hr 19 min 46 sec)
Heartbeat CPU 0 instructions: 790000000 cycles: 1123486041 heartbeat IPC: 0.471 cumulative IPC: 0.5519 (Simulation time: 02 hr 22 min 10 sec)
Heartbeat CPU 0 instructions: 800000002 cycles: 1148923569 heartbeat IPC: 0.3931 cumulative IPC: 0.5482 (Simulation time: 02 hr 24 min 55 sec)
Heartbeat CPU 0 instructions: 810000002 cycles: 1174015355 heartbeat IPC: 0.3985 cumulative IPC: 0.5449 (Simulation time: 02 hr 27 min 38 sec)
Heartbeat CPU 0 instructions: 820000002 cycles: 1199165770 heartbeat IPC: 0.3976 cumulative IPC: 0.5416 (Simulation time: 02 hr 30 min 21 sec)
Heartbeat CPU 0 instructions: 830000004 cycles: 1226450074 heartbeat IPC: 0.3665 cumulative IPC: 0.5376 (Simulation time: 02 hr 33 min 15 sec)
Heartbeat CPU 0 instructions: 840000000 cycles: 1252996302 heartbeat IPC: 0.3767 cumulative IPC: 0.534 (Simulation time: 02 hr 36 min 06 sec)
Heartbeat CPU 0 instructions: 850000000 cycles: 1282382078 heartbeat IPC: 0.3403 cumulative IPC: 0.5294 (Simulation time: 02 hr 39 min 11 sec)
Heartbeat CPU 0 instructions: 860000000 cycles: 1310816373 heartbeat IPC: 0.3517 cumulative IPC: 0.5253 (Simulation time: 02 hr 42 min 11 sec)
Heartbeat CPU 0 instructions: 870000002 cycles: 1339469380 heartbeat IPC: 0.349 cumulative IPC: 0.5214 (Simulation time: 02 hr 45 min 12 sec)
Heartbeat CPU 0 instructions: 880000003 cycles: 1368212285 heartbeat IPC: 0.3479 cumulative IPC: 0.5176 (Simulation time: 02 hr 48 min 14 sec)
Heartbeat CPU 0 instructions: 890000004 cycles: 1397610180 heartbeat IPC: 0.3402 cumulative IPC: 0.5137 (Simulation time: 02 hr 51 min 19 sec)
Heartbeat CPU 0 instructions: 900000000 cycles: 1427085421 heartbeat IPC: 0.3393 cumulative IPC: 0.51 (Simulation time: 02 hr 54 min 24 sec)
Heartbeat CPU 0 instructions: 910000004 cycles: 1456376164 heartbeat IPC: 0.3414 cumulative IPC: 0.5065 (Simulation time: 02 hr 57 min 28 sec)
Heartbeat CPU 0 instructions: 920000001 cycles: 1486388143 heartbeat IPC: 0.3332 cumulative IPC: 0.5028 (Simulation time: 03 hr 00 min 36 sec)
Heartbeat CPU 0 instructions: 930000001 cycles: 1515954340 heartbeat IPC: 0.3382 cumulative IPC: 0.4995 (Simulation time: 03 hr 03 min 43 sec)
Heartbeat CPU 0 instructions: 940000003 cycles: 1545944244 heartbeat IPC: 0.3334 cumulative IPC: 0.4962 (Simulation time: 03 hr 06 min 50 sec)
Heartbeat CPU 0 instructions: 950000002 cycles: 1576129633 heartbeat IPC: 0.3313 cumulative IPC: 0.4929 (Simulation time: 03 hr 09 min 59 sec)
Heartbeat CPU 0 instructions: 960000003 cycles: 1606263413 heartbeat IPC: 0.3319 cumulative IPC: 0.4898 (Simulation time: 03 hr 13 min 08 sec)
Heartbeat CPU 0 instructions: 970000000 cycles: 1636791918 heartbeat IPC: 0.3276 cumulative IPC: 0.4866 (Simulation time: 03 hr 16 min 19 sec)
Heartbeat CPU 0 instructions: 980000000 cycles: 1666390395 heartbeat IPC: 0.3379 cumulative IPC: 0.4839 (Simulation time: 03 hr 19 min 25 sec)
Heartbeat CPU 0 instructions: 990000002 cycles: 1695260474 heartbeat IPC: 0.3464 cumulative IPC: 0.4815 (Simulation time: 03 hr 22 min 27 sec)
Heartbeat CPU 0 instructions: 1000000000 cycles: 1724192482 heartbeat IPC: 0.3456 cumulative IPC: 0.4791 (Simulation time: 03 hr 25 min 30 sec)
Heartbeat CPU 0 instructions: 1010000000 cycles: 1753608878 heartbeat IPC: 0.3399 cumulative IPC: 0.4767 (Simulation time: 03 hr 28 min 35 sec)
Heartbeat CPU 0 instructions: 1020000000 cycles: 1782800061 heartbeat IPC: 0.3426 cumulative IPC: 0.4745 (Simulation time: 03 hr 31 min 38 sec)
Heartbeat CPU 0 instructions: 1030000000 cycles: 1809702963 heartbeat IPC: 0.3717 cumulative IPC: 0.4729 (Simulation time: 03 hr 34 min 31 sec)
Heartbeat CPU 0 instructions: 1040000001 cycles: 1837085894 heartbeat IPC: 0.3652 cumulative IPC: 0.4712 (Simulation time: 03 hr 37 min 25 sec)
Heartbeat CPU 0 instructions: 1050000001 cycles: 1864055834 heartbeat IPC: 0.3708 cumulative IPC: 0.4697 (Simulation time: 03 hr 40 min 18 sec)
Heartbeat CPU 0 instructions: 1060000004 cycles: 1890806488 heartbeat IPC: 0.3738 cumulative IPC: 0.4683 (Simulation time: 03 hr 43 min 09 sec)
Heartbeat CPU 0 instructions: 1070000000 cycles: 1916910850 heartbeat IPC: 0.3831 cumulative IPC: 0.4671 (Simulation time: 03 hr 45 min 57 sec)
Heartbeat CPU 0 instructions: 1080000003 cycles: 1942983250 heartbeat IPC: 0.3835 cumulative IPC: 0.466 (Simulation time: 03 hr 48 min 45 sec)
Heartbeat CPU 0 instructions: 1090000003 cycles: 1969943816 heartbeat IPC: 0.3709 cumulative IPC: 0.4646 (Simulation time: 03 hr 51 min 38 sec)
Heartbeat CPU 0 instructions: 1100000000 cycles: 1996574118 heartbeat IPC: 0.3755 cumulative IPC: 0.4634 (Simulation time: 03 hr 54 min 28 sec)
Heartbeat CPU 0 instructions: 1110000004 cycles: 2023856188 heartbeat IPC: 0.3665 cumulative IPC: 0.4621 (Simulation time: 03 hr 57 min 22 sec)
Heartbeat CPU 0 instructions: 1120000000 cycles: 2051192904 heartbeat IPC: 0.3658 cumulative IPC: 0.4608 (Simulation time: 04 hr 00 min 17 sec)
Heartbeat CPU 0 instructions: 1130000000 cycles: 2077671627 heartbeat IPC: 0.3777 cumulative IPC: 0.4597 (Simulation time: 04 hr 03 min 07 sec)
Heartbeat CPU 0 instructions: 1140000002 cycles: 2103760881 heartbeat IPC: 0.3833 cumulative IPC: 0.4587 (Simulation time: 04 hr 05 min 54 sec)
Heartbeat CPU 0 instructions: 1150000002 cycles: 2131631458 heartbeat IPC: 0.3588 cumulative IPC: 0.4574 (Simulation time: 04 hr 08 min 52 sec)
Heartbeat CPU 0 instructions: 1160000002 cycles: 2158050734 heartbeat IPC: 0.3785 cumulative IPC: 0.4564 (Simulation time: 04 hr 11 min 41 sec)
Heartbeat CPU 0 instructions: 1170000003 cycles: 2185376061 heartbeat IPC: 0.366 cumulative IPC: 0.4552 (Simulation time: 04 hr 14 min 36 sec)
Heartbeat CPU 0 instructions: 1180000001 cycles: 2211919944 heartbeat IPC: 0.3767 cumulative IPC: 0.4542 (Simulation time: 04 hr 17 min 26 sec)
Heartbeat CPU 0 instructions: 1190000001 cycles: 2239995830 heartbeat IPC: 0.3562 cumulative IPC: 0.453 (Simulation time: 04 hr 20 min 24 sec)
Heartbeat CPU 0 instructions: 1200000000 cycles: 2268081721 heartbeat IPC: 0.3561 cumulative IPC: 0.4518 (Simulation time: 04 hr 23 min 22 sec)
Simulation finished CPU 0 instructions: 1000000000 cycles: 2213581124 cumulative IPC: 0.4518 (Simulation time: 04 hr 23 min 22 sec)
Simulation complete CPU 0 instructions: 1000000000 cycles: 2213581124 cumulative IPC: 0.4518 (Simulation time: 04 hr 23 min 22 sec)

ChampSim completed all CPUs

=== Simulation ===
CPU 0 runs /home/faculty/p/pgratz/dpc3_traces/605.mcf_s-665B.champsimtrace.xz
Region of Interest Statistics

CPU 0 cumulative IPC: 0.4518 instructions: 1000000000 cycles: 2213581124
CPU 0 Branch Prediction Accuracy: 90.08% MPKI: 25.01 Average ROB Occupancy at Mispredict: 16.27
Branch type MPKI
BRANCH_DIRECT_JUMP: 0.263
BRANCH_INDIRECT: 0
BRANCH_CONDITIONAL: 24.7
BRANCH_DIRECT_CALL: 0
BRANCH_INDIRECT_CALL: 2.9e-05
BRANCH_RETURN: 0

LLC TOTAL        ACCESS:   31271027 HIT:   18111268 MISS:   13159759
LLC LOAD         ACCESS:   26434017 HIT:   13375125 MISS:   13058892
LLC RFO          ACCESS:    1635609 HIT:    1617835 MISS:      17774
LLC PREFETCH     ACCESS:          0 HIT:          0 MISS:          0
LLC WRITE        ACCESS:    3078801 HIT:    3038891 MISS:      39910
LLC TRANSLATION  ACCESS:     122600 HIT:      79417 MISS:      43183
LLC PREFETCH REQUESTED:          0 ISSUED:          0 USEFUL:          0 USELESS:          0
LLC AVERAGE MISS LATENCY: 135.1 cycles
cpu0_DTLB TOTAL        ACCESS:  279271631 HIT:  257054601 MISS:   22217030
cpu0_DTLB LOAD         ACCESS:  279271631 HIT:  257054601 MISS:   22217030
cpu0_DTLB RFO          ACCESS:          0 HIT:          0 MISS:          0
cpu0_DTLB PREFETCH     ACCESS:          0 HIT:          0 MISS:          0
cpu0_DTLB WRITE        ACCESS:          0 HIT:          0 MISS:          0
cpu0_DTLB TRANSLATION  ACCESS:          0 HIT:          0 MISS:          0
cpu0_DTLB PREFETCH REQUESTED:          0 ISSUED:          0 USEFUL:          0 USELESS:          0
cpu0_DTLB AVERAGE MISS LATENCY: 8.355 cycles
cpu0_ITLB TOTAL        ACCESS:     387243 HIT:     387243 MISS:          0
cpu0_ITLB LOAD         ACCESS:     387243 HIT:     387243 MISS:          0
cpu0_ITLB RFO          ACCESS:          0 HIT:          0 MISS:          0
cpu0_ITLB PREFETCH     ACCESS:          0 HIT:          0 MISS:          0
cpu0_ITLB WRITE        ACCESS:          0 HIT:          0 MISS:          0
cpu0_ITLB TRANSLATION  ACCESS:          0 HIT:          0 MISS:          0
cpu0_ITLB PREFETCH REQUESTED:          0 ISSUED:          0 USEFUL:          0 USELESS:          0
cpu0_ITLB AVERAGE MISS LATENCY: -nan cycles
cpu0_L1D TOTAL        ACCESS:  351723608 HIT:  292106847 MISS:   59616761
cpu0_L1D LOAD         ACCESS:  236574368 HIT:  187435579 MISS:   49138789
cpu0_L1D RFO          ACCESS:          0 HIT:          0 MISS:          0
cpu0_L1D PREFETCH     ACCESS:          0 HIT:          0 MISS:          0
cpu0_L1D WRITE        ACCESS:  114873983 HIT:  104544042 MISS:   10329941
cpu0_L1D TRANSLATION  ACCESS:     275257 HIT:     127226 MISS:     148031
cpu0_L1D PREFETCH REQUESTED:          0 ISSUED:          0 USEFUL:          0 USELESS:          0
cpu0_L1D AVERAGE MISS LATENCY: 46.12 cycles
cpu0_L1I TOTAL        ACCESS:     432571 HIT:     432571 MISS:          0
cpu0_L1I LOAD         ACCESS:     432571 HIT:     432571 MISS:          0
cpu0_L1I RFO          ACCESS:          0 HIT:          0 MISS:          0
cpu0_L1I PREFETCH     ACCESS:          0 HIT:          0 MISS:          0
cpu0_L1I WRITE        ACCESS:          0 HIT:          0 MISS:          0
cpu0_L1I TRANSLATION  ACCESS:          0 HIT:          0 MISS:          0
cpu0_L1I PREFETCH REQUESTED:          0 ISSUED:          0 USEFUL:          0 USELESS:          0
cpu0_L1I AVERAGE MISS LATENCY: -nan cycles
cpu0_L2C TOTAL        ACCESS:   47023132 HIT:   18828107 MISS:   28195025
cpu0_L2C LOAD         ACCESS:   37483401 HIT:   11049378 MISS:   26434023
cpu0_L2C RFO          ACCESS:    3759242 HIT:    2123629 MISS:    1635613
cpu0_L2C PREFETCH     ACCESS:          0 HIT:          0 MISS:          0
cpu0_L2C WRITE        ACCESS:    5632465 HIT:    5629676 MISS:       2789
cpu0_L2C TRANSLATION  ACCESS:     148024 HIT:      25424 MISS:     122600
cpu0_L2C PREFETCH REQUESTED:          0 ISSUED:          0 USEFUL:          0 USELESS:          0
cpu0_L2C AVERAGE MISS LATENCY: 83.52 cycles
cpu0_STLB TOTAL        ACCESS:   18904852 HIT:   18631236 MISS:     273616
cpu0_STLB LOAD         ACCESS:   18904852 HIT:   18631236 MISS:     273616
cpu0_STLB RFO          ACCESS:          0 HIT:          0 MISS:          0
cpu0_STLB PREFETCH     ACCESS:          0 HIT:          0 MISS:          0
cpu0_STLB WRITE        ACCESS:          0 HIT:          0 MISS:          0
cpu0_STLB TRANSLATION  ACCESS:          0 HIT:          0 MISS:          0
cpu0_STLB PREFETCH REQUESTED:          0 ISSUED:          0 USEFUL:          0 USELESS:          0
cpu0_STLB AVERAGE MISS LATENCY: 159 cycles

DRAM Statistics

Channel 0 RQ ROW_BUFFER_HIT:    5797017
  ROW_BUFFER_MISS:    7322502
 AVG DBUS CONGESTED CYCLE: 3.812
WQ ROW_BUFFER_HIT: Channel 0 
  ROW_BUFFER_MISS:     125435
  FULL:      61398
