WARNING: physical memory size is smaller than virtual memory size.
WARNING: option --warmup_instructions is deprecated. Use --warmup-instructions instead.
WARNING: option --simulation_instructions is deprecated. Use --simulation-instructions instead.

*** ChampSim Multicore Out-of-Order Simulator ***
Warmup Instructions: 200000000
Simulation Instructions: 1000000000
Number of CPUs: 1
Page size: 4096

Off-chip DRAM Size: 4 GiB Channels: 1 Width: 64-bit Data Race: 3200 MT/s
Heartbeat CPU 0 instructions: 10000001 cycles: 3218174 heartbeat IPC: 3.107 cumulative IPC: 3.107 (Simulation time: 00 hr 01 min 01 sec)
Heartbeat CPU 0 instructions: 20000001 cycles: 6435078 heartbeat IPC: 3.109 cumulative IPC: 3.108 (Simulation time: 00 hr 02 min 02 sec)
Heartbeat CPU 0 instructions: 30000003 cycles: 9653939 heartbeat IPC: 3.107 cumulative IPC: 3.108 (Simulation time: 00 hr 03 min 03 sec)
Heartbeat CPU 0 instructions: 40000000 cycles: 12869779 heartbeat IPC: 3.11 cumulative IPC: 3.108 (Simulation time: 00 hr 04 min 04 sec)
Heartbeat CPU 0 instructions: 50000001 cycles: 16085852 heartbeat IPC: 3.109 cumulative IPC: 3.108 (Simulation time: 00 hr 05 min 05 sec)
Heartbeat CPU 0 instructions: 60000001 cycles: 19400108 heartbeat IPC: 3.017 cumulative IPC: 3.093 (Simulation time: 00 hr 06 min 08 sec)
Heartbeat CPU 0 instructions: 70000004 cycles: 22746365 heartbeat IPC: 2.988 cumulative IPC: 3.077 (Simulation time: 00 hr 07 min 13 sec)
Heartbeat CPU 0 instructions: 80000002 cycles: 26092718 heartbeat IPC: 2.988 cumulative IPC: 3.066 (Simulation time: 00 hr 08 min 17 sec)
Heartbeat CPU 0 instructions: 90000004 cycles: 29439127 heartbeat IPC: 2.988 cumulative IPC: 3.057 (Simulation time: 00 hr 09 min 21 sec)
Heartbeat CPU 0 instructions: 100000004 cycles: 32785297 heartbeat IPC: 2.988 cumulative IPC: 3.05 (Simulation time: 00 hr 10 min 25 sec)
Heartbeat CPU 0 instructions: 110000001 cycles: 36131512 heartbeat IPC: 2.988 cumulative IPC: 3.044 (Simulation time: 00 hr 11 min 29 sec)
Heartbeat CPU 0 instructions: 120000002 cycles: 39477203 heartbeat IPC: 2.989 cumulative IPC: 3.04 (Simulation time: 00 hr 12 min 33 sec)
Heartbeat CPU 0 instructions: 130000001 cycles: 42823318 heartbeat IPC: 2.989 cumulative IPC: 3.036 (Simulation time: 00 hr 13 min 37 sec)
Heartbeat CPU 0 instructions: 140000003 cycles: 46169997 heartbeat IPC: 2.988 cumulative IPC: 3.032 (Simulation time: 00 hr 14 min 42 sec)
Heartbeat CPU 0 instructions: 150000003 cycles: 49516753 heartbeat IPC: 2.988 cumulative IPC: 3.029 (Simulation time: 00 hr 15 min 46 sec)
Heartbeat CPU 0 instructions: 160000000 cycles: 52862921 heartbeat IPC: 2.988 cumulative IPC: 3.027 (Simulation time: 00 hr 16 min 50 sec)
Heartbeat CPU 0 instructions: 170000002 cycles: 56208624 heartbeat IPC: 2.989 cumulative IPC: 3.024 (Simulation time: 00 hr 17 min 55 sec)
Heartbeat CPU 0 instructions: 180000000 cycles: 59554747 heartbeat IPC: 2.989 cumulative IPC: 3.022 (Simulation time: 00 hr 18 min 59 sec)
Heartbeat CPU 0 instructions: 190000002 cycles: 62900973 heartbeat IPC: 2.988 cumulative IPC: 3.021 (Simulation time: 00 hr 20 min 03 sec)
Heartbeat CPU 0 instructions: 200000000 cycles: 66247455 heartbeat IPC: 2.988 cumulative IPC: 3.019 (Simulation time: 00 hr 21 min 08 sec)
Warmup finished CPU 0 instructions: 200000000 cycles: 66247456 cumulative IPC: 3.019 (Simulation time: 00 hr 21 min 08 sec)
Warmup complete CPU 0 instructions: 200000000 cycles: 66247456 cumulative IPC: 3.019 (Simulation time: 00 hr 21 min 08 sec)
Heartbeat CPU 0 instructions: 210000003 cycles: 75539233 heartbeat IPC: 1.076 cumulative IPC: 1.076 (Simulation time: 00 hr 23 min 16 sec)
Heartbeat CPU 0 instructions: 220000000 cycles: 84844913 heartbeat IPC: 1.075 cumulative IPC: 1.075 (Simulation time: 00 hr 25 min 26 sec)
Heartbeat CPU 0 instructions: 230000000 cycles: 94211565 heartbeat IPC: 1.068 cumulative IPC: 1.073 (Simulation time: 00 hr 27 min 34 sec)
Heartbeat CPU 0 instructions: 240000003 cycles: 103710842 heartbeat IPC: 1.053 cumulative IPC: 1.068 (Simulation time: 00 hr 29 min 44 sec)
Heartbeat CPU 0 instructions: 250000003 cycles: 112999235 heartbeat IPC: 1.077 cumulative IPC: 1.069 (Simulation time: 00 hr 31 min 52 sec)
Heartbeat CPU 0 instructions: 260000000 cycles: 122232477 heartbeat IPC: 1.083 cumulative IPC: 1.072 (Simulation time: 00 hr 34 min 00 sec)
Heartbeat CPU 0 instructions: 270000002 cycles: 131563427 heartbeat IPC: 1.072 cumulative IPC: 1.072 (Simulation time: 00 hr 36 min 08 sec)
Heartbeat CPU 0 instructions: 280000000 cycles: 140815368 heartbeat IPC: 1.081 cumulative IPC: 1.073 (Simulation time: 00 hr 38 min 16 sec)
Heartbeat CPU 0 instructions: 290000001 cycles: 150128978 heartbeat IPC: 1.074 cumulative IPC: 1.073 (Simulation time: 00 hr 40 min 25 sec)
Heartbeat CPU 0 instructions: 300000001 cycles: 159365966 heartbeat IPC: 1.083 cumulative IPC: 1.074 (Simulation time: 00 hr 42 min 33 sec)
Heartbeat CPU 0 instructions: 310000000 cycles: 168658238 heartbeat IPC: 1.076 cumulative IPC: 1.074 (Simulation time: 00 hr 44 min 41 sec)
Heartbeat CPU 0 instructions: 320000003 cycles: 177922579 heartbeat IPC: 1.079 cumulative IPC: 1.075 (Simulation time: 00 hr 46 min 49 sec)
Heartbeat CPU 0 instructions: 330000001 cycles: 187187775 heartbeat IPC: 1.079 cumulative IPC: 1.075 (Simulation time: 00 hr 48 min 56 sec)
Heartbeat CPU 0 instructions: 340000003 cycles: 196526864 heartbeat IPC: 1.071 cumulative IPC: 1.075 (Simulation time: 00 hr 51 min 05 sec)
Heartbeat CPU 0 instructions: 350000002 cycles: 205773998 heartbeat IPC: 1.081 cumulative IPC: 1.075 (Simulation time: 00 hr 53 min 14 sec)
Heartbeat CPU 0 instructions: 360000001 cycles: 215097544 heartbeat IPC: 1.073 cumulative IPC: 1.075 (Simulation time: 00 hr 55 min 23 sec)
Heartbeat CPU 0 instructions: 370000004 cycles: 224410390 heartbeat IPC: 1.074 cumulative IPC: 1.075 (Simulation time: 00 hr 57 min 33 sec)
Heartbeat CPU 0 instructions: 380000002 cycles: 233683713 heartbeat IPC: 1.078 cumulative IPC: 1.075 (Simulation time: 00 hr 59 min 41 sec)
Heartbeat CPU 0 instructions: 390000000 cycles: 242985428 heartbeat IPC: 1.075 cumulative IPC: 1.075 (Simulation time: 01 hr 01 min 50 sec)
Heartbeat CPU 0 instructions: 400000003 cycles: 252225743 heartbeat IPC: 1.082 cumulative IPC: 1.075 (Simulation time: 01 hr 03 min 58 sec)
Heartbeat CPU 0 instructions: 410000002 cycles: 261514319 heartbeat IPC: 1.077 cumulative IPC: 1.075 (Simulation time: 01 hr 06 min 06 sec)
Heartbeat CPU 0 instructions: 420000000 cycles: 270796014 heartbeat IPC: 1.077 cumulative IPC: 1.076 (Simulation time: 01 hr 08 min 15 sec)
Heartbeat CPU 0 instructions: 430000003 cycles: 280165014 heartbeat IPC: 1.067 cumulative IPC: 1.075 (Simulation time: 01 hr 10 min 24 sec)
Heartbeat CPU 0 instructions: 440000002 cycles: 289436468 heartbeat IPC: 1.079 cumulative IPC: 1.075 (Simulation time: 01 hr 12 min 31 sec)
Heartbeat CPU 0 instructions: 450000000 cycles: 298679618 heartbeat IPC: 1.082 cumulative IPC: 1.076 (Simulation time: 01 hr 14 min 38 sec)
Heartbeat CPU 0 instructions: 460000001 cycles: 307975937 heartbeat IPC: 1.076 cumulative IPC: 1.076 (Simulation time: 01 hr 16 min 45 sec)
Heartbeat CPU 0 instructions: 470000001 cycles: 317213263 heartbeat IPC: 1.083 cumulative IPC: 1.076 (Simulation time: 01 hr 18 min 52 sec)
Heartbeat CPU 0 instructions: 480000000 cycles: 326554853 heartbeat IPC: 1.07 cumulative IPC: 1.076 (Simulation time: 01 hr 21 min 01 sec)
Heartbeat CPU 0 instructions: 490000003 cycles: 336051058 heartbeat IPC: 1.053 cumulative IPC: 1.075 (Simulation time: 01 hr 23 min 11 sec)
Heartbeat CPU 0 instructions: 500000001 cycles: 345414676 heartbeat IPC: 1.068 cumulative IPC: 1.075 (Simulation time: 01 hr 25 min 23 sec)
Heartbeat CPU 0 instructions: 510000004 cycles: 354831124 heartbeat IPC: 1.062 cumulative IPC: 1.074 (Simulation time: 01 hr 27 min 31 sec)
Heartbeat CPU 0 instructions: 520000001 cycles: 364269125 heartbeat IPC: 1.06 cumulative IPC: 1.074 (Simulation time: 01 hr 29 min 39 sec)
Heartbeat CPU 0 instructions: 530000001 cycles: 373689827 heartbeat IPC: 1.061 cumulative IPC: 1.073 (Simulation time: 01 hr 31 min 48 sec)
Heartbeat CPU 0 instructions: 540000001 cycles: 382977765 heartbeat IPC: 1.077 cumulative IPC: 1.073 (Simulation time: 01 hr 33 min 55 sec)
Heartbeat CPU 0 instructions: 550000000 cycles: 392368276 heartbeat IPC: 1.065 cumulative IPC: 1.073 (Simulation time: 01 hr 36 min 04 sec)
Heartbeat CPU 0 instructions: 560000002 cycles: 401745508 heartbeat IPC: 1.066 cumulative IPC: 1.073 (Simulation time: 01 hr 38 min 12 sec)
Heartbeat CPU 0 instructions: 570000001 cycles: 411142622 heartbeat IPC: 1.064 cumulative IPC: 1.073 (Simulation time: 01 hr 40 min 20 sec)
Heartbeat CPU 0 instructions: 580000000 cycles: 420495125 heartbeat IPC: 1.069 cumulative IPC: 1.073 (Simulation time: 01 hr 42 min 29 sec)
Heartbeat CPU 0 instructions: 590000002 cycles: 429823108 heartbeat IPC: 1.072 cumulative IPC: 1.073 (Simulation time: 01 hr 44 min 36 sec)
Heartbeat CPU 0 instructions: 600000003 cycles: 439158067 heartbeat IPC: 1.071 cumulative IPC: 1.073 (Simulation time: 01 hr 46 min 45 sec)
Heartbeat CPU 0 instructions: 610000001 cycles: 448517571 heartbeat IPC: 1.068 cumulative IPC: 1.073 (Simulation time: 01 hr 48 min 53 sec)
Heartbeat CPU 0 instructions: 620000000 cycles: 457899465 heartbeat IPC: 1.066 cumulative IPC: 1.072 (Simulation time: 01 hr 51 min 01 sec)
Heartbeat CPU 0 instructions: 630000003 cycles: 467264064 heartbeat IPC: 1.068 cumulative IPC: 1.072 (Simulation time: 01 hr 53 min 10 sec)
Heartbeat CPU 0 instructions: 640000004 cycles: 476630624 heartbeat IPC: 1.068 cumulative IPC: 1.072 (Simulation time: 01 hr 55 min 18 sec)
Heartbeat CPU 0 instructions: 650000001 cycles: 485921129 heartbeat IPC: 1.076 cumulative IPC: 1.072 (Simulation time: 01 hr 57 min 26 sec)
Heartbeat CPU 0 instructions: 660000002 cycles: 495271438 heartbeat IPC: 1.069 cumulative IPC: 1.072 (Simulation time: 01 hr 59 min 35 sec)
Heartbeat CPU 0 instructions: 670000003 cycles: 504571513 heartbeat IPC: 1.075 cumulative IPC: 1.072 (Simulation time: 02 hr 01 min 42 sec)
Heartbeat CPU 0 instructions: 680000002 cycles: 513863129 heartbeat IPC: 1.076 cumulative IPC: 1.072 (Simulation time: 02 hr 03 min 50 sec)
Heartbeat CPU 0 instructions: 690000003 cycles: 523169336 heartbeat IPC: 1.075 cumulative IPC: 1.072 (Simulation time: 02 hr 05 min 57 sec)
Heartbeat CPU 0 instructions: 700000002 cycles: 532503487 heartbeat IPC: 1.071 cumulative IPC: 1.072 (Simulation time: 02 hr 08 min 05 sec)
Heartbeat CPU 0 instructions: 710000002 cycles: 541916703 heartbeat IPC: 1.062 cumulative IPC: 1.072 (Simulation time: 02 hr 10 min 14 sec)
Heartbeat CPU 0 instructions: 720000000 cycles: 551286319 heartbeat IPC: 1.067 cumulative IPC: 1.072 (Simulation time: 02 hr 12 min 21 sec)
Heartbeat CPU 0 instructions: 730000003 cycles: 560606843 heartbeat IPC: 1.073 cumulative IPC: 1.072 (Simulation time: 02 hr 14 min 30 sec)
Heartbeat CPU 0 instructions: 740000001 cycles: 569987192 heartbeat IPC: 1.066 cumulative IPC: 1.072 (Simulation time: 02 hr 16 min 38 sec)
Heartbeat CPU 0 instructions: 750000003 cycles: 579313098 heartbeat IPC: 1.072 cumulative IPC: 1.072 (Simulation time: 02 hr 18 min 46 sec)
Heartbeat CPU 0 instructions: 760000004 cycles: 588670795 heartbeat IPC: 1.069 cumulative IPC: 1.072 (Simulation time: 02 hr 20 min 55 sec)
Heartbeat CPU 0 instructions: 770000003 cycles: 598014975 heartbeat IPC: 1.07 cumulative IPC: 1.072 (Simulation time: 02 hr 23 min 03 sec)
Heartbeat CPU 0 instructions: 780000002 cycles: 607328489 heartbeat IPC: 1.074 cumulative IPC: 1.072 (Simulation time: 02 hr 25 min 12 sec)
Heartbeat CPU 0 instructions: 790000004 cycles: 616623912 heartbeat IPC: 1.076 cumulative IPC: 1.072 (Simulation time: 02 hr 27 min 19 sec)
Heartbeat CPU 0 instructions: 800000000 cycles: 626001969 heartbeat IPC: 1.066 cumulative IPC: 1.072 (Simulation time: 02 hr 29 min 28 sec)
Heartbeat CPU 0 instructions: 810000003 cycles: 635339630 heartbeat IPC: 1.071 cumulative IPC: 1.072 (Simulation time: 02 hr 31 min 37 sec)
Heartbeat CPU 0 instructions: 820000002 cycles: 644653580 heartbeat IPC: 1.074 cumulative IPC: 1.072 (Simulation time: 02 hr 33 min 45 sec)
Heartbeat CPU 0 instructions: 830000002 cycles: 654023858 heartbeat IPC: 1.067 cumulative IPC: 1.072 (Simulation time: 02 hr 35 min 56 sec)
Heartbeat CPU 0 instructions: 840000000 cycles: 663343772 heartbeat IPC: 1.073 cumulative IPC: 1.072 (Simulation time: 02 hr 38 min 05 sec)
Heartbeat CPU 0 instructions: 850000001 cycles: 672694480 heartbeat IPC: 1.069 cumulative IPC: 1.072 (Simulation time: 02 hr 40 min 14 sec)
Heartbeat CPU 0 instructions: 860000002 cycles: 682020886 heartbeat IPC: 1.072 cumulative IPC: 1.072 (Simulation time: 02 hr 42 min 22 sec)
Heartbeat CPU 0 instructions: 870000003 cycles: 691385020 heartbeat IPC: 1.068 cumulative IPC: 1.072 (Simulation time: 02 hr 44 min 31 sec)
Heartbeat CPU 0 instructions: 880000003 cycles: 700700175 heartbeat IPC: 1.074 cumulative IPC: 1.072 (Simulation time: 02 hr 46 min 39 sec)
Heartbeat CPU 0 instructions: 890000002 cycles: 709959701 heartbeat IPC: 1.08 cumulative IPC: 1.072 (Simulation time: 02 hr 48 min 46 sec)
Heartbeat CPU 0 instructions: 900000000 cycles: 719362131 heartbeat IPC: 1.064 cumulative IPC: 1.072 (Simulation time: 02 hr 50 min 55 sec)
Heartbeat CPU 0 instructions: 910000002 cycles: 728702192 heartbeat IPC: 1.071 cumulative IPC: 1.072 (Simulation time: 02 hr 53 min 01 sec)
Heartbeat CPU 0 instructions: 920000001 cycles: 738017323 heartbeat IPC: 1.074 cumulative IPC: 1.072 (Simulation time: 02 hr 55 min 08 sec)
Heartbeat CPU 0 instructions: 930000001 cycles: 747281244 heartbeat IPC: 1.079 cumulative IPC: 1.072 (Simulation time: 02 hr 57 min 15 sec)
Heartbeat CPU 0 instructions: 940000003 cycles: 756629688 heartbeat IPC: 1.07 cumulative IPC: 1.072 (Simulation time: 02 hr 59 min 22 sec)
Heartbeat CPU 0 instructions: 950000001 cycles: 765974937 heartbeat IPC: 1.07 cumulative IPC: 1.072 (Simulation time: 03 hr 01 min 29 sec)
Heartbeat CPU 0 instructions: 960000002 cycles: 775264509 heartbeat IPC: 1.076 cumulative IPC: 1.072 (Simulation time: 03 hr 03 min 36 sec)
Heartbeat CPU 0 instructions: 970000004 cycles: 784594134 heartbeat IPC: 1.072 cumulative IPC: 1.072 (Simulation time: 03 hr 05 min 43 sec)
Heartbeat CPU 0 instructions: 980000003 cycles: 793945142 heartbeat IPC: 1.069 cumulative IPC: 1.072 (Simulation time: 03 hr 07 min 50 sec)
Heartbeat CPU 0 instructions: 990000000 cycles: 803367900 heartbeat IPC: 1.061 cumulative IPC: 1.072 (Simulation time: 03 hr 09 min 58 sec)
Heartbeat CPU 0 instructions: 1000000002 cycles: 812727206 heartbeat IPC: 1.068 cumulative IPC: 1.072 (Simulation time: 03 hr 12 min 05 sec)
Heartbeat CPU 0 instructions: 1010000000 cycles: 822080704 heartbeat IPC: 1.069 cumulative IPC: 1.072 (Simulation time: 03 hr 14 min 12 sec)
Heartbeat CPU 0 instructions: 1020000000 cycles: 831394925 heartbeat IPC: 1.074 cumulative IPC: 1.072 (Simulation time: 03 hr 16 min 18 sec)
Heartbeat CPU 0 instructions: 1030000002 cycles: 840738348 heartbeat IPC: 1.07 cumulative IPC: 1.072 (Simulation time: 03 hr 18 min 25 sec)
Heartbeat CPU 0 instructions: 1040000000 cycles: 850089220 heartbeat IPC: 1.069 cumulative IPC: 1.072 (Simulation time: 03 hr 20 min 32 sec)
Heartbeat CPU 0 instructions: 1050000000 cycles: 859451612 heartbeat IPC: 1.068 cumulative IPC: 1.072 (Simulation time: 03 hr 22 min 39 sec)
Heartbeat CPU 0 instructions: 1060000003 cycles: 868786823 heartbeat IPC: 1.071 cumulative IPC: 1.072 (Simulation time: 03 hr 24 min 45 sec)
Heartbeat CPU 0 instructions: 1070000000 cycles: 878139279 heartbeat IPC: 1.069 cumulative IPC: 1.072 (Simulation time: 03 hr 26 min 53 sec)
Heartbeat CPU 0 instructions: 1080000001 cycles: 887511733 heartbeat IPC: 1.067 cumulative IPC: 1.072 (Simulation time: 03 hr 29 min 00 sec)
Heartbeat CPU 0 instructions: 1090000000 cycles: 896872431 heartbeat IPC: 1.068 cumulative IPC: 1.071 (Simulation time: 03 hr 31 min 08 sec)
Heartbeat CPU 0 instructions: 1100000004 cycles: 906210984 heartbeat IPC: 1.071 cumulative IPC: 1.071 (Simulation time: 03 hr 33 min 16 sec)
Heartbeat CPU 0 instructions: 1110000003 cycles: 915552028 heartbeat IPC: 1.071 cumulative IPC: 1.071 (Simulation time: 03 hr 35 min 23 sec)
Heartbeat CPU 0 instructions: 1120000000 cycles: 924868638 heartbeat IPC: 1.073 cumulative IPC: 1.071 (Simulation time: 03 hr 37 min 30 sec)
Heartbeat CPU 0 instructions: 1130000004 cycles: 934213417 heartbeat IPC: 1.07 cumulative IPC: 1.071 (Simulation time: 03 hr 39 min 37 sec)
Heartbeat CPU 0 instructions: 1140000000 cycles: 943555141 heartbeat IPC: 1.07 cumulative IPC: 1.071 (Simulation time: 03 hr 41 min 44 sec)
Heartbeat CPU 0 instructions: 1150000003 cycles: 952894901 heartbeat IPC: 1.071 cumulative IPC: 1.071 (Simulation time: 03 hr 43 min 53 sec)
Heartbeat CPU 0 instructions: 1160000001 cycles: 962238378 heartbeat IPC: 1.07 cumulative IPC: 1.071 (Simulation time: 03 hr 45 min 59 sec)
Heartbeat CPU 0 instructions: 1170000004 cycles: 971549711 heartbeat IPC: 1.074 cumulative IPC: 1.071 (Simulation time: 03 hr 48 min 06 sec)
Heartbeat CPU 0 instructions: 1180000002 cycles: 980943628 heartbeat IPC: 1.065 cumulative IPC: 1.071 (Simulation time: 03 hr 50 min 14 sec)
Heartbeat CPU 0 instructions: 1190000000 cycles: 990295503 heartbeat IPC: 1.069 cumulative IPC: 1.071 (Simulation time: 03 hr 52 min 21 sec)
Heartbeat CPU 0 instructions: 1200000002 cycles: 999591373 heartbeat IPC: 1.076 cumulative IPC: 1.071 (Simulation time: 03 hr 54 min 28 sec)
Simulation finished CPU 0 instructions: 1000000002 cycles: 933343918 cumulative IPC: 1.071 (Simulation time: 03 hr 54 min 28 sec)
Simulation complete CPU 0 instructions: 1000000002 cycles: 933343918 cumulative IPC: 1.071 (Simulation time: 03 hr 54 min 28 sec)

ChampSim completed all CPUs

=== Simulation ===
CPU 0 runs /home/faculty/p/pgratz/dpc3_traces/607.cactuBSSN_s-2421B.champsimtrace.xz
Region of Interest Statistics

CPU 0 cumulative IPC: 1.071 instructions: 1000000002 cycles: 933343918
CPU 0 Branch Prediction Accuracy: 99.85% MPKI: 0.001789 Average ROB Occupancy at Mispredict: 349.7
Branch type MPKI
BRANCH_DIRECT_JUMP: 0
BRANCH_INDIRECT: 0
BRANCH_CONDITIONAL: 0.00179
BRANCH_DIRECT_CALL: 0
BRANCH_INDIRECT_CALL: 0
BRANCH_RETURN: 0

LLC TOTAL        ACCESS:   11950317 HIT:    4173462 MISS:    7776855
LLC LOAD         ACCESS:   10691922 HIT:    3009149 MISS:    7682773
LLC RFO          ACCESS:      60765 HIT:      60765 MISS:          0
LLC PREFETCH     ACCESS:          0 HIT:          0 MISS:          0
LLC WRITE        ACCESS:    1047039 HIT:    1046750 MISS:        289
LLC TRANSLATION  ACCESS:     150591 HIT:      56798 MISS:      93793
LLC PREFETCH REQUESTED:          0 ISSUED:          0 USEFUL:          0 USELESS:          0
LLC AVERAGE MISS LATENCY: 1354 cycles
cpu0_DTLB TOTAL        ACCESS:  216012992 HIT:  126762879 MISS:   89250113
cpu0_DTLB LOAD         ACCESS:  216012992 HIT:  126762879 MISS:   89250113
cpu0_DTLB RFO          ACCESS:          0 HIT:          0 MISS:          0
cpu0_DTLB PREFETCH     ACCESS:          0 HIT:          0 MISS:          0
cpu0_DTLB WRITE        ACCESS:          0 HIT:          0 MISS:          0
cpu0_DTLB TRANSLATION  ACCESS:          0 HIT:          0 MISS:          0
cpu0_DTLB PREFETCH REQUESTED:          0 ISSUED:          0 USEFUL:          0 USELESS:          0
cpu0_DTLB AVERAGE MISS LATENCY: 7.269 cycles
cpu0_ITLB TOTAL        ACCESS:  142888197 HIT:  142888197 MISS:          0
cpu0_ITLB LOAD         ACCESS:  142888197 HIT:  142888197 MISS:          0
cpu0_ITLB RFO          ACCESS:          0 HIT:          0 MISS:          0
cpu0_ITLB PREFETCH     ACCESS:          0 HIT:          0 MISS:          0
cpu0_ITLB WRITE        ACCESS:          0 HIT:          0 MISS:          0
cpu0_ITLB TRANSLATION  ACCESS:          0 HIT:          0 MISS:          0
cpu0_ITLB PREFETCH REQUESTED:          0 ISSUED:          0 USEFUL:          0 USELESS:          0
cpu0_ITLB AVERAGE MISS LATENCY: -nan cycles
cpu0_L1D TOTAL        ACCESS:  263272486 HIT:  146656497 MISS:  116615989
cpu0_L1D LOAD         ACCESS:  148831262 HIT:   38625876 MISS:  110205386
cpu0_L1D RFO          ACCESS:          0 HIT:          0 MISS:          0
cpu0_L1D PREFETCH     ACCESS:          0 HIT:          0 MISS:          0
cpu0_L1D WRITE        ACCESS:  114251526 HIT:  108028891 MISS:    6222635
cpu0_L1D TRANSLATION  ACCESS:     189698 HIT:       1730 MISS:     187968
cpu0_L1D PREFETCH REQUESTED:          0 ISSUED:          0 USEFUL:          0 USELESS:          0
cpu0_L1D AVERAGE MISS LATENCY: 102 cycles
cpu0_L1I TOTAL        ACCESS:  174351253 HIT:  174351253 MISS:          0
cpu0_L1I LOAD         ACCESS:  174351253 HIT:  174351253 MISS:          0
cpu0_L1I RFO          ACCESS:          0 HIT:          0 MISS:          0
cpu0_L1I PREFETCH     ACCESS:          0 HIT:          0 MISS:          0
cpu0_L1I WRITE        ACCESS:          0 HIT:          0 MISS:          0
cpu0_L1I TRANSLATION  ACCESS:          0 HIT:          0 MISS:          0
cpu0_L1I PREFETCH REQUESTED:          0 ISSUED:          0 USEFUL:          0 USELESS:          0
cpu0_L1I AVERAGE MISS LATENCY: -nan cycles
cpu0_L2C TOTAL        ACCESS:  122205041 HIT:  111301317 MISS:   10903724
cpu0_L2C LOAD         ACCESS:  108593676 HIT:   97901534 MISS:   10692142
cpu0_L2C RFO          ACCESS:    4808582 HIT:    4747592 MISS:      60990
cpu0_L2C PREFETCH     ACCESS:          0 HIT:          0 MISS:          0
cpu0_L2C WRITE        ACCESS:    8614934 HIT:    8614933 MISS:          1
cpu0_L2C TRANSLATION  ACCESS:     187849 HIT:      37258 MISS:     150591
cpu0_L2C PREFETCH REQUESTED:          0 ISSUED:          0 USEFUL:          0 USELESS:          0
cpu0_L2C AVERAGE MISS LATENCY: 986.7 cycles
cpu0_STLB TOTAL        ACCESS:   75449776 HIT:   75327826 MISS:     121950
cpu0_STLB LOAD         ACCESS:   75449776 HIT:   75327826 MISS:     121950
cpu0_STLB RFO          ACCESS:          0 HIT:          0 MISS:          0
cpu0_STLB PREFETCH     ACCESS:          0 HIT:          0 MISS:          0
cpu0_STLB WRITE        ACCESS:          0 HIT:          0 MISS:          0
cpu0_STLB TRANSLATION  ACCESS:          0 HIT:          0 MISS:          0
cpu0_STLB PREFETCH REQUESTED:          0 ISSUED:          0 USEFUL:          0 USELESS:          0
cpu0_STLB AVERAGE MISS LATENCY: 889.1 cycles

DRAM Statistics

Channel 0 RQ ROW_BUFFER_HIT:    1415763
  ROW_BUFFER_MISS:    6360803
 AVG DBUS CONGESTED CYCLE: 3.996
WQ ROW_BUFFER_HIT: Channel 0 
  ROW_BUFFER_MISS:     159515
  FULL:     796205
