WARNING: physical memory size is smaller than virtual memory size.
WARNING: option --warmup_instructions is deprecated. Use --warmup-instructions instead.
WARNING: option --simulation_instructions is deprecated. Use --simulation-instructions instead.

*** ChampSim Multicore Out-of-Order Simulator ***
Warmup Instructions: 200000000
Simulation Instructions: 1000000000
Number of CPUs: 1
Page size: 4096

Off-chip DRAM Size: 4 GiB Channels: 1 Width: 64-bit Data Race: 3200 MT/s
Heartbeat CPU 0 instructions: 10000002 cycles: 2837346 heartbeat IPC: 3.524 cumulative IPC: 3.524 (Simulation time: 00 hr 00 min 45 sec)
Heartbeat CPU 0 instructions: 20000001 cycles: 5669514 heartbeat IPC: 3.531 cumulative IPC: 3.528 (Simulation time: 00 hr 01 min 30 sec)
Heartbeat CPU 0 instructions: 30000000 cycles: 8496964 heartbeat IPC: 3.537 cumulative IPC: 3.531 (Simulation time: 00 hr 02 min 16 sec)
Heartbeat CPU 0 instructions: 40000003 cycles: 11337060 heartbeat IPC: 3.521 cumulative IPC: 3.528 (Simulation time: 00 hr 03 min 02 sec)
Heartbeat CPU 0 instructions: 50000004 cycles: 14176691 heartbeat IPC: 3.522 cumulative IPC: 3.527 (Simulation time: 00 hr 03 min 47 sec)
Heartbeat CPU 0 instructions: 60000001 cycles: 17028576 heartbeat IPC: 3.506 cumulative IPC: 3.523 (Simulation time: 00 hr 04 min 33 sec)
Heartbeat CPU 0 instructions: 70000002 cycles: 19875320 heartbeat IPC: 3.513 cumulative IPC: 3.522 (Simulation time: 00 hr 05 min 19 sec)
Heartbeat CPU 0 instructions: 80000004 cycles: 22710629 heartbeat IPC: 3.527 cumulative IPC: 3.523 (Simulation time: 00 hr 06 min 04 sec)
Heartbeat CPU 0 instructions: 90000003 cycles: 25557250 heartbeat IPC: 3.513 cumulative IPC: 3.522 (Simulation time: 00 hr 06 min 50 sec)
Heartbeat CPU 0 instructions: 100000004 cycles: 28395647 heartbeat IPC: 3.523 cumulative IPC: 3.522 (Simulation time: 00 hr 07 min 37 sec)
Heartbeat CPU 0 instructions: 110000000 cycles: 31247343 heartbeat IPC: 3.507 cumulative IPC: 3.52 (Simulation time: 00 hr 08 min 24 sec)
Heartbeat CPU 0 instructions: 120000000 cycles: 34107565 heartbeat IPC: 3.496 cumulative IPC: 3.518 (Simulation time: 00 hr 09 min 10 sec)
Heartbeat CPU 0 instructions: 130000000 cycles: 36945315 heartbeat IPC: 3.524 cumulative IPC: 3.519 (Simulation time: 00 hr 09 min 55 sec)
Heartbeat CPU 0 instructions: 140000002 cycles: 39790406 heartbeat IPC: 3.515 cumulative IPC: 3.518 (Simulation time: 00 hr 10 min 41 sec)
Heartbeat CPU 0 instructions: 150000000 cycles: 42649071 heartbeat IPC: 3.498 cumulative IPC: 3.517 (Simulation time: 00 hr 11 min 28 sec)
Heartbeat CPU 0 instructions: 160000002 cycles: 45514668 heartbeat IPC: 3.49 cumulative IPC: 3.515 (Simulation time: 00 hr 12 min 14 sec)
Heartbeat CPU 0 instructions: 170000003 cycles: 48371922 heartbeat IPC: 3.5 cumulative IPC: 3.514 (Simulation time: 00 hr 13 min 00 sec)
Heartbeat CPU 0 instructions: 180000002 cycles: 51231555 heartbeat IPC: 3.497 cumulative IPC: 3.513 (Simulation time: 00 hr 13 min 47 sec)
Heartbeat CPU 0 instructions: 190000000 cycles: 54095542 heartbeat IPC: 3.492 cumulative IPC: 3.512 (Simulation time: 00 hr 14 min 33 sec)
Heartbeat CPU 0 instructions: 200000002 cycles: 56950471 heartbeat IPC: 3.503 cumulative IPC: 3.512 (Simulation time: 00 hr 15 min 19 sec)
Warmup finished CPU 0 instructions: 200000002 cycles: 56950472 cumulative IPC: 3.512 (Simulation time: 00 hr 15 min 19 sec)
Warmup complete CPU 0 instructions: 200000002 cycles: 56950472 cumulative IPC: 3.512 (Simulation time: 00 hr 15 min 19 sec)
Heartbeat CPU 0 instructions: 210000000 cycles: 106083896 heartbeat IPC: 0.2035 cumulative IPC: 0.2035 (Simulation time: 00 hr 22 min 06 sec)
Heartbeat CPU 0 instructions: 220000000 cycles: 154388730 heartbeat IPC: 0.207 cumulative IPC: 0.2053 (Simulation time: 00 hr 28 min 46 sec)
Heartbeat CPU 0 instructions: 230000000 cycles: 202304400 heartbeat IPC: 0.2087 cumulative IPC: 0.2064 (Simulation time: 00 hr 35 min 19 sec)
Heartbeat CPU 0 instructions: 240000003 cycles: 250957738 heartbeat IPC: 0.2055 cumulative IPC: 0.2062 (Simulation time: 00 hr 42 min 00 sec)
Heartbeat CPU 0 instructions: 250000000 cycles: 297658539 heartbeat IPC: 0.2141 cumulative IPC: 0.2077 (Simulation time: 00 hr 48 min 21 sec)
Heartbeat CPU 0 instructions: 260000003 cycles: 344652947 heartbeat IPC: 0.2128 cumulative IPC: 0.2085 (Simulation time: 00 hr 54 min 45 sec)
Heartbeat CPU 0 instructions: 270000002 cycles: 391440680 heartbeat IPC: 0.2137 cumulative IPC: 0.2093 (Simulation time: 01 hr 01 min 07 sec)
Heartbeat CPU 0 instructions: 280000002 cycles: 437158829 heartbeat IPC: 0.2187 cumulative IPC: 0.2104 (Simulation time: 01 hr 07 min 20 sec)
Heartbeat CPU 0 instructions: 290000001 cycles: 483942322 heartbeat IPC: 0.2138 cumulative IPC: 0.2108 (Simulation time: 01 hr 13 min 45 sec)
Heartbeat CPU 0 instructions: 300000003 cycles: 531503029 heartbeat IPC: 0.2103 cumulative IPC: 0.2107 (Simulation time: 01 hr 20 min 18 sec)
Heartbeat CPU 0 instructions: 310000002 cycles: 578862502 heartbeat IPC: 0.2112 cumulative IPC: 0.2108 (Simulation time: 01 hr 26 min 45 sec)
Heartbeat CPU 0 instructions: 320000000 cycles: 626638967 heartbeat IPC: 0.2093 cumulative IPC: 0.2106 (Simulation time: 01 hr 33 min 13 sec)
Heartbeat CPU 0 instructions: 330000001 cycles: 673225978 heartbeat IPC: 0.2147 cumulative IPC: 0.2109 (Simulation time: 01 hr 39 min 33 sec)
Heartbeat CPU 0 instructions: 340000001 cycles: 719513612 heartbeat IPC: 0.216 cumulative IPC: 0.2113 (Simulation time: 01 hr 45 min 52 sec)
Heartbeat CPU 0 instructions: 350000001 cycles: 765399730 heartbeat IPC: 0.2179 cumulative IPC: 0.2117 (Simulation time: 01 hr 52 min 12 sec)
Heartbeat CPU 0 instructions: 360000003 cycles: 812128762 heartbeat IPC: 0.214 cumulative IPC: 0.2119 (Simulation time: 01 hr 58 min 33 sec)
Heartbeat CPU 0 instructions: 370000002 cycles: 858350892 heartbeat IPC: 0.2163 cumulative IPC: 0.2121 (Simulation time: 02 hr 04 min 50 sec)
Heartbeat CPU 0 instructions: 380000004 cycles: 904408047 heartbeat IPC: 0.2171 cumulative IPC: 0.2124 (Simulation time: 02 hr 11 min 07 sec)
Heartbeat CPU 0 instructions: 390000001 cycles: 951155609 heartbeat IPC: 0.2139 cumulative IPC: 0.2125 (Simulation time: 02 hr 17 min 31 sec)
Heartbeat CPU 0 instructions: 400000000 cycles: 996288009 heartbeat IPC: 0.2216 cumulative IPC: 0.2129 (Simulation time: 02 hr 23 min 48 sec)
Heartbeat CPU 0 instructions: 410000002 cycles: 1043157225 heartbeat IPC: 0.2134 cumulative IPC: 0.2129 (Simulation time: 02 hr 30 min 14 sec)
Heartbeat CPU 0 instructions: 420000003 cycles: 1089044500 heartbeat IPC: 0.2179 cumulative IPC: 0.2132 (Simulation time: 02 hr 36 min 31 sec)
Heartbeat CPU 0 instructions: 430000003 cycles: 1137048656 heartbeat IPC: 0.2083 cumulative IPC: 0.2129 (Simulation time: 02 hr 43 min 06 sec)
Heartbeat CPU 0 instructions: 440000003 cycles: 1184898061 heartbeat IPC: 0.209 cumulative IPC: 0.2128 (Simulation time: 02 hr 49 min 37 sec)
Heartbeat CPU 0 instructions: 450000004 cycles: 1230747974 heartbeat IPC: 0.2181 cumulative IPC: 0.213 (Simulation time: 02 hr 55 min 22 sec)
Heartbeat CPU 0 instructions: 460000002 cycles: 1275425796 heartbeat IPC: 0.2238 cumulative IPC: 0.2134 (Simulation time: 03 hr 00 min 53 sec)
Heartbeat CPU 0 instructions: 470000000 cycles: 1319701792 heartbeat IPC: 0.2259 cumulative IPC: 0.2138 (Simulation time: 03 hr 06 min 16 sec)
Heartbeat CPU 0 instructions: 480000001 cycles: 1362445352 heartbeat IPC: 0.234 cumulative IPC: 0.2145 (Simulation time: 03 hr 11 min 27 sec)
Heartbeat CPU 0 instructions: 490000000 cycles: 1402880417 heartbeat IPC: 0.2473 cumulative IPC: 0.2155 (Simulation time: 03 hr 16 min 26 sec)
Heartbeat CPU 0 instructions: 500000000 cycles: 1441828861 heartbeat IPC: 0.2567 cumulative IPC: 0.2166 (Simulation time: 03 hr 21 min 15 sec)
Heartbeat CPU 0 instructions: 510000002 cycles: 1479072516 heartbeat IPC: 0.2685 cumulative IPC: 0.218 (Simulation time: 03 hr 25 min 52 sec)
Heartbeat CPU 0 instructions: 520000004 cycles: 1514922839 heartbeat IPC: 0.2789 cumulative IPC: 0.2195 (Simulation time: 03 hr 30 min 16 sec)
Heartbeat CPU 0 instructions: 530000004 cycles: 1547979745 heartbeat IPC: 0.3025 cumulative IPC: 0.2213 (Simulation time: 03 hr 34 min 23 sec)
Heartbeat CPU 0 instructions: 540000000 cycles: 1580625864 heartbeat IPC: 0.3063 cumulative IPC: 0.2231 (Simulation time: 03 hr 38 min 30 sec)
Heartbeat CPU 0 instructions: 550000003 cycles: 1611316205 heartbeat IPC: 0.3258 cumulative IPC: 0.2252 (Simulation time: 03 hr 42 min 29 sec)
Heartbeat CPU 0 instructions: 560000000 cycles: 1641140743 heartbeat IPC: 0.3353 cumulative IPC: 0.2272 (Simulation time: 03 hr 46 min 15 sec)
Heartbeat CPU 0 instructions: 570000001 cycles: 1669897089 heartbeat IPC: 0.3477 cumulative IPC: 0.2294 (Simulation time: 03 hr 49 min 50 sec)
Heartbeat CPU 0 instructions: 580000004 cycles: 1698318272 heartbeat IPC: 0.3519 cumulative IPC: 0.2315 (Simulation time: 03 hr 53 min 21 sec)
Heartbeat CPU 0 instructions: 590000001 cycles: 1725597125 heartbeat IPC: 0.3666 cumulative IPC: 0.2337 (Simulation time: 03 hr 56 min 48 sec)
Heartbeat CPU 0 instructions: 600000002 cycles: 1752194946 heartbeat IPC: 0.376 cumulative IPC: 0.236 (Simulation time: 04 hr 00 min 16 sec)
Heartbeat CPU 0 instructions: 610000001 cycles: 1777511526 heartbeat IPC: 0.395 cumulative IPC: 0.2383 (Simulation time: 04 hr 03 min 29 sec)
Heartbeat CPU 0 instructions: 620000004 cycles: 1803772583 heartbeat IPC: 0.3808 cumulative IPC: 0.2404 (Simulation time: 04 hr 06 min 47 sec)
Heartbeat CPU 0 instructions: 630000004 cycles: 1829096110 heartbeat IPC: 0.3949 cumulative IPC: 0.2426 (Simulation time: 04 hr 10 min 01 sec)
Heartbeat CPU 0 instructions: 640000004 cycles: 1853417288 heartbeat IPC: 0.4112 cumulative IPC: 0.2449 (Simulation time: 04 hr 13 min 08 sec)
Heartbeat CPU 0 instructions: 650000001 cycles: 1877832515 heartbeat IPC: 0.4096 cumulative IPC: 0.2471 (Simulation time: 04 hr 16 min 17 sec)
Heartbeat CPU 0 instructions: 660000001 cycles: 1901808628 heartbeat IPC: 0.4171 cumulative IPC: 0.2493 (Simulation time: 04 hr 19 min 24 sec)
Heartbeat CPU 0 instructions: 670000000 cycles: 1926269822 heartbeat IPC: 0.4088 cumulative IPC: 0.2514 (Simulation time: 04 hr 22 min 31 sec)
Heartbeat CPU 0 instructions: 680000002 cycles: 1949469245 heartbeat IPC: 0.431 cumulative IPC: 0.2536 (Simulation time: 04 hr 25 min 30 sec)
Heartbeat CPU 0 instructions: 690000004 cycles: 1973229848 heartbeat IPC: 0.4209 cumulative IPC: 0.2557 (Simulation time: 04 hr 28 min 32 sec)
Heartbeat CPU 0 instructions: 700000000 cycles: 1997693299 heartbeat IPC: 0.4088 cumulative IPC: 0.2576 (Simulation time: 04 hr 31 min 42 sec)
Heartbeat CPU 0 instructions: 710000003 cycles: 2021033066 heartbeat IPC: 0.4285 cumulative IPC: 0.2597 (Simulation time: 04 hr 34 min 42 sec)
Heartbeat CPU 0 instructions: 720000004 cycles: 2044114864 heartbeat IPC: 0.4332 cumulative IPC: 0.2617 (Simulation time: 04 hr 37 min 42 sec)
Heartbeat CPU 0 instructions: 730000002 cycles: 2068077620 heartbeat IPC: 0.4173 cumulative IPC: 0.2635 (Simulation time: 04 hr 40 min 44 sec)
Heartbeat CPU 0 instructions: 740000002 cycles: 2090972662 heartbeat IPC: 0.4368 cumulative IPC: 0.2655 (Simulation time: 04 hr 43 min 39 sec)
Heartbeat CPU 0 instructions: 750000002 cycles: 2114097060 heartbeat IPC: 0.4324 cumulative IPC: 0.2674 (Simulation time: 04 hr 46 min 34 sec)
Heartbeat CPU 0 instructions: 760000000 cycles: 2137665026 heartbeat IPC: 0.4243 cumulative IPC: 0.2691 (Simulation time: 04 hr 49 min 33 sec)
Heartbeat CPU 0 instructions: 770000003 cycles: 2160536630 heartbeat IPC: 0.4372 cumulative IPC: 0.271 (Simulation time: 04 hr 52 min 31 sec)
Heartbeat CPU 0 instructions: 780000001 cycles: 2183307207 heartbeat IPC: 0.4392 cumulative IPC: 0.2728 (Simulation time: 04 hr 55 min 28 sec)
Heartbeat CPU 0 instructions: 790000002 cycles: 2207034166 heartbeat IPC: 0.4215 cumulative IPC: 0.2744 (Simulation time: 04 hr 58 min 31 sec)
Heartbeat CPU 0 instructions: 800000004 cycles: 2229371673 heartbeat IPC: 0.4477 cumulative IPC: 0.2762 (Simulation time: 05 hr 01 min 31 sec)
Heartbeat CPU 0 instructions: 810000000 cycles: 2252419040 heartbeat IPC: 0.4339 cumulative IPC: 0.2778 (Simulation time: 05 hr 04 min 44 sec)
Heartbeat CPU 0 instructions: 820000001 cycles: 2276256285 heartbeat IPC: 0.4195 cumulative IPC: 0.2794 (Simulation time: 05 hr 07 min 52 sec)
Heartbeat CPU 0 instructions: 830000003 cycles: 2298504063 heartbeat IPC: 0.4495 cumulative IPC: 0.2811 (Simulation time: 05 hr 10 min 44 sec)
Heartbeat CPU 0 instructions: 840000004 cycles: 2321707158 heartbeat IPC: 0.431 cumulative IPC: 0.2826 (Simulation time: 05 hr 13 min 43 sec)
Heartbeat CPU 0 instructions: 850000001 cycles: 2345172022 heartbeat IPC: 0.4262 cumulative IPC: 0.2841 (Simulation time: 05 hr 16 min 44 sec)
Heartbeat CPU 0 instructions: 860000002 cycles: 2367744648 heartbeat IPC: 0.443 cumulative IPC: 0.2856 (Simulation time: 05 hr 19 min 40 sec)
Heartbeat CPU 0 instructions: 870000004 cycles: 2391099164 heartbeat IPC: 0.4282 cumulative IPC: 0.287 (Simulation time: 05 hr 22 min 39 sec)
Heartbeat CPU 0 instructions: 880000000 cycles: 2414411143 heartbeat IPC: 0.429 cumulative IPC: 0.2884 (Simulation time: 05 hr 25 min 39 sec)
Heartbeat CPU 0 instructions: 890000002 cycles: 2436968509 heartbeat IPC: 0.4433 cumulative IPC: 0.2899 (Simulation time: 05 hr 28 min 33 sec)
Heartbeat CPU 0 instructions: 900000003 cycles: 2460599849 heartbeat IPC: 0.4232 cumulative IPC: 0.2912 (Simulation time: 05 hr 31 min 40 sec)
Heartbeat CPU 0 instructions: 910000000 cycles: 2483208337 heartbeat IPC: 0.4423 cumulative IPC: 0.2926 (Simulation time: 05 hr 34 min 48 sec)
Heartbeat CPU 0 instructions: 920000001 cycles: 2506221127 heartbeat IPC: 0.4345 cumulative IPC: 0.294 (Simulation time: 05 hr 37 min 53 sec)
Heartbeat CPU 0 instructions: 930000000 cycles: 2529555665 heartbeat IPC: 0.4285 cumulative IPC: 0.2952 (Simulation time: 05 hr 41 min 00 sec)
Heartbeat CPU 0 instructions: 940000003 cycles: 2556649203 heartbeat IPC: 0.3691 cumulative IPC: 0.296 (Simulation time: 05 hr 44 min 38 sec)
Heartbeat CPU 0 instructions: 950000004 cycles: 2622687989 heartbeat IPC: 0.1514 cumulative IPC: 0.2923 (Simulation time: 05 hr 52 min 35 sec)
Heartbeat CPU 0 instructions: 960000001 cycles: 2673558007 heartbeat IPC: 0.1966 cumulative IPC: 0.2905 (Simulation time: 05 hr 58 min 42 sec)
Heartbeat CPU 0 instructions: 970000004 cycles: 2701302643 heartbeat IPC: 0.3604 cumulative IPC: 0.2912 (Simulation time: 06 hr 02 min 11 sec)
Heartbeat CPU 0 instructions: 980000002 cycles: 2723492032 heartbeat IPC: 0.4507 cumulative IPC: 0.2925 (Simulation time: 06 hr 05 min 07 sec)
Heartbeat CPU 0 instructions: 990000004 cycles: 2746759962 heartbeat IPC: 0.4298 cumulative IPC: 0.2937 (Simulation time: 06 hr 08 min 17 sec)
Heartbeat CPU 0 instructions: 1000000001 cycles: 2770057046 heartbeat IPC: 0.4292 cumulative IPC: 0.2949 (Simulation time: 06 hr 11 min 19 sec)
Heartbeat CPU 0 instructions: 1010000000 cycles: 2792745229 heartbeat IPC: 0.4408 cumulative IPC: 0.2961 (Simulation time: 06 hr 14 min 15 sec)
Heartbeat CPU 0 instructions: 1020000001 cycles: 2815520813 heartbeat IPC: 0.4391 cumulative IPC: 0.2973 (Simulation time: 06 hr 17 min 13 sec)
Heartbeat CPU 0 instructions: 1030000000 cycles: 2839265875 heartbeat IPC: 0.4211 cumulative IPC: 0.2983 (Simulation time: 06 hr 20 min 16 sec)
Heartbeat CPU 0 instructions: 1040000002 cycles: 2862076209 heartbeat IPC: 0.4384 cumulative IPC: 0.2995 (Simulation time: 06 hr 23 min 13 sec)
Heartbeat CPU 0 instructions: 1050000000 cycles: 2885088596 heartbeat IPC: 0.4345 cumulative IPC: 0.3006 (Simulation time: 06 hr 26 min 10 sec)
Heartbeat CPU 0 instructions: 1060000004 cycles: 2908153029 heartbeat IPC: 0.4336 cumulative IPC: 0.3016 (Simulation time: 06 hr 29 min 08 sec)
Heartbeat CPU 0 instructions: 1070000003 cycles: 2931461388 heartbeat IPC: 0.429 cumulative IPC: 0.3027 (Simulation time: 06 hr 32 min 08 sec)
Heartbeat CPU 0 instructions: 1080000001 cycles: 2954434072 heartbeat IPC: 0.4353 cumulative IPC: 0.3037 (Simulation time: 06 hr 35 min 06 sec)
Heartbeat CPU 0 instructions: 1090000004 cycles: 2977359780 heartbeat IPC: 0.4362 cumulative IPC: 0.3048 (Simulation time: 06 hr 38 min 04 sec)
Heartbeat CPU 0 instructions: 1100000000 cycles: 3000718006 heartbeat IPC: 0.4281 cumulative IPC: 0.3057 (Simulation time: 06 hr 41 min 05 sec)
Heartbeat CPU 0 instructions: 1110000001 cycles: 3023910341 heartbeat IPC: 0.4312 cumulative IPC: 0.3067 (Simulation time: 06 hr 44 min 03 sec)
Heartbeat CPU 0 instructions: 1120000001 cycles: 3047234575 heartbeat IPC: 0.4287 cumulative IPC: 0.3077 (Simulation time: 06 hr 47 min 01 sec)
Heartbeat CPU 0 instructions: 1130000000 cycles: 3072230919 heartbeat IPC: 0.4001 cumulative IPC: 0.3084 (Simulation time: 06 hr 50 min 10 sec)
Heartbeat CPU 0 instructions: 1140000004 cycles: 3100138679 heartbeat IPC: 0.3583 cumulative IPC: 0.3089 (Simulation time: 06 hr 53 min 40 sec)
Heartbeat CPU 0 instructions: 1150000004 cycles: 3131770560 heartbeat IPC: 0.3161 cumulative IPC: 0.309 (Simulation time: 06 hr 57 min 36 sec)
Heartbeat CPU 0 instructions: 1160000002 cycles: 3167038059 heartbeat IPC: 0.2835 cumulative IPC: 0.3087 (Simulation time: 07 hr 01 min 59 sec)
Heartbeat CPU 0 instructions: 1170000000 cycles: 3211291822 heartbeat IPC: 0.226 cumulative IPC: 0.3075 (Simulation time: 07 hr 07 min 24 sec)
Heartbeat CPU 0 instructions: 1180000001 cycles: 3264998865 heartbeat IPC: 0.1862 cumulative IPC: 0.3055 (Simulation time: 07 hr 14 min 10 sec)
Heartbeat CPU 0 instructions: 1190000000 cycles: 3322390967 heartbeat IPC: 0.1742 cumulative IPC: 0.3032 (Simulation time: 07 hr 21 min 09 sec)
Heartbeat CPU 0 instructions: 1200000000 cycles: 3386084464 heartbeat IPC: 0.157 cumulative IPC: 0.3004 (Simulation time: 07 hr 28 min 51 sec)
Simulation finished CPU 0 instructions: 1000000001 cycles: 3329133994 cumulative IPC: 0.3004 (Simulation time: 07 hr 28 min 51 sec)
Simulation complete CPU 0 instructions: 1000000001 cycles: 3329133994 cumulative IPC: 0.3004 (Simulation time: 07 hr 28 min 51 sec)

ChampSim completed all CPUs

=== Simulation ===
CPU 0 runs /home/faculty/p/pgratz/dpc3_traces/619.lbm_s-4268B.champsimtrace.xz
Region of Interest Statistics

CPU 0 cumulative IPC: 0.3004 instructions: 1000000001 cycles: 3329133994
CPU 0 Branch Prediction Accuracy: 98.43% MPKI: 0.2193 Average ROB Occupancy at Mispredict: 248.4
Branch type MPKI
BRANCH_DIRECT_JUMP: 3e-06
BRANCH_INDIRECT: 0
BRANCH_CONDITIONAL: 0.219
BRANCH_DIRECT_CALL: 2e-06
BRANCH_INDIRECT_CALL: 0
BRANCH_RETURN: 2e-06

LLC TOTAL        ACCESS:   59417490 HIT:   26920482 MISS:   32497008
LLC LOAD         ACCESS:    8123299 HIT:         71 MISS:    8123228
LLC RFO          ACCESS:   25644601 HIT:    1274602 MISS:   24369999
LLC PREFETCH     ACCESS:          0 HIT:          0 MISS:          0
LLC WRITE        ACCESS:   25645896 HIT:   25645784 MISS:        112
LLC TRANSLATION  ACCESS:       3694 HIT:         25 MISS:       3669
LLC PREFETCH REQUESTED:          0 ISSUED:          0 USEFUL:          0 USELESS:          0
LLC AVERAGE MISS LATENCY: 1516 cycles
cpu0_DTLB TOTAL        ACCESS:  143184825 HIT:  141906457 MISS:    1278368
cpu0_DTLB LOAD         ACCESS:  143184825 HIT:  141906457 MISS:    1278368
cpu0_DTLB RFO          ACCESS:          0 HIT:          0 MISS:          0
cpu0_DTLB PREFETCH     ACCESS:          0 HIT:          0 MISS:          0
cpu0_DTLB WRITE        ACCESS:          0 HIT:          0 MISS:          0
cpu0_DTLB TRANSLATION  ACCESS:          0 HIT:          0 MISS:          0
cpu0_DTLB PREFETCH REQUESTED:          0 ISSUED:          0 USEFUL:          0 USELESS:          0
cpu0_DTLB AVERAGE MISS LATENCY: 71.35 cycles
cpu0_ITLB TOTAL        ACCESS:          9 HIT:          8 MISS:          1
cpu0_ITLB LOAD         ACCESS:          9 HIT:          8 MISS:          1
cpu0_ITLB RFO          ACCESS:          0 HIT:          0 MISS:          0
cpu0_ITLB PREFETCH     ACCESS:          0 HIT:          0 MISS:          0
cpu0_ITLB WRITE        ACCESS:          0 HIT:          0 MISS:          0
cpu0_ITLB TRANSLATION  ACCESS:          0 HIT:          0 MISS:          0
cpu0_ITLB PREFETCH REQUESTED:          0 ISSUED:          0 USEFUL:          0 USELESS:          0
cpu0_ITLB AVERAGE MISS LATENCY: 534 cycles
cpu0_L1D TOTAL        ACCESS:  198812580 HIT:  135799699 MISS:   63012881
cpu0_L1D LOAD         ACCESS:   34536804 HIT:   20633256 MISS:   13903548
cpu0_L1D RFO          ACCESS:          0 HIT:          0 MISS:          0
cpu0_L1D PREFETCH     ACCESS:          0 HIT:          0 MISS:          0
cpu0_L1D WRITE        ACCESS:  163767373 HIT:  115166189 MISS:   48601184
cpu0_L1D TRANSLATION  ACCESS:     508403 HIT:        254 MISS:     508149
cpu0_L1D PREFETCH REQUESTED:          0 ISSUED:          0 USEFUL:          0 USELESS:          0
cpu0_L1D AVERAGE MISS LATENCY: 739.8 cycles
cpu0_L1I TOTAL        ACCESS:          9 HIT:          6 MISS:          3
cpu0_L1I LOAD         ACCESS:          9 HIT:          6 MISS:          3
cpu0_L1I RFO          ACCESS:          0 HIT:          0 MISS:          0
cpu0_L1I PREFETCH     ACCESS:          0 HIT:          0 MISS:          0
cpu0_L1I WRITE        ACCESS:          0 HIT:          0 MISS:          0
cpu0_L1I TRANSLATION  ACCESS:          0 HIT:          0 MISS:          0
cpu0_L1I PREFETCH REQUESTED:          0 ISSUED:          0 USEFUL:          0 USELESS:          0
cpu0_L1I AVERAGE MISS LATENCY: 197.3 cycles
cpu0_L2C TOTAL        ACCESS:  100406497 HIT:   66634903 MISS:   33771594
cpu0_L2C LOAD         ACCESS:    8123457 HIT:        158 MISS:    8123299
cpu0_L2C RFO          ACCESS:   45886248 HIT:   20241647 MISS:   25644601
cpu0_L2C PREFETCH     ACCESS:          0 HIT:          0 MISS:          0
cpu0_L2C WRITE        ACCESS:   45888651 HIT:   45888651 MISS:          0
cpu0_L2C TRANSLATION  ACCESS:     508141 HIT:     504447 MISS:       3694
cpu0_L2C PREFETCH REQUESTED:          0 ISSUED:          0 USEFUL:          0 USELESS:          0
cpu0_L2C AVERAGE MISS LATENCY: 1480 cycles
cpu0_STLB TOTAL        ACCESS:     934783 HIT:     426895 MISS:     507888
cpu0_STLB LOAD         ACCESS:     934783 HIT:     426895 MISS:     507888
cpu0_STLB RFO          ACCESS:          0 HIT:          0 MISS:          0
cpu0_STLB PREFETCH     ACCESS:          0 HIT:          0 MISS:          0
cpu0_STLB WRITE        ACCESS:          0 HIT:          0 MISS:          0
cpu0_STLB TRANSLATION  ACCESS:          0 HIT:          0 MISS:          0
cpu0_STLB PREFETCH REQUESTED:          0 ISSUED:          0 USEFUL:          0 USELESS:          0
cpu0_STLB AVERAGE MISS LATENCY: 190 cycles

DRAM Statistics

Channel 0 RQ ROW_BUFFER_HIT:    1469592
  ROW_BUFFER_MISS:   31027304
 AVG DBUS CONGESTED CYCLE: 3.998
WQ ROW_BUFFER_HIT: Channel 0 
  ROW_BUFFER_MISS:    1254509
  FULL:   23113287
