WARNING: physical memory size is smaller than virtual memory size.
WARNING: option --warmup_instructions is deprecated. Use --warmup-instructions instead.
WARNING: option --simulation_instructions is deprecated. Use --simulation-instructions instead.

*** ChampSim Multicore Out-of-Order Simulator ***
Warmup Instructions: 200000000
Simulation Instructions: 1000000000
Number of CPUs: 1
Page size: 4096

Off-chip DRAM Size: 4 GiB Channels: 1 Width: 64-bit Data Race: 3200 MT/s
Heartbeat CPU 0 instructions: 10000002 cycles: 2982483 heartbeat IPC: 3.353 cumulative IPC: 3.353 (Simulation time: 00 hr 01 min 01 sec)
Heartbeat CPU 0 instructions: 20000004 cycles: 5965848 heartbeat IPC: 3.352 cumulative IPC: 3.352 (Simulation time: 00 hr 02 min 02 sec)
Heartbeat CPU 0 instructions: 30000004 cycles: 8955873 heartbeat IPC: 3.344 cumulative IPC: 3.35 (Simulation time: 00 hr 03 min 04 sec)
Heartbeat CPU 0 instructions: 40000004 cycles: 11945926 heartbeat IPC: 3.344 cumulative IPC: 3.348 (Simulation time: 00 hr 04 min 06 sec)
Heartbeat CPU 0 instructions: 50000003 cycles: 14929949 heartbeat IPC: 3.351 cumulative IPC: 3.349 (Simulation time: 00 hr 05 min 07 sec)
Heartbeat CPU 0 instructions: 60000003 cycles: 17919711 heartbeat IPC: 3.345 cumulative IPC: 3.348 (Simulation time: 00 hr 06 min 09 sec)
Heartbeat CPU 0 instructions: 70000004 cycles: 20898060 heartbeat IPC: 3.358 cumulative IPC: 3.35 (Simulation time: 00 hr 07 min 11 sec)
Heartbeat CPU 0 instructions: 80000003 cycles: 23879451 heartbeat IPC: 3.354 cumulative IPC: 3.35 (Simulation time: 00 hr 08 min 12 sec)
Heartbeat CPU 0 instructions: 90000001 cycles: 26859105 heartbeat IPC: 3.356 cumulative IPC: 3.351 (Simulation time: 00 hr 09 min 13 sec)
Heartbeat CPU 0 instructions: 100000000 cycles: 29845575 heartbeat IPC: 3.348 cumulative IPC: 3.351 (Simulation time: 00 hr 10 min 16 sec)
Heartbeat CPU 0 instructions: 110000000 cycles: 32827686 heartbeat IPC: 3.353 cumulative IPC: 3.351 (Simulation time: 00 hr 11 min 18 sec)
Heartbeat CPU 0 instructions: 120000000 cycles: 35807039 heartbeat IPC: 3.356 cumulative IPC: 3.351 (Simulation time: 00 hr 12 min 20 sec)
Heartbeat CPU 0 instructions: 130000000 cycles: 38783950 heartbeat IPC: 3.359 cumulative IPC: 3.352 (Simulation time: 00 hr 13 min 22 sec)
Heartbeat CPU 0 instructions: 140000003 cycles: 41770878 heartbeat IPC: 3.348 cumulative IPC: 3.352 (Simulation time: 00 hr 14 min 24 sec)
Heartbeat CPU 0 instructions: 150000003 cycles: 44753465 heartbeat IPC: 3.353 cumulative IPC: 3.352 (Simulation time: 00 hr 15 min 27 sec)
Heartbeat CPU 0 instructions: 160000000 cycles: 47744925 heartbeat IPC: 3.343 cumulative IPC: 3.351 (Simulation time: 00 hr 16 min 30 sec)
Heartbeat CPU 0 instructions: 170000001 cycles: 50724560 heartbeat IPC: 3.356 cumulative IPC: 3.351 (Simulation time: 00 hr 17 min 33 sec)
Heartbeat CPU 0 instructions: 180000002 cycles: 53707458 heartbeat IPC: 3.352 cumulative IPC: 3.351 (Simulation time: 00 hr 18 min 34 sec)
Heartbeat CPU 0 instructions: 190000004 cycles: 56689425 heartbeat IPC: 3.353 cumulative IPC: 3.352 (Simulation time: 00 hr 19 min 36 sec)
Heartbeat CPU 0 instructions: 200000000 cycles: 59668930 heartbeat IPC: 3.356 cumulative IPC: 3.352 (Simulation time: 00 hr 20 min 39 sec)
Warmup finished CPU 0 instructions: 200000000 cycles: 59668931 cumulative IPC: 3.352 (Simulation time: 00 hr 20 min 39 sec)
Warmup complete CPU 0 instructions: 200000000 cycles: 59668931 cumulative IPC: 3.352 (Simulation time: 00 hr 20 min 39 sec)
Heartbeat CPU 0 instructions: 210000004 cycles: 76505968 heartbeat IPC: 0.5939 cumulative IPC: 0.5939 (Simulation time: 00 hr 23 min 10 sec)
Heartbeat CPU 0 instructions: 220000004 cycles: 93272494 heartbeat IPC: 0.5964 cumulative IPC: 0.5952 (Simulation time: 00 hr 25 min 40 sec)
Heartbeat CPU 0 instructions: 230000004 cycles: 110119558 heartbeat IPC: 0.5936 cumulative IPC: 0.5946 (Simulation time: 00 hr 28 min 09 sec)
Heartbeat CPU 0 instructions: 240000000 cycles: 126978835 heartbeat IPC: 0.5931 cumulative IPC: 0.5943 (Simulation time: 00 hr 30 min 40 sec)
Heartbeat CPU 0 instructions: 250000004 cycles: 143884699 heartbeat IPC: 0.5915 cumulative IPC: 0.5937 (Simulation time: 00 hr 33 min 09 sec)
Heartbeat CPU 0 instructions: 260000000 cycles: 160766933 heartbeat IPC: 0.5923 cumulative IPC: 0.5935 (Simulation time: 00 hr 35 min 39 sec)
Heartbeat CPU 0 instructions: 270000001 cycles: 177854496 heartbeat IPC: 0.5852 cumulative IPC: 0.5923 (Simulation time: 00 hr 38 min 10 sec)
Heartbeat CPU 0 instructions: 280000000 cycles: 194904652 heartbeat IPC: 0.5865 cumulative IPC: 0.5916 (Simulation time: 00 hr 40 min 40 sec)
Heartbeat CPU 0 instructions: 290000003 cycles: 212219011 heartbeat IPC: 0.5776 cumulative IPC: 0.59 (Simulation time: 00 hr 43 min 12 sec)
Heartbeat CPU 0 instructions: 300000002 cycles: 229130006 heartbeat IPC: 0.5913 cumulative IPC: 0.5901 (Simulation time: 00 hr 45 min 40 sec)
Heartbeat CPU 0 instructions: 310000000 cycles: 245964173 heartbeat IPC: 0.594 cumulative IPC: 0.5905 (Simulation time: 00 hr 48 min 07 sec)
Heartbeat CPU 0 instructions: 320000000 cycles: 262981876 heartbeat IPC: 0.5876 cumulative IPC: 0.5902 (Simulation time: 00 hr 50 min 37 sec)
Heartbeat CPU 0 instructions: 330000002 cycles: 279742468 heartbeat IPC: 0.5966 cumulative IPC: 0.5907 (Simulation time: 00 hr 53 min 07 sec)
Heartbeat CPU 0 instructions: 340000000 cycles: 296756832 heartbeat IPC: 0.5877 cumulative IPC: 0.5905 (Simulation time: 00 hr 55 min 38 sec)
Heartbeat CPU 0 instructions: 350000000 cycles: 314166601 heartbeat IPC: 0.5744 cumulative IPC: 0.5894 (Simulation time: 00 hr 58 min 12 sec)
Heartbeat CPU 0 instructions: 360000003 cycles: 331283759 heartbeat IPC: 0.5842 cumulative IPC: 0.5891 (Simulation time: 01 hr 00 min 44 sec)
Heartbeat CPU 0 instructions: 370000001 cycles: 348404158 heartbeat IPC: 0.5841 cumulative IPC: 0.5888 (Simulation time: 01 hr 03 min 15 sec)
Heartbeat CPU 0 instructions: 380000002 cycles: 365365929 heartbeat IPC: 0.5896 cumulative IPC: 0.5888 (Simulation time: 01 hr 05 min 45 sec)
Heartbeat CPU 0 instructions: 390000002 cycles: 381799745 heartbeat IPC: 0.6085 cumulative IPC: 0.5898 (Simulation time: 01 hr 08 min 12 sec)
Heartbeat CPU 0 instructions: 400000001 cycles: 399243742 heartbeat IPC: 0.5733 cumulative IPC: 0.589 (Simulation time: 01 hr 10 min 46 sec)
Heartbeat CPU 0 instructions: 410000000 cycles: 416438713 heartbeat IPC: 0.5816 cumulative IPC: 0.5886 (Simulation time: 01 hr 13 min 18 sec)
Heartbeat CPU 0 instructions: 420000002 cycles: 433206873 heartbeat IPC: 0.5964 cumulative IPC: 0.589 (Simulation time: 01 hr 15 min 47 sec)
Heartbeat CPU 0 instructions: 430000001 cycles: 450050097 heartbeat IPC: 0.5937 cumulative IPC: 0.5892 (Simulation time: 01 hr 18 min 17 sec)
Heartbeat CPU 0 instructions: 440000001 cycles: 466729679 heartbeat IPC: 0.5995 cumulative IPC: 0.5896 (Simulation time: 01 hr 20 min 45 sec)
Heartbeat CPU 0 instructions: 450000001 cycles: 483558375 heartbeat IPC: 0.5942 cumulative IPC: 0.5898 (Simulation time: 01 hr 23 min 14 sec)
Heartbeat CPU 0 instructions: 460000003 cycles: 500016580 heartbeat IPC: 0.6076 cumulative IPC: 0.5904 (Simulation time: 01 hr 25 min 41 sec)
Heartbeat CPU 0 instructions: 470000000 cycles: 516996968 heartbeat IPC: 0.5889 cumulative IPC: 0.5904 (Simulation time: 01 hr 28 min 11 sec)
Heartbeat CPU 0 instructions: 480000002 cycles: 533789324 heartbeat IPC: 0.5955 cumulative IPC: 0.5906 (Simulation time: 01 hr 30 min 40 sec)
Heartbeat CPU 0 instructions: 490000001 cycles: 550462740 heartbeat IPC: 0.5998 cumulative IPC: 0.5909 (Simulation time: 01 hr 33 min 08 sec)
Heartbeat CPU 0 instructions: 500000004 cycles: 567035634 heartbeat IPC: 0.6034 cumulative IPC: 0.5913 (Simulation time: 01 hr 35 min 35 sec)
Heartbeat CPU 0 instructions: 510000000 cycles: 583834004 heartbeat IPC: 0.5953 cumulative IPC: 0.5914 (Simulation time: 01 hr 38 min 03 sec)
Heartbeat CPU 0 instructions: 520000001 cycles: 600385498 heartbeat IPC: 0.6042 cumulative IPC: 0.5918 (Simulation time: 01 hr 40 min 31 sec)
Heartbeat CPU 0 instructions: 530000002 cycles: 617446548 heartbeat IPC: 0.5861 cumulative IPC: 0.5916 (Simulation time: 01 hr 43 min 02 sec)
Heartbeat CPU 0 instructions: 540000001 cycles: 633685919 heartbeat IPC: 0.6158 cumulative IPC: 0.5923 (Simulation time: 01 hr 45 min 27 sec)
Heartbeat CPU 0 instructions: 550000002 cycles: 650843834 heartbeat IPC: 0.5828 cumulative IPC: 0.592 (Simulation time: 01 hr 47 min 57 sec)
Heartbeat CPU 0 instructions: 560000001 cycles: 667954819 heartbeat IPC: 0.5844 cumulative IPC: 0.5918 (Simulation time: 01 hr 50 min 28 sec)
Heartbeat CPU 0 instructions: 570000004 cycles: 684688406 heartbeat IPC: 0.5976 cumulative IPC: 0.592 (Simulation time: 01 hr 52 min 55 sec)
Heartbeat CPU 0 instructions: 580000000 cycles: 701216068 heartbeat IPC: 0.605 cumulative IPC: 0.5923 (Simulation time: 01 hr 55 min 22 sec)
Heartbeat CPU 0 instructions: 590000003 cycles: 718200117 heartbeat IPC: 0.5888 cumulative IPC: 0.5922 (Simulation time: 01 hr 57 min 52 sec)
Heartbeat CPU 0 instructions: 600000000 cycles: 734919544 heartbeat IPC: 0.5981 cumulative IPC: 0.5924 (Simulation time: 02 hr 00 min 19 sec)
Heartbeat CPU 0 instructions: 610000000 cycles: 751743583 heartbeat IPC: 0.5944 cumulative IPC: 0.5924 (Simulation time: 02 hr 02 min 47 sec)
Heartbeat CPU 0 instructions: 620000003 cycles: 769046891 heartbeat IPC: 0.5779 cumulative IPC: 0.5921 (Simulation time: 02 hr 05 min 20 sec)
Heartbeat CPU 0 instructions: 630000003 cycles: 785971001 heartbeat IPC: 0.5909 cumulative IPC: 0.592 (Simulation time: 02 hr 07 min 49 sec)
Heartbeat CPU 0 instructions: 640000004 cycles: 802966058 heartbeat IPC: 0.5884 cumulative IPC: 0.592 (Simulation time: 02 hr 10 min 20 sec)
Heartbeat CPU 0 instructions: 650000000 cycles: 819960973 heartbeat IPC: 0.5884 cumulative IPC: 0.5919 (Simulation time: 02 hr 12 min 51 sec)
Heartbeat CPU 0 instructions: 660000004 cycles: 836962797 heartbeat IPC: 0.5882 cumulative IPC: 0.5918 (Simulation time: 02 hr 15 min 23 sec)
Heartbeat CPU 0 instructions: 670000004 cycles: 854159301 heartbeat IPC: 0.5815 cumulative IPC: 0.5916 (Simulation time: 02 hr 17 min 54 sec)
Heartbeat CPU 0 instructions: 680000002 cycles: 870512063 heartbeat IPC: 0.6115 cumulative IPC: 0.592 (Simulation time: 02 hr 20 min 21 sec)
Heartbeat CPU 0 instructions: 690000002 cycles: 887538582 heartbeat IPC: 0.5873 cumulative IPC: 0.5919 (Simulation time: 02 hr 22 min 51 sec)
Heartbeat CPU 0 instructions: 700000000 cycles: 904041054 heartbeat IPC: 0.606 cumulative IPC: 0.5922 (Simulation time: 02 hr 25 min 17 sec)
Heartbeat CPU 0 instructions: 710000003 cycles: 920627635 heartbeat IPC: 0.6029 cumulative IPC: 0.5924 (Simulation time: 02 hr 27 min 44 sec)
Heartbeat CPU 0 instructions: 720000004 cycles: 937418587 heartbeat IPC: 0.5956 cumulative IPC: 0.5924 (Simulation time: 02 hr 30 min 15 sec)
Heartbeat CPU 0 instructions: 730000000 cycles: 954420990 heartbeat IPC: 0.5882 cumulative IPC: 0.5923 (Simulation time: 02 hr 32 min 44 sec)
Heartbeat CPU 0 instructions: 740000003 cycles: 971151701 heartbeat IPC: 0.5977 cumulative IPC: 0.5924 (Simulation time: 02 hr 35 min 13 sec)
Heartbeat CPU 0 instructions: 750000002 cycles: 987861988 heartbeat IPC: 0.5984 cumulative IPC: 0.5925 (Simulation time: 02 hr 37 min 42 sec)
Heartbeat CPU 0 instructions: 760000000 cycles: 1004579176 heartbeat IPC: 0.5982 cumulative IPC: 0.5926 (Simulation time: 02 hr 40 min 10 sec)
Heartbeat CPU 0 instructions: 770000002 cycles: 1022324657 heartbeat IPC: 0.5635 cumulative IPC: 0.5921 (Simulation time: 02 hr 42 min 45 sec)
Heartbeat CPU 0 instructions: 780000000 cycles: 1039687473 heartbeat IPC: 0.5759 cumulative IPC: 0.5918 (Simulation time: 02 hr 45 min 18 sec)
Heartbeat CPU 0 instructions: 790000003 cycles: 1057981352 heartbeat IPC: 0.5466 cumulative IPC: 0.591 (Simulation time: 02 hr 47 min 59 sec)
Heartbeat CPU 0 instructions: 800000002 cycles: 1075207433 heartbeat IPC: 0.5805 cumulative IPC: 0.5908 (Simulation time: 02 hr 50 min 30 sec)
Heartbeat CPU 0 instructions: 810000001 cycles: 1092690391 heartbeat IPC: 0.572 cumulative IPC: 0.5905 (Simulation time: 02 hr 53 min 04 sec)
Heartbeat CPU 0 instructions: 820000004 cycles: 1109889771 heartbeat IPC: 0.5814 cumulative IPC: 0.5904 (Simulation time: 02 hr 55 min 35 sec)
Heartbeat CPU 0 instructions: 830000000 cycles: 1127631088 heartbeat IPC: 0.5637 cumulative IPC: 0.5899 (Simulation time: 02 hr 58 min 10 sec)
Heartbeat CPU 0 instructions: 840000004 cycles: 1145458835 heartbeat IPC: 0.5609 cumulative IPC: 0.5894 (Simulation time: 03 hr 00 min 45 sec)
Heartbeat CPU 0 instructions: 850000000 cycles: 1162902637 heartbeat IPC: 0.5733 cumulative IPC: 0.5892 (Simulation time: 03 hr 03 min 18 sec)
Heartbeat CPU 0 instructions: 860000000 cycles: 1180464433 heartbeat IPC: 0.5694 cumulative IPC: 0.5889 (Simulation time: 03 hr 05 min 52 sec)
Heartbeat CPU 0 instructions: 870000000 cycles: 1198553813 heartbeat IPC: 0.5528 cumulative IPC: 0.5883 (Simulation time: 03 hr 08 min 29 sec)
Heartbeat CPU 0 instructions: 880000000 cycles: 1215557727 heartbeat IPC: 0.5881 cumulative IPC: 0.5883 (Simulation time: 03 hr 10 min 58 sec)
Heartbeat CPU 0 instructions: 890000000 cycles: 1233079634 heartbeat IPC: 0.5707 cumulative IPC: 0.588 (Simulation time: 03 hr 13 min 31 sec)
Heartbeat CPU 0 instructions: 900000002 cycles: 1250402297 heartbeat IPC: 0.5773 cumulative IPC: 0.5879 (Simulation time: 03 hr 16 min 03 sec)
Heartbeat CPU 0 instructions: 910000004 cycles: 1267888451 heartbeat IPC: 0.5719 cumulative IPC: 0.5876 (Simulation time: 03 hr 18 min 36 sec)
Heartbeat CPU 0 instructions: 920000000 cycles: 1285580338 heartbeat IPC: 0.5652 cumulative IPC: 0.5873 (Simulation time: 03 hr 21 min 10 sec)
Heartbeat CPU 0 instructions: 930000004 cycles: 1303084436 heartbeat IPC: 0.5713 cumulative IPC: 0.5871 (Simulation time: 03 hr 23 min 44 sec)
Heartbeat CPU 0 instructions: 940000001 cycles: 1320255180 heartbeat IPC: 0.5824 cumulative IPC: 0.587 (Simulation time: 03 hr 26 min 14 sec)
Heartbeat CPU 0 instructions: 950000001 cycles: 1337657339 heartbeat IPC: 0.5746 cumulative IPC: 0.5869 (Simulation time: 03 hr 28 min 47 sec)
Heartbeat CPU 0 instructions: 960000002 cycles: 1354765533 heartbeat IPC: 0.5845 cumulative IPC: 0.5868 (Simulation time: 03 hr 31 min 17 sec)
Heartbeat CPU 0 instructions: 970000000 cycles: 1372186416 heartbeat IPC: 0.574 cumulative IPC: 0.5867 (Simulation time: 03 hr 33 min 49 sec)
Heartbeat CPU 0 instructions: 980000002 cycles: 1389519731 heartbeat IPC: 0.5769 cumulative IPC: 0.5865 (Simulation time: 03 hr 36 min 21 sec)
Heartbeat CPU 0 instructions: 990000004 cycles: 1406396937 heartbeat IPC: 0.5925 cumulative IPC: 0.5866 (Simulation time: 03 hr 38 min 51 sec)
Heartbeat CPU 0 instructions: 1000000001 cycles: 1423817577 heartbeat IPC: 0.574 cumulative IPC: 0.5864 (Simulation time: 03 hr 41 min 23 sec)
Heartbeat CPU 0 instructions: 1010000004 cycles: 1441270681 heartbeat IPC: 0.573 cumulative IPC: 0.5863 (Simulation time: 03 hr 43 min 55 sec)
Heartbeat CPU 0 instructions: 1020000003 cycles: 1458591605 heartbeat IPC: 0.5773 cumulative IPC: 0.5862 (Simulation time: 03 hr 46 min 27 sec)
Heartbeat CPU 0 instructions: 1030000002 cycles: 1476619085 heartbeat IPC: 0.5547 cumulative IPC: 0.5858 (Simulation time: 03 hr 49 min 04 sec)
Heartbeat CPU 0 instructions: 1040000002 cycles: 1494207230 heartbeat IPC: 0.5686 cumulative IPC: 0.5856 (Simulation time: 03 hr 51 min 38 sec)
Heartbeat CPU 0 instructions: 1050000002 cycles: 1511866196 heartbeat IPC: 0.5663 cumulative IPC: 0.5853 (Simulation time: 03 hr 54 min 11 sec)
Heartbeat CPU 0 instructions: 1060000000 cycles: 1529498520 heartbeat IPC: 0.5671 cumulative IPC: 0.5851 (Simulation time: 03 hr 56 min 46 sec)
Heartbeat CPU 0 instructions: 1070000002 cycles: 1547330192 heartbeat IPC: 0.5608 cumulative IPC: 0.5848 (Simulation time: 03 hr 59 min 22 sec)
Heartbeat CPU 0 instructions: 1080000000 cycles: 1564899176 heartbeat IPC: 0.5692 cumulative IPC: 0.5846 (Simulation time: 04 hr 01 min 56 sec)
Heartbeat CPU 0 instructions: 1090000003 cycles: 1581925196 heartbeat IPC: 0.5873 cumulative IPC: 0.5847 (Simulation time: 04 hr 04 min 27 sec)
Heartbeat CPU 0 instructions: 1100000001 cycles: 1599061771 heartbeat IPC: 0.5835 cumulative IPC: 0.5846 (Simulation time: 04 hr 06 min 58 sec)
Heartbeat CPU 0 instructions: 1110000000 cycles: 1616296293 heartbeat IPC: 0.5802 cumulative IPC: 0.5846 (Simulation time: 04 hr 09 min 30 sec)
Heartbeat CPU 0 instructions: 1120000000 cycles: 1633028340 heartbeat IPC: 0.5977 cumulative IPC: 0.5847 (Simulation time: 04 hr 12 min 00 sec)
Heartbeat CPU 0 instructions: 1130000002 cycles: 1650748372 heartbeat IPC: 0.5643 cumulative IPC: 0.5845 (Simulation time: 04 hr 14 min 34 sec)
Heartbeat CPU 0 instructions: 1140000000 cycles: 1667468161 heartbeat IPC: 0.5981 cumulative IPC: 0.5847 (Simulation time: 04 hr 17 min 04 sec)
Heartbeat CPU 0 instructions: 1150000002 cycles: 1684715011 heartbeat IPC: 0.5798 cumulative IPC: 0.5846 (Simulation time: 04 hr 19 min 35 sec)
Heartbeat CPU 0 instructions: 1160000004 cycles: 1701928071 heartbeat IPC: 0.581 cumulative IPC: 0.5846 (Simulation time: 04 hr 22 min 07 sec)
Heartbeat CPU 0 instructions: 1170000003 cycles: 1718741524 heartbeat IPC: 0.5948 cumulative IPC: 0.5847 (Simulation time: 04 hr 24 min 35 sec)
Heartbeat CPU 0 instructions: 1180000000 cycles: 1735697737 heartbeat IPC: 0.5898 cumulative IPC: 0.5847 (Simulation time: 04 hr 27 min 05 sec)
Heartbeat CPU 0 instructions: 1190000003 cycles: 1752322952 heartbeat IPC: 0.6015 cumulative IPC: 0.5849 (Simulation time: 04 hr 29 min 34 sec)
Heartbeat CPU 0 instructions: 1200000000 cycles: 1769294321 heartbeat IPC: 0.5892 cumulative IPC: 0.5849 (Simulation time: 04 hr 32 min 05 sec)
Simulation finished CPU 0 instructions: 1000000000 cycles: 1709625391 cumulative IPC: 0.5849 (Simulation time: 04 hr 32 min 05 sec)
Simulation complete CPU 0 instructions: 1000000000 cycles: 1709625391 cumulative IPC: 0.5849 (Simulation time: 04 hr 32 min 05 sec)

ChampSim completed all CPUs

=== Simulation ===
CPU 0 runs /home/faculty/p/pgratz/dpc3_traces/620.omnetpp_s-874B.champsimtrace.xz
Region of Interest Statistics

CPU 0 cumulative IPC: 0.5849 instructions: 1000000000 cycles: 1709625391
CPU 0 Branch Prediction Accuracy: 94.79% MPKI: 10.84 Average ROB Occupancy at Mispredict: 82.56
Branch type MPKI
BRANCH_DIRECT_JUMP: 0.927
BRANCH_INDIRECT: 0.124
BRANCH_CONDITIONAL: 8.67
BRANCH_DIRECT_CALL: 7e-06
BRANCH_INDIRECT_CALL: 0.729
BRANCH_RETURN: 0.395

LLC TOTAL        ACCESS:   23568759 HIT:   10299953 MISS:   13268806
LLC LOAD         ACCESS:   11363533 HIT:    2656128 MISS:    8707405
LLC RFO          ACCESS:    1711532 HIT:     736746 MISS:     974786
LLC PREFETCH     ACCESS:          0 HIT:          0 MISS:          0
LLC WRITE        ACCESS:    6509764 HIT:    6480152 MISS:      29612
LLC TRANSLATION  ACCESS:    3983930 HIT:     426927 MISS:    3557003
LLC PREFETCH REQUESTED:          0 ISSUED:          0 USEFUL:          0 USELESS:          0
LLC AVERAGE MISS LATENCY: 233.2 cycles
cpu0_DTLB TOTAL        ACCESS:  259652004 HIT:  237591917 MISS:   22060087
cpu0_DTLB LOAD         ACCESS:  259652004 HIT:  237591917 MISS:   22060087
cpu0_DTLB RFO          ACCESS:          0 HIT:          0 MISS:          0
cpu0_DTLB PREFETCH     ACCESS:          0 HIT:          0 MISS:          0
cpu0_DTLB WRITE        ACCESS:          0 HIT:          0 MISS:          0
cpu0_DTLB TRANSLATION  ACCESS:          0 HIT:          0 MISS:          0
cpu0_DTLB PREFETCH REQUESTED:          0 ISSUED:          0 USEFUL:          0 USELESS:          0
cpu0_DTLB AVERAGE MISS LATENCY: 50.94 cycles
cpu0_ITLB TOTAL        ACCESS:   73576412 HIT:   71722666 MISS:    1853746
cpu0_ITLB LOAD         ACCESS:   73576412 HIT:   71722666 MISS:    1853746
cpu0_ITLB RFO          ACCESS:          0 HIT:          0 MISS:          0
cpu0_ITLB PREFETCH     ACCESS:          0 HIT:          0 MISS:          0
cpu0_ITLB WRITE        ACCESS:          0 HIT:          0 MISS:          0
cpu0_ITLB TRANSLATION  ACCESS:          0 HIT:          0 MISS:          0
cpu0_ITLB PREFETCH REQUESTED:          0 ISSUED:          0 USEFUL:          0 USELESS:          0
cpu0_ITLB AVERAGE MISS LATENCY: 5.525 cycles
cpu0_L1D TOTAL        ACCESS:  333120805 HIT:  300604074 MISS:   32516731
cpu0_L1D LOAD         ACCESS:  153390740 HIT:  133019981 MISS:   20370759
cpu0_L1D RFO          ACCESS:          0 HIT:          0 MISS:          0
cpu0_L1D PREFETCH     ACCESS:          0 HIT:          0 MISS:          0
cpu0_L1D WRITE        ACCESS:  173754024 HIT:  166603654 MISS:    7150370
cpu0_L1D TRANSLATION  ACCESS:    5976041 HIT:     980439 MISS:    4995602
cpu0_L1D PREFETCH REQUESTED:          0 ISSUED:          0 USEFUL:          0 USELESS:          0
cpu0_L1D AVERAGE MISS LATENCY: 110.2 cycles
cpu0_L1I TOTAL        ACCESS:   86501312 HIT:   86007090 MISS:     494222
cpu0_L1I LOAD         ACCESS:   86501312 HIT:   86007090 MISS:     494222
cpu0_L1I RFO          ACCESS:          0 HIT:          0 MISS:          0
cpu0_L1I PREFETCH     ACCESS:          0 HIT:          0 MISS:          0
cpu0_L1I WRITE        ACCESS:          0 HIT:          0 MISS:          0
cpu0_L1I TRANSLATION  ACCESS:          0 HIT:          0 MISS:          0
cpu0_L1I PREFETCH REQUESTED:          0 ISSUED:          0 USEFUL:          0 USELESS:          0
cpu0_L1I AVERAGE MISS LATENCY: 17.47 cycles
cpu0_L2C TOTAL        ACCESS:   33944008 HIT:   16868666 MISS:   17075342
cpu0_L2C LOAD         ACCESS:   17077419 HIT:    5713885 MISS:   11363534
cpu0_L2C RFO          ACCESS:    2458840 HIT:     747308 MISS:    1711532
cpu0_L2C PREFETCH     ACCESS:          0 HIT:          0 MISS:          0
cpu0_L2C WRITE        ACCESS:    9418467 HIT:    9402121 MISS:      16346
cpu0_L2C TRANSLATION  ACCESS:    4989282 HIT:    1005352 MISS:    3983930
cpu0_L2C PREFETCH REQUESTED:          0 ISSUED:          0 USEFUL:          0 USELESS:          0
cpu0_L2C AVERAGE MISS LATENCY: 201.9 cycles
cpu0_STLB TOTAL        ACCESS:   20257321 HIT:   15959164 MISS:    4298157
cpu0_STLB LOAD         ACCESS:   20257321 HIT:   15959164 MISS:    4298157
cpu0_STLB RFO          ACCESS:          0 HIT:          0 MISS:          0
cpu0_STLB PREFETCH     ACCESS:          0 HIT:          0 MISS:          0
cpu0_STLB WRITE        ACCESS:          0 HIT:          0 MISS:          0
cpu0_STLB TRANSLATION  ACCESS:          0 HIT:          0 MISS:          0
cpu0_STLB PREFETCH REQUESTED:          0 ISSUED:          0 USEFUL:          0 USELESS:          0
cpu0_STLB AVERAGE MISS LATENCY: 234.3 cycles

DRAM Statistics

Channel 0 RQ ROW_BUFFER_HIT:     795416
  ROW_BUFFER_MISS:   12440605
 AVG DBUS CONGESTED CYCLE: 3.916
WQ ROW_BUFFER_HIT: Channel 0 
  ROW_BUFFER_MISS:     344621
  FULL:    4283454
