WARNING: physical memory size is smaller than virtual memory size.
WARNING: option --warmup_instructions is deprecated. Use --warmup-instructions instead.
WARNING: option --simulation_instructions is deprecated. Use --simulation-instructions instead.

*** ChampSim Multicore Out-of-Order Simulator ***
Warmup Instructions: 200000000
Simulation Instructions: 1000000000
Number of CPUs: 1
Page size: 4096

Off-chip DRAM Size: 4 GiB Channels: 1 Width: 64-bit Data Race: 3200 MT/s
Heartbeat CPU 0 instructions: 10000003 cycles: 2500269 heartbeat IPC: 4 cumulative IPC: 4 (Simulation time: 00 hr 00 min 36 sec)
Heartbeat CPU 0 instructions: 20000000 cycles: 5000456 heartbeat IPC: 4 cumulative IPC: 4 (Simulation time: 00 hr 01 min 12 sec)
Heartbeat CPU 0 instructions: 30000001 cycles: 7500654 heartbeat IPC: 4 cumulative IPC: 4 (Simulation time: 00 hr 01 min 49 sec)
Heartbeat CPU 0 instructions: 40000001 cycles: 10000842 heartbeat IPC: 4 cumulative IPC: 4 (Simulation time: 00 hr 02 min 26 sec)
Heartbeat CPU 0 instructions: 50000001 cycles: 12501023 heartbeat IPC: 4 cumulative IPC: 4 (Simulation time: 00 hr 03 min 03 sec)
Heartbeat CPU 0 instructions: 60000000 cycles: 15001223 heartbeat IPC: 4 cumulative IPC: 4 (Simulation time: 00 hr 03 min 40 sec)
Heartbeat CPU 0 instructions: 70000000 cycles: 17501586 heartbeat IPC: 3.999 cumulative IPC: 4 (Simulation time: 00 hr 04 min 17 sec)
Heartbeat CPU 0 instructions: 80000001 cycles: 20001757 heartbeat IPC: 4 cumulative IPC: 4 (Simulation time: 00 hr 04 min 54 sec)
Heartbeat CPU 0 instructions: 90000002 cycles: 22501935 heartbeat IPC: 4 cumulative IPC: 4 (Simulation time: 00 hr 05 min 31 sec)
Heartbeat CPU 0 instructions: 100000002 cycles: 25002116 heartbeat IPC: 4 cumulative IPC: 4 (Simulation time: 00 hr 06 min 08 sec)
Heartbeat CPU 0 instructions: 110000000 cycles: 27502294 heartbeat IPC: 4 cumulative IPC: 4 (Simulation time: 00 hr 06 min 44 sec)
Heartbeat CPU 0 instructions: 120000001 cycles: 30002499 heartbeat IPC: 4 cumulative IPC: 4 (Simulation time: 00 hr 07 min 21 sec)
Heartbeat CPU 0 instructions: 130000003 cycles: 32502680 heartbeat IPC: 4 cumulative IPC: 4 (Simulation time: 00 hr 07 min 58 sec)
Heartbeat CPU 0 instructions: 140000003 cycles: 35003045 heartbeat IPC: 3.999 cumulative IPC: 4 (Simulation time: 00 hr 08 min 35 sec)
Heartbeat CPU 0 instructions: 150000001 cycles: 37503232 heartbeat IPC: 4 cumulative IPC: 4 (Simulation time: 00 hr 09 min 11 sec)
Heartbeat CPU 0 instructions: 160000001 cycles: 40003410 heartbeat IPC: 4 cumulative IPC: 4 (Simulation time: 00 hr 09 min 48 sec)
Heartbeat CPU 0 instructions: 170000002 cycles: 42503592 heartbeat IPC: 4 cumulative IPC: 4 (Simulation time: 00 hr 10 min 24 sec)
Heartbeat CPU 0 instructions: 180000003 cycles: 45003773 heartbeat IPC: 4 cumulative IPC: 4 (Simulation time: 00 hr 11 min 01 sec)
Heartbeat CPU 0 instructions: 190000002 cycles: 47503954 heartbeat IPC: 4 cumulative IPC: 4 (Simulation time: 00 hr 11 min 37 sec)
Heartbeat CPU 0 instructions: 200000002 cycles: 50004322 heartbeat IPC: 3.999 cumulative IPC: 4 (Simulation time: 00 hr 12 min 14 sec)
Warmup finished CPU 0 instructions: 200000002 cycles: 50004323 cumulative IPC: 4 (Simulation time: 00 hr 12 min 14 sec)
Warmup complete CPU 0 instructions: 200000002 cycles: 50004323 cumulative IPC: 4 (Simulation time: 00 hr 12 min 14 sec)
Heartbeat CPU 0 instructions: 210000000 cycles: 54543931 heartbeat IPC: 2.203 cumulative IPC: 2.203 (Simulation time: 00 hr 13 min 06 sec)
Heartbeat CPU 0 instructions: 220000000 cycles: 59074253 heartbeat IPC: 2.207 cumulative IPC: 2.205 (Simulation time: 00 hr 13 min 59 sec)
Heartbeat CPU 0 instructions: 230000001 cycles: 63617639 heartbeat IPC: 2.201 cumulative IPC: 2.204 (Simulation time: 00 hr 14 min 52 sec)
Heartbeat CPU 0 instructions: 240000000 cycles: 68188982 heartbeat IPC: 2.188 cumulative IPC: 2.2 (Simulation time: 00 hr 15 min 44 sec)
Heartbeat CPU 0 instructions: 250000002 cycles: 72768679 heartbeat IPC: 2.184 cumulative IPC: 2.196 (Simulation time: 00 hr 16 min 37 sec)
Heartbeat CPU 0 instructions: 260000000 cycles: 77373773 heartbeat IPC: 2.172 cumulative IPC: 2.192 (Simulation time: 00 hr 17 min 30 sec)
Heartbeat CPU 0 instructions: 270000000 cycles: 81951699 heartbeat IPC: 2.184 cumulative IPC: 2.191 (Simulation time: 00 hr 18 min 23 sec)
Heartbeat CPU 0 instructions: 280000001 cycles: 86538149 heartbeat IPC: 2.18 cumulative IPC: 2.19 (Simulation time: 00 hr 19 min 16 sec)
Heartbeat CPU 0 instructions: 290000004 cycles: 91129417 heartbeat IPC: 2.178 cumulative IPC: 2.188 (Simulation time: 00 hr 20 min 09 sec)
Heartbeat CPU 0 instructions: 300000000 cycles: 95708296 heartbeat IPC: 2.184 cumulative IPC: 2.188 (Simulation time: 00 hr 21 min 01 sec)
Heartbeat CPU 0 instructions: 310000001 cycles: 100281429 heartbeat IPC: 2.187 cumulative IPC: 2.188 (Simulation time: 00 hr 21 min 54 sec)
Heartbeat CPU 0 instructions: 320000001 cycles: 104847078 heartbeat IPC: 2.19 cumulative IPC: 2.188 (Simulation time: 00 hr 22 min 47 sec)
Heartbeat CPU 0 instructions: 330000001 cycles: 109407671 heartbeat IPC: 2.193 cumulative IPC: 2.188 (Simulation time: 00 hr 23 min 40 sec)
Heartbeat CPU 0 instructions: 340000000 cycles: 114461358 heartbeat IPC: 1.979 cumulative IPC: 2.172 (Simulation time: 00 hr 24 min 43 sec)
Heartbeat CPU 0 instructions: 350000002 cycles: 119610590 heartbeat IPC: 1.942 cumulative IPC: 2.155 (Simulation time: 00 hr 25 min 47 sec)
Heartbeat CPU 0 instructions: 360000003 cycles: 124622292 heartbeat IPC: 1.995 cumulative IPC: 2.144 (Simulation time: 00 hr 26 min 49 sec)
Heartbeat CPU 0 instructions: 370000000 cycles: 129546513 heartbeat IPC: 2.031 cumulative IPC: 2.137 (Simulation time: 00 hr 27 min 51 sec)
Heartbeat CPU 0 instructions: 380000002 cycles: 134437552 heartbeat IPC: 2.045 cumulative IPC: 2.132 (Simulation time: 00 hr 28 min 52 sec)
Heartbeat CPU 0 instructions: 390000001 cycles: 149082631 heartbeat IPC: 0.6828 cumulative IPC: 1.918 (Simulation time: 00 hr 31 min 16 sec)
Heartbeat CPU 0 instructions: 400000004 cycles: 153474167 heartbeat IPC: 2.277 cumulative IPC: 1.933 (Simulation time: 00 hr 32 min 17 sec)
Heartbeat CPU 0 instructions: 410000000 cycles: 157959964 heartbeat IPC: 2.229 cumulative IPC: 1.945 (Simulation time: 00 hr 33 min 20 sec)
Heartbeat CPU 0 instructions: 420000002 cycles: 162329184 heartbeat IPC: 2.289 cumulative IPC: 1.959 (Simulation time: 00 hr 34 min 21 sec)
Heartbeat CPU 0 instructions: 430000004 cycles: 166753018 heartbeat IPC: 2.26 cumulative IPC: 1.97 (Simulation time: 00 hr 35 min 23 sec)
Heartbeat CPU 0 instructions: 440000003 cycles: 171142735 heartbeat IPC: 2.278 cumulative IPC: 1.981 (Simulation time: 00 hr 36 min 25 sec)
Heartbeat CPU 0 instructions: 450000000 cycles: 175570840 heartbeat IPC: 2.258 cumulative IPC: 1.991 (Simulation time: 00 hr 37 min 26 sec)
Heartbeat CPU 0 instructions: 460000000 cycles: 179928853 heartbeat IPC: 2.295 cumulative IPC: 2.001 (Simulation time: 00 hr 38 min 28 sec)
Heartbeat CPU 0 instructions: 470000001 cycles: 184103603 heartbeat IPC: 2.395 cumulative IPC: 2.013 (Simulation time: 00 hr 39 min 29 sec)
Heartbeat CPU 0 instructions: 480000000 cycles: 188425010 heartbeat IPC: 2.314 cumulative IPC: 2.023 (Simulation time: 00 hr 40 min 30 sec)
Heartbeat CPU 0 instructions: 490000002 cycles: 194082524 heartbeat IPC: 1.768 cumulative IPC: 2.013 (Simulation time: 00 hr 41 min 43 sec)
Heartbeat CPU 0 instructions: 500000000 cycles: 199802570 heartbeat IPC: 1.748 cumulative IPC: 2.003 (Simulation time: 00 hr 42 min 53 sec)
Heartbeat CPU 0 instructions: 510000002 cycles: 205476152 heartbeat IPC: 1.763 cumulative IPC: 1.994 (Simulation time: 00 hr 44 min 02 sec)
Heartbeat CPU 0 instructions: 520000004 cycles: 211140482 heartbeat IPC: 1.765 cumulative IPC: 1.986 (Simulation time: 00 hr 45 min 12 sec)
Heartbeat CPU 0 instructions: 530000003 cycles: 216757553 heartbeat IPC: 1.78 cumulative IPC: 1.979 (Simulation time: 00 hr 46 min 21 sec)
Heartbeat CPU 0 instructions: 540000000 cycles: 222357772 heartbeat IPC: 1.786 cumulative IPC: 1.973 (Simulation time: 00 hr 47 min 31 sec)
Heartbeat CPU 0 instructions: 550000002 cycles: 227984207 heartbeat IPC: 1.777 cumulative IPC: 1.967 (Simulation time: 00 hr 48 min 40 sec)
Heartbeat CPU 0 instructions: 560000002 cycles: 233604728 heartbeat IPC: 1.779 cumulative IPC: 1.961 (Simulation time: 00 hr 49 min 50 sec)
Heartbeat CPU 0 instructions: 570000004 cycles: 239283091 heartbeat IPC: 1.761 cumulative IPC: 1.955 (Simulation time: 00 hr 51 min 00 sec)
Heartbeat CPU 0 instructions: 580000000 cycles: 244979488 heartbeat IPC: 1.755 cumulative IPC: 1.949 (Simulation time: 00 hr 52 min 10 sec)
Heartbeat CPU 0 instructions: 590000004 cycles: 250629153 heartbeat IPC: 1.77 cumulative IPC: 1.944 (Simulation time: 00 hr 53 min 20 sec)
Heartbeat CPU 0 instructions: 600000000 cycles: 256209350 heartbeat IPC: 1.792 cumulative IPC: 1.94 (Simulation time: 00 hr 54 min 30 sec)
Heartbeat CPU 0 instructions: 610000003 cycles: 261846167 heartbeat IPC: 1.774 cumulative IPC: 1.935 (Simulation time: 00 hr 55 min 39 sec)
Heartbeat CPU 0 instructions: 620000002 cycles: 277962303 heartbeat IPC: 0.6205 cumulative IPC: 1.842 (Simulation time: 00 hr 58 min 33 sec)
Heartbeat CPU 0 instructions: 630000003 cycles: 293153939 heartbeat IPC: 0.6583 cumulative IPC: 1.768 (Simulation time: 01 hr 01 min 17 sec)
Heartbeat CPU 0 instructions: 640000000 cycles: 307097777 heartbeat IPC: 0.7172 cumulative IPC: 1.711 (Simulation time: 01 hr 03 min 54 sec)
Heartbeat CPU 0 instructions: 650000001 cycles: 324993891 heartbeat IPC: 0.5588 cumulative IPC: 1.636 (Simulation time: 01 hr 07 min 08 sec)
Heartbeat CPU 0 instructions: 660000000 cycles: 331508501 heartbeat IPC: 1.535 cumulative IPC: 1.634 (Simulation time: 01 hr 08 min 27 sec)
Heartbeat CPU 0 instructions: 670000002 cycles: 341003517 heartbeat IPC: 1.053 cumulative IPC: 1.615 (Simulation time: 01 hr 10 min 24 sec)
Heartbeat CPU 0 instructions: 680000001 cycles: 366834650 heartbeat IPC: 0.3871 cumulative IPC: 1.515 (Simulation time: 01 hr 14 min 38 sec)
Heartbeat CPU 0 instructions: 690000001 cycles: 370982958 heartbeat IPC: 2.411 cumulative IPC: 1.527 (Simulation time: 01 hr 15 min 46 sec)
Heartbeat CPU 0 instructions: 700000002 cycles: 375421763 heartbeat IPC: 2.253 cumulative IPC: 1.536 (Simulation time: 01 hr 16 min 57 sec)
Heartbeat CPU 0 instructions: 710000002 cycles: 379303001 heartbeat IPC: 2.576 cumulative IPC: 1.549 (Simulation time: 01 hr 18 min 03 sec)
Heartbeat CPU 0 instructions: 720000000 cycles: 384379136 heartbeat IPC: 1.97 cumulative IPC: 1.555 (Simulation time: 01 hr 19 min 18 sec)
Heartbeat CPU 0 instructions: 730000000 cycles: 389227096 heartbeat IPC: 2.063 cumulative IPC: 1.562 (Simulation time: 01 hr 20 min 33 sec)
Heartbeat CPU 0 instructions: 740000004 cycles: 394895441 heartbeat IPC: 1.764 cumulative IPC: 1.566 (Simulation time: 01 hr 21 min 56 sec)
Heartbeat CPU 0 instructions: 750000003 cycles: 407564925 heartbeat IPC: 0.7893 cumulative IPC: 1.538 (Simulation time: 01 hr 24 min 27 sec)
Heartbeat CPU 0 instructions: 760000004 cycles: 417050070 heartbeat IPC: 1.054 cumulative IPC: 1.526 (Simulation time: 01 hr 26 min 22 sec)
Heartbeat CPU 0 instructions: 770000000 cycles: 429269330 heartbeat IPC: 0.8184 cumulative IPC: 1.503 (Simulation time: 01 hr 28 min 45 sec)
Heartbeat CPU 0 instructions: 780000004 cycles: 439507256 heartbeat IPC: 0.9768 cumulative IPC: 1.489 (Simulation time: 01 hr 30 min 46 sec)
Heartbeat CPU 0 instructions: 790000003 cycles: 449372543 heartbeat IPC: 1.014 cumulative IPC: 1.477 (Simulation time: 01 hr 32 min 44 sec)
Heartbeat CPU 0 instructions: 800000002 cycles: 458946842 heartbeat IPC: 1.044 cumulative IPC: 1.467 (Simulation time: 01 hr 34 min 39 sec)
Heartbeat CPU 0 instructions: 810000003 cycles: 471452178 heartbeat IPC: 0.7997 cumulative IPC: 1.447 (Simulation time: 01 hr 37 min 00 sec)
Heartbeat CPU 0 instructions: 820000004 cycles: 509316417 heartbeat IPC: 0.2641 cumulative IPC: 1.35 (Simulation time: 01 hr 43 min 20 sec)
Heartbeat CPU 0 instructions: 830000003 cycles: 525525283 heartbeat IPC: 0.6169 cumulative IPC: 1.325 (Simulation time: 01 hr 46 min 18 sec)
Heartbeat CPU 0 instructions: 840000004 cycles: 539042805 heartbeat IPC: 0.7398 cumulative IPC: 1.309 (Simulation time: 01 hr 48 min 58 sec)
Heartbeat CPU 0 instructions: 850000004 cycles: 572676650 heartbeat IPC: 0.2973 cumulative IPC: 1.244 (Simulation time: 01 hr 54 min 38 sec)
Heartbeat CPU 0 instructions: 860000003 cycles: 589542294 heartbeat IPC: 0.5929 cumulative IPC: 1.223 (Simulation time: 01 hr 57 min 41 sec)
Heartbeat CPU 0 instructions: 870000000 cycles: 593920188 heartbeat IPC: 2.284 cumulative IPC: 1.232 (Simulation time: 01 hr 58 min 50 sec)
Heartbeat CPU 0 instructions: 880000001 cycles: 604375702 heartbeat IPC: 0.9564 cumulative IPC: 1.227 (Simulation time: 02 hr 00 min 50 sec)
Heartbeat CPU 0 instructions: 890000002 cycles: 608871290 heartbeat IPC: 2.224 cumulative IPC: 1.235 (Simulation time: 02 hr 01 min 59 sec)
Heartbeat CPU 0 instructions: 900000000 cycles: 617704034 heartbeat IPC: 1.132 cumulative IPC: 1.233 (Simulation time: 02 hr 03 min 43 sec)
Heartbeat CPU 0 instructions: 910000002 cycles: 622012384 heartbeat IPC: 2.321 cumulative IPC: 1.241 (Simulation time: 02 hr 04 min 51 sec)
Heartbeat CPU 0 instructions: 920000001 cycles: 630638008 heartbeat IPC: 1.159 cumulative IPC: 1.24 (Simulation time: 02 hr 06 min 32 sec)
Heartbeat CPU 0 instructions: 930000002 cycles: 635172995 heartbeat IPC: 2.205 cumulative IPC: 1.248 (Simulation time: 02 hr 07 min 42 sec)
Heartbeat CPU 0 instructions: 940000002 cycles: 643760292 heartbeat IPC: 1.165 cumulative IPC: 1.246 (Simulation time: 02 hr 09 min 23 sec)
Heartbeat CPU 0 instructions: 950000004 cycles: 648547093 heartbeat IPC: 2.089 cumulative IPC: 1.253 (Simulation time: 02 hr 10 min 36 sec)
Heartbeat CPU 0 instructions: 960000000 cycles: 656876209 heartbeat IPC: 1.201 cumulative IPC: 1.252 (Simulation time: 02 hr 12 min 22 sec)
Heartbeat CPU 0 instructions: 970000001 cycles: 661055429 heartbeat IPC: 2.393 cumulative IPC: 1.26 (Simulation time: 02 hr 13 min 21 sec)
Heartbeat CPU 0 instructions: 980000002 cycles: 665536015 heartbeat IPC: 2.232 cumulative IPC: 1.267 (Simulation time: 02 hr 14 min 22 sec)
Heartbeat CPU 0 instructions: 990000000 cycles: 670180582 heartbeat IPC: 2.153 cumulative IPC: 1.274 (Simulation time: 02 hr 15 min 25 sec)
Heartbeat CPU 0 instructions: 1000000001 cycles: 682199140 heartbeat IPC: 0.832 cumulative IPC: 1.265 (Simulation time: 02 hr 17 min 36 sec)
Heartbeat CPU 0 instructions: 1010000002 cycles: 701191710 heartbeat IPC: 0.5265 cumulative IPC: 1.244 (Simulation time: 02 hr 20 min 38 sec)
Heartbeat CPU 0 instructions: 1020000002 cycles: 706318479 heartbeat IPC: 1.951 cumulative IPC: 1.249 (Simulation time: 02 hr 21 min 55 sec)
Heartbeat CPU 0 instructions: 1030000003 cycles: 710491045 heartbeat IPC: 2.397 cumulative IPC: 1.257 (Simulation time: 02 hr 23 min 04 sec)
Heartbeat CPU 0 instructions: 1040000003 cycles: 714143596 heartbeat IPC: 2.738 cumulative IPC: 1.265 (Simulation time: 02 hr 24 min 07 sec)
Heartbeat CPU 0 instructions: 1050000000 cycles: 718959519 heartbeat IPC: 2.076 cumulative IPC: 1.271 (Simulation time: 02 hr 25 min 21 sec)
Heartbeat CPU 0 instructions: 1060000004 cycles: 723997760 heartbeat IPC: 1.985 cumulative IPC: 1.276 (Simulation time: 02 hr 26 min 37 sec)
Heartbeat CPU 0 instructions: 1070000004 cycles: 727960115 heartbeat IPC: 2.524 cumulative IPC: 1.283 (Simulation time: 02 hr 27 min 42 sec)
Heartbeat CPU 0 instructions: 1080000004 cycles: 738294578 heartbeat IPC: 0.9676 cumulative IPC: 1.279 (Simulation time: 02 hr 29 min 52 sec)
Heartbeat CPU 0 instructions: 1090000003 cycles: 750161842 heartbeat IPC: 0.8427 cumulative IPC: 1.271 (Simulation time: 02 hr 32 min 10 sec)
Heartbeat CPU 0 instructions: 1100000000 cycles: 758903950 heartbeat IPC: 1.144 cumulative IPC: 1.27 (Simulation time: 02 hr 33 min 59 sec)
Heartbeat CPU 0 instructions: 1110000002 cycles: 772088580 heartbeat IPC: 0.7585 cumulative IPC: 1.26 (Simulation time: 02 hr 36 min 29 sec)
Heartbeat CPU 0 instructions: 1120000004 cycles: 790011949 heartbeat IPC: 0.5579 cumulative IPC: 1.243 (Simulation time: 02 hr 39 min 48 sec)
Heartbeat CPU 0 instructions: 1130000000 cycles: 819102759 heartbeat IPC: 0.3438 cumulative IPC: 1.209 (Simulation time: 02 hr 44 min 46 sec)
Heartbeat CPU 0 instructions: 1140000002 cycles: 831651443 heartbeat IPC: 0.7969 cumulative IPC: 1.203 (Simulation time: 02 hr 47 min 18 sec)
Heartbeat CPU 0 instructions: 1150000000 cycles: 846005259 heartbeat IPC: 0.6967 cumulative IPC: 1.193 (Simulation time: 02 hr 50 min 07 sec)
Heartbeat CPU 0 instructions: 1160000003 cycles: 874785227 heartbeat IPC: 0.3475 cumulative IPC: 1.164 (Simulation time: 02 hr 55 min 03 sec)
Heartbeat CPU 0 instructions: 1170000002 cycles: 888217666 heartbeat IPC: 0.7445 cumulative IPC: 1.157 (Simulation time: 02 hr 57 min 44 sec)
Heartbeat CPU 0 instructions: 1180000000 cycles: 918128467 heartbeat IPC: 0.3343 cumulative IPC: 1.129 (Simulation time: 03 hr 02 min 58 sec)
Heartbeat CPU 0 instructions: 1190000001 cycles: 938903817 heartbeat IPC: 0.4813 cumulative IPC: 1.114 (Simulation time: 03 hr 06 min 40 sec)
Heartbeat CPU 0 instructions: 1200000004 cycles: 942927888 heartbeat IPC: 2.485 cumulative IPC: 1.12 (Simulation time: 03 hr 07 min 45 sec)
Simulation finished CPU 0 instructions: 1000000002 cycles: 892923566 cumulative IPC: 1.12 (Simulation time: 03 hr 07 min 45 sec)
Simulation complete CPU 0 instructions: 1000000002 cycles: 892923566 cumulative IPC: 1.12 (Simulation time: 03 hr 07 min 45 sec)

ChampSim completed all CPUs

=== Simulation ===
CPU 0 runs /home/faculty/p/pgratz/dpc3_traces/621.wrf_s-575B.champsimtrace.xz
Region of Interest Statistics

CPU 0 cumulative IPC: 1.12 instructions: 1000000002 cycles: 892923566
CPU 0 Branch Prediction Accuracy: 96.13% MPKI: 3.441 Average ROB Occupancy at Mispredict: 140.2
Branch type MPKI
BRANCH_DIRECT_JUMP: 0.000394
BRANCH_INDIRECT: 1.8e-05
BRANCH_CONDITIONAL: 3.16
BRANCH_DIRECT_CALL: 0.00248
BRANCH_INDIRECT_CALL: 0
BRANCH_RETURN: 0.278

LLC TOTAL        ACCESS:   12924954 HIT:    5308377 MISS:    7616577
LLC LOAD         ACCESS:    7231991 HIT:    1262045 MISS:    5969946
LLC RFO          ACCESS:    1829579 HIT:     202268 MISS:    1627311
LLC PREFETCH     ACCESS:          0 HIT:          0 MISS:          0
LLC WRITE        ACCESS:    3851236 HIT:    3841693 MISS:       9543
LLC TRANSLATION  ACCESS:      12148 HIT:       2371 MISS:       9777
LLC PREFETCH REQUESTED:          0 ISSUED:          0 USEFUL:          0 USELESS:          0
LLC AVERAGE MISS LATENCY: 914.2 cycles
cpu0_DTLB TOTAL        ACCESS:  157584699 HIT:  155849802 MISS:    1734897
cpu0_DTLB LOAD         ACCESS:  157584699 HIT:  155849802 MISS:    1734897
cpu0_DTLB RFO          ACCESS:          0 HIT:          0 MISS:          0
cpu0_DTLB PREFETCH     ACCESS:          0 HIT:          0 MISS:          0
cpu0_DTLB WRITE        ACCESS:          0 HIT:          0 MISS:          0
cpu0_DTLB TRANSLATION  ACCESS:          0 HIT:          0 MISS:          0
cpu0_DTLB PREFETCH REQUESTED:          0 ISSUED:          0 USEFUL:          0 USELESS:          0
cpu0_DTLB AVERAGE MISS LATENCY: 9.312 cycles
cpu0_ITLB TOTAL        ACCESS:    5346241 HIT:    5343933 MISS:       2308
cpu0_ITLB LOAD         ACCESS:    5346241 HIT:    5343933 MISS:       2308
cpu0_ITLB RFO          ACCESS:          0 HIT:          0 MISS:          0
cpu0_ITLB PREFETCH     ACCESS:          0 HIT:          0 MISS:          0
cpu0_ITLB WRITE        ACCESS:          0 HIT:          0 MISS:          0
cpu0_ITLB TRANSLATION  ACCESS:          0 HIT:          0 MISS:          0
cpu0_ITLB PREFETCH REQUESTED:          0 ISSUED:          0 USEFUL:          0 USELESS:          0
cpu0_ITLB AVERAGE MISS LATENCY: 121.1 cycles
cpu0_L1D TOTAL        ACCESS:  191464683 HIT:  158227012 MISS:   33237671
cpu0_L1D LOAD         ACCESS:  122091286 HIT:  101454449 MISS:   20636837
cpu0_L1D RFO          ACCESS:          0 HIT:          0 MISS:          0
cpu0_L1D PREFETCH     ACCESS:          0 HIT:          0 MISS:          0
cpu0_L1D WRITE        ACCESS:   69282405 HIT:   56711006 MISS:   12571399
cpu0_L1D TRANSLATION  ACCESS:      90992 HIT:      61557 MISS:      29435
cpu0_L1D PREFETCH REQUESTED:          0 ISSUED:          0 USEFUL:          0 USELESS:          0
cpu0_L1D AVERAGE MISS LATENCY: 183.6 cycles
cpu0_L1I TOTAL        ACCESS:    6507741 HIT:    5463150 MISS:    1044591
cpu0_L1I LOAD         ACCESS:    6507741 HIT:    5463150 MISS:    1044591
cpu0_L1I RFO          ACCESS:          0 HIT:          0 MISS:          0
cpu0_L1I PREFETCH     ACCESS:          0 HIT:          0 MISS:          0
cpu0_L1I WRITE        ACCESS:          0 HIT:          0 MISS:          0
cpu0_L1I TRANSLATION  ACCESS:          0 HIT:          0 MISS:          0
cpu0_L1I PREFETCH REQUESTED:          0 ISSUED:          0 USEFUL:          0 USELESS:          0
cpu0_L1I AVERAGE MISS LATENCY: 13.64 cycles
cpu0_L2C TOTAL        ACCESS:   22212147 HIT:   13133648 MISS:    9078499
cpu0_L2C LOAD         ACCESS:   12072552 HIT:    4840560 MISS:    7231992
cpu0_L2C RFO          ACCESS:    3756123 HIT:    1926544 MISS:    1829579
cpu0_L2C PREFETCH     ACCESS:          0 HIT:          0 MISS:          0
cpu0_L2C WRITE        ACCESS:    6355508 HIT:    6350728 MISS:       4780
cpu0_L2C TRANSLATION  ACCESS:      27964 HIT:      15816 MISS:      12148
cpu0_L2C PREFETCH REQUESTED:          0 ISSUED:          0 USEFUL:          0 USELESS:          0
cpu0_L2C AVERAGE MISS LATENCY: 787.8 cycles
cpu0_STLB TOTAL        ACCESS:    1116073 HIT:    1025386 MISS:      90687
cpu0_STLB LOAD         ACCESS:    1116073 HIT:    1025386 MISS:      90687
cpu0_STLB RFO          ACCESS:          0 HIT:          0 MISS:          0
cpu0_STLB PREFETCH     ACCESS:          0 HIT:          0 MISS:          0
cpu0_STLB WRITE        ACCESS:          0 HIT:          0 MISS:          0
cpu0_STLB TRANSLATION  ACCESS:          0 HIT:          0 MISS:          0
cpu0_STLB PREFETCH REQUESTED:          0 ISSUED:          0 USEFUL:          0 USELESS:          0
cpu0_STLB AVERAGE MISS LATENCY: 151.7 cycles

DRAM Statistics

Channel 0 RQ ROW_BUFFER_HIT:    1585496
  ROW_BUFFER_MISS:    6017120
 AVG DBUS CONGESTED CYCLE: 3.964
WQ ROW_BUFFER_HIT: Channel 0 
  ROW_BUFFER_MISS:     408192
  FULL:    2772763
