WARNING: physical memory size is smaller than virtual memory size.
WARNING: option --warmup_instructions is deprecated. Use --warmup-instructions instead.
WARNING: option --simulation_instructions is deprecated. Use --simulation-instructions instead.

*** ChampSim Multicore Out-of-Order Simulator ***
Warmup Instructions: 200000000
Simulation Instructions: 1000000000
Number of CPUs: 1
Page size: 4096

Off-chip DRAM Size: 4 GiB Channels: 1 Width: 64-bit Data Race: 3200 MT/s
Heartbeat CPU 0 instructions: 10000001 cycles: 2611967 heartbeat IPC: 3.829 cumulative IPC: 3.829 (Simulation time: 00 hr 00 min 44 sec)
Heartbeat CPU 0 instructions: 20000000 cycles: 5195881 heartbeat IPC: 3.87 cumulative IPC: 3.849 (Simulation time: 00 hr 01 min 24 sec)
Heartbeat CPU 0 instructions: 30000000 cycles: 7865416 heartbeat IPC: 3.746 cumulative IPC: 3.814 (Simulation time: 00 hr 02 min 12 sec)
Heartbeat CPU 0 instructions: 40000004 cycles: 10503469 heartbeat IPC: 3.791 cumulative IPC: 3.808 (Simulation time: 00 hr 02 min 59 sec)
Heartbeat CPU 0 instructions: 50000003 cycles: 13124330 heartbeat IPC: 3.816 cumulative IPC: 3.81 (Simulation time: 00 hr 03 min 46 sec)
Heartbeat CPU 0 instructions: 60000003 cycles: 15699376 heartbeat IPC: 3.883 cumulative IPC: 3.822 (Simulation time: 00 hr 04 min 25 sec)
Heartbeat CPU 0 instructions: 70000002 cycles: 18293700 heartbeat IPC: 3.855 cumulative IPC: 3.826 (Simulation time: 00 hr 05 min 06 sec)
Heartbeat CPU 0 instructions: 80000000 cycles: 20969814 heartbeat IPC: 3.737 cumulative IPC: 3.815 (Simulation time: 00 hr 05 min 55 sec)
Heartbeat CPU 0 instructions: 90000001 cycles: 23609543 heartbeat IPC: 3.788 cumulative IPC: 3.812 (Simulation time: 00 hr 06 min 41 sec)
Heartbeat CPU 0 instructions: 100000002 cycles: 26293811 heartbeat IPC: 3.725 cumulative IPC: 3.803 (Simulation time: 00 hr 07 min 30 sec)
Heartbeat CPU 0 instructions: 110000004 cycles: 28938501 heartbeat IPC: 3.781 cumulative IPC: 3.801 (Simulation time: 00 hr 08 min 18 sec)
Heartbeat CPU 0 instructions: 120000001 cycles: 31560552 heartbeat IPC: 3.814 cumulative IPC: 3.802 (Simulation time: 00 hr 09 min 05 sec)
Heartbeat CPU 0 instructions: 130000003 cycles: 34145563 heartbeat IPC: 3.868 cumulative IPC: 3.807 (Simulation time: 00 hr 09 min 45 sec)
Heartbeat CPU 0 instructions: 140000002 cycles: 36742736 heartbeat IPC: 3.85 cumulative IPC: 3.81 (Simulation time: 00 hr 10 min 26 sec)
Heartbeat CPU 0 instructions: 150000001 cycles: 39405680 heartbeat IPC: 3.755 cumulative IPC: 3.807 (Simulation time: 00 hr 11 min 15 sec)
Heartbeat CPU 0 instructions: 160000004 cycles: 42044802 heartbeat IPC: 3.789 cumulative IPC: 3.805 (Simulation time: 00 hr 11 min 59 sec)
Heartbeat CPU 0 instructions: 170000004 cycles: 44711169 heartbeat IPC: 3.75 cumulative IPC: 3.802 (Simulation time: 00 hr 12 min 47 sec)
Heartbeat CPU 0 instructions: 180000004 cycles: 47366421 heartbeat IPC: 3.766 cumulative IPC: 3.8 (Simulation time: 00 hr 13 min 36 sec)
Heartbeat CPU 0 instructions: 190000001 cycles: 49990940 heartbeat IPC: 3.81 cumulative IPC: 3.801 (Simulation time: 00 hr 14 min 23 sec)
Heartbeat CPU 0 instructions: 200000003 cycles: 52589677 heartbeat IPC: 3.848 cumulative IPC: 3.803 (Simulation time: 00 hr 15 min 05 sec)
Warmup finished CPU 0 instructions: 200000003 cycles: 52589678 cumulative IPC: 3.803 (Simulation time: 00 hr 15 min 05 sec)
Warmup complete CPU 0 instructions: 200000003 cycles: 52589678 cumulative IPC: 3.803 (Simulation time: 00 hr 15 min 05 sec)
Heartbeat CPU 0 instructions: 210000001 cycles: 57292512 heartbeat IPC: 2.126 cumulative IPC: 2.126 (Simulation time: 00 hr 16 min 14 sec)
Heartbeat CPU 0 instructions: 220000000 cycles: 64165846 heartbeat IPC: 1.455 cumulative IPC: 1.728 (Simulation time: 00 hr 17 min 33 sec)
Heartbeat CPU 0 instructions: 230000000 cycles: 70534064 heartbeat IPC: 1.57 cumulative IPC: 1.672 (Simulation time: 00 hr 18 min 48 sec)
Heartbeat CPU 0 instructions: 240000001 cycles: 76637661 heartbeat IPC: 1.638 cumulative IPC: 1.663 (Simulation time: 00 hr 20 min 03 sec)
Heartbeat CPU 0 instructions: 250000001 cycles: 82614709 heartbeat IPC: 1.673 cumulative IPC: 1.665 (Simulation time: 00 hr 21 min 17 sec)
Heartbeat CPU 0 instructions: 260000000 cycles: 88373570 heartbeat IPC: 1.736 cumulative IPC: 1.677 (Simulation time: 00 hr 22 min 30 sec)
Heartbeat CPU 0 instructions: 270000000 cycles: 93141710 heartbeat IPC: 2.097 cumulative IPC: 1.726 (Simulation time: 00 hr 23 min 39 sec)
Heartbeat CPU 0 instructions: 280000000 cycles: 97877244 heartbeat IPC: 2.112 cumulative IPC: 1.766 (Simulation time: 00 hr 24 min 47 sec)
Heartbeat CPU 0 instructions: 290000003 cycles: 103256870 heartbeat IPC: 1.859 cumulative IPC: 1.776 (Simulation time: 00 hr 25 min 59 sec)
Heartbeat CPU 0 instructions: 300000004 cycles: 110506729 heartbeat IPC: 1.379 cumulative IPC: 1.727 (Simulation time: 00 hr 27 min 19 sec)
Heartbeat CPU 0 instructions: 310000001 cycles: 116664835 heartbeat IPC: 1.624 cumulative IPC: 1.717 (Simulation time: 00 hr 28 min 33 sec)
Heartbeat CPU 0 instructions: 320000001 cycles: 122609401 heartbeat IPC: 1.682 cumulative IPC: 1.714 (Simulation time: 00 hr 29 min 46 sec)
Heartbeat CPU 0 instructions: 330000000 cycles: 129057971 heartbeat IPC: 1.551 cumulative IPC: 1.7 (Simulation time: 00 hr 31 min 02 sec)
Heartbeat CPU 0 instructions: 340000000 cycles: 135158971 heartbeat IPC: 1.639 cumulative IPC: 1.696 (Simulation time: 00 hr 32 min 17 sec)
Heartbeat CPU 0 instructions: 350000003 cycles: 141073685 heartbeat IPC: 1.691 cumulative IPC: 1.695 (Simulation time: 00 hr 33 min 31 sec)
Heartbeat CPU 0 instructions: 360000001 cycles: 146970125 heartbeat IPC: 1.696 cumulative IPC: 1.695 (Simulation time: 00 hr 34 min 45 sec)
Heartbeat CPU 0 instructions: 370000000 cycles: 152862746 heartbeat IPC: 1.697 cumulative IPC: 1.695 (Simulation time: 00 hr 36 min 00 sec)
Heartbeat CPU 0 instructions: 380000001 cycles: 157747797 heartbeat IPC: 2.047 cumulative IPC: 1.712 (Simulation time: 00 hr 37 min 09 sec)
Heartbeat CPU 0 instructions: 390000000 cycles: 162223156 heartbeat IPC: 2.234 cumulative IPC: 1.733 (Simulation time: 00 hr 38 min 17 sec)
Heartbeat CPU 0 instructions: 400000000 cycles: 167020071 heartbeat IPC: 2.085 cumulative IPC: 1.748 (Simulation time: 00 hr 39 min 26 sec)
Heartbeat CPU 0 instructions: 410000001 cycles: 172188767 heartbeat IPC: 1.935 cumulative IPC: 1.756 (Simulation time: 00 hr 40 min 37 sec)
Heartbeat CPU 0 instructions: 420000002 cycles: 179010966 heartbeat IPC: 1.466 cumulative IPC: 1.74 (Simulation time: 00 hr 41 min 56 sec)
Heartbeat CPU 0 instructions: 430000002 cycles: 185619394 heartbeat IPC: 1.513 cumulative IPC: 1.729 (Simulation time: 00 hr 43 min 12 sec)
Heartbeat CPU 0 instructions: 440000000 cycles: 191799495 heartbeat IPC: 1.618 cumulative IPC: 1.724 (Simulation time: 00 hr 44 min 27 sec)
Heartbeat CPU 0 instructions: 450000001 cycles: 197927283 heartbeat IPC: 1.632 cumulative IPC: 1.72 (Simulation time: 00 hr 45 min 41 sec)
Heartbeat CPU 0 instructions: 460000002 cycles: 202430144 heartbeat IPC: 2.221 cumulative IPC: 1.735 (Simulation time: 00 hr 46 min 49 sec)
Heartbeat CPU 0 instructions: 470000003 cycles: 209166953 heartbeat IPC: 1.484 cumulative IPC: 1.724 (Simulation time: 00 hr 48 min 07 sec)
Heartbeat CPU 0 instructions: 480000000 cycles: 215494507 heartbeat IPC: 1.58 cumulative IPC: 1.719 (Simulation time: 00 hr 49 min 22 sec)
Heartbeat CPU 0 instructions: 490000002 cycles: 221386874 heartbeat IPC: 1.697 cumulative IPC: 1.718 (Simulation time: 00 hr 50 min 36 sec)
Heartbeat CPU 0 instructions: 500000000 cycles: 227387255 heartbeat IPC: 1.667 cumulative IPC: 1.716 (Simulation time: 00 hr 51 min 50 sec)
Heartbeat CPU 0 instructions: 510000001 cycles: 234041280 heartbeat IPC: 1.503 cumulative IPC: 1.708 (Simulation time: 00 hr 53 min 08 sec)
Heartbeat CPU 0 instructions: 520000000 cycles: 240289772 heartbeat IPC: 1.6 cumulative IPC: 1.705 (Simulation time: 00 hr 54 min 23 sec)
Heartbeat CPU 0 instructions: 530000001 cycles: 246308972 heartbeat IPC: 1.661 cumulative IPC: 1.703 (Simulation time: 00 hr 55 min 38 sec)
Heartbeat CPU 0 instructions: 540000000 cycles: 252205671 heartbeat IPC: 1.696 cumulative IPC: 1.703 (Simulation time: 00 hr 56 min 52 sec)
Heartbeat CPU 0 instructions: 550000004 cycles: 258075869 heartbeat IPC: 1.704 cumulative IPC: 1.703 (Simulation time: 00 hr 58 min 07 sec)
Heartbeat CPU 0 instructions: 560000001 cycles: 263938371 heartbeat IPC: 1.706 cumulative IPC: 1.703 (Simulation time: 00 hr 59 min 21 sec)
Heartbeat CPU 0 instructions: 570000004 cycles: 268663736 heartbeat IPC: 2.116 cumulative IPC: 1.712 (Simulation time: 01 hr 00 min 30 sec)
Heartbeat CPU 0 instructions: 580000000 cycles: 273091972 heartbeat IPC: 2.258 cumulative IPC: 1.723 (Simulation time: 01 hr 01 min 37 sec)
Heartbeat CPU 0 instructions: 590000001 cycles: 277788230 heartbeat IPC: 2.129 cumulative IPC: 1.732 (Simulation time: 01 hr 02 min 45 sec)
Heartbeat CPU 0 instructions: 600000000 cycles: 282719877 heartbeat IPC: 2.028 cumulative IPC: 1.738 (Simulation time: 01 hr 03 min 54 sec)
Heartbeat CPU 0 instructions: 610000000 cycles: 288249507 heartbeat IPC: 1.808 cumulative IPC: 1.74 (Simulation time: 01 hr 05 min 07 sec)
Heartbeat CPU 0 instructions: 620000000 cycles: 295305282 heartbeat IPC: 1.417 cumulative IPC: 1.73 (Simulation time: 01 hr 06 min 26 sec)
Heartbeat CPU 0 instructions: 630000002 cycles: 301413168 heartbeat IPC: 1.637 cumulative IPC: 1.728 (Simulation time: 01 hr 07 min 39 sec)
Heartbeat CPU 0 instructions: 640000002 cycles: 307806410 heartbeat IPC: 1.564 cumulative IPC: 1.724 (Simulation time: 01 hr 08 min 55 sec)
Heartbeat CPU 0 instructions: 650000000 cycles: 314111516 heartbeat IPC: 1.586 cumulative IPC: 1.721 (Simulation time: 01 hr 10 min 10 sec)
Heartbeat CPU 0 instructions: 660000000 cycles: 320184285 heartbeat IPC: 1.647 cumulative IPC: 1.719 (Simulation time: 01 hr 11 min 24 sec)
Heartbeat CPU 0 instructions: 670000004 cycles: 326116176 heartbeat IPC: 1.686 cumulative IPC: 1.718 (Simulation time: 01 hr 12 min 38 sec)
Heartbeat CPU 0 instructions: 680000004 cycles: 332168647 heartbeat IPC: 1.652 cumulative IPC: 1.717 (Simulation time: 01 hr 13 min 53 sec)
Heartbeat CPU 0 instructions: 690000000 cycles: 336483510 heartbeat IPC: 2.318 cumulative IPC: 1.726 (Simulation time: 01 hr 14 min 59 sec)
Heartbeat CPU 0 instructions: 700000000 cycles: 341208881 heartbeat IPC: 2.116 cumulative IPC: 1.732 (Simulation time: 01 hr 16 min 07 sec)
Heartbeat CPU 0 instructions: 710000002 cycles: 346555496 heartbeat IPC: 1.87 cumulative IPC: 1.735 (Simulation time: 01 hr 17 min 19 sec)
Heartbeat CPU 0 instructions: 720000003 cycles: 353334521 heartbeat IPC: 1.475 cumulative IPC: 1.729 (Simulation time: 01 hr 18 min 37 sec)
Heartbeat CPU 0 instructions: 730000000 cycles: 359072479 heartbeat IPC: 1.743 cumulative IPC: 1.729 (Simulation time: 01 hr 19 min 49 sec)
Heartbeat CPU 0 instructions: 740000000 cycles: 365519497 heartbeat IPC: 1.551 cumulative IPC: 1.726 (Simulation time: 01 hr 21 min 04 sec)
Heartbeat CPU 0 instructions: 750000002 cycles: 371886227 heartbeat IPC: 1.571 cumulative IPC: 1.723 (Simulation time: 01 hr 22 min 19 sec)
Heartbeat CPU 0 instructions: 760000000 cycles: 378267019 heartbeat IPC: 1.567 cumulative IPC: 1.719 (Simulation time: 01 hr 23 min 34 sec)
Heartbeat CPU 0 instructions: 770000004 cycles: 384721624 heartbeat IPC: 1.549 cumulative IPC: 1.716 (Simulation time: 01 hr 24 min 49 sec)
Heartbeat CPU 0 instructions: 780000000 cycles: 390928194 heartbeat IPC: 1.611 cumulative IPC: 1.714 (Simulation time: 01 hr 26 min 04 sec)
Heartbeat CPU 0 instructions: 790000000 cycles: 396936536 heartbeat IPC: 1.664 cumulative IPC: 1.713 (Simulation time: 01 hr 27 min 18 sec)
Heartbeat CPU 0 instructions: 800000002 cycles: 401702771 heartbeat IPC: 2.098 cumulative IPC: 1.719 (Simulation time: 01 hr 28 min 26 sec)
Heartbeat CPU 0 instructions: 810000002 cycles: 406782526 heartbeat IPC: 1.969 cumulative IPC: 1.722 (Simulation time: 01 hr 29 min 37 sec)
Heartbeat CPU 0 instructions: 820000000 cycles: 413661979 heartbeat IPC: 1.454 cumulative IPC: 1.717 (Simulation time: 01 hr 30 min 55 sec)
Heartbeat CPU 0 instructions: 830000000 cycles: 419216956 heartbeat IPC: 1.8 cumulative IPC: 1.718 (Simulation time: 01 hr 32 min 07 sec)
Heartbeat CPU 0 instructions: 840000000 cycles: 426038808 heartbeat IPC: 1.466 cumulative IPC: 1.714 (Simulation time: 01 hr 33 min 24 sec)
Heartbeat CPU 0 instructions: 850000000 cycles: 432343510 heartbeat IPC: 1.586 cumulative IPC: 1.712 (Simulation time: 01 hr 34 min 39 sec)
Heartbeat CPU 0 instructions: 860000000 cycles: 437443996 heartbeat IPC: 1.961 cumulative IPC: 1.715 (Simulation time: 01 hr 35 min 49 sec)
Heartbeat CPU 0 instructions: 870000002 cycles: 444237428 heartbeat IPC: 1.472 cumulative IPC: 1.711 (Simulation time: 01 hr 37 min 06 sec)
Heartbeat CPU 0 instructions: 880000001 cycles: 450475262 heartbeat IPC: 1.603 cumulative IPC: 1.709 (Simulation time: 01 hr 38 min 20 sec)
Heartbeat CPU 0 instructions: 890000000 cycles: 455446525 heartbeat IPC: 2.012 cumulative IPC: 1.713 (Simulation time: 01 hr 39 min 30 sec)
Heartbeat CPU 0 instructions: 900000000 cycles: 462120423 heartbeat IPC: 1.498 cumulative IPC: 1.709 (Simulation time: 01 hr 40 min 47 sec)
Heartbeat CPU 0 instructions: 910000004 cycles: 468596381 heartbeat IPC: 1.544 cumulative IPC: 1.707 (Simulation time: 01 hr 42 min 03 sec)
Heartbeat CPU 0 instructions: 920000004 cycles: 474807595 heartbeat IPC: 1.61 cumulative IPC: 1.705 (Simulation time: 01 hr 43 min 17 sec)
Heartbeat CPU 0 instructions: 930000004 cycles: 480150896 heartbeat IPC: 1.872 cumulative IPC: 1.707 (Simulation time: 01 hr 44 min 29 sec)
Heartbeat CPU 0 instructions: 940000004 cycles: 485758997 heartbeat IPC: 1.783 cumulative IPC: 1.708 (Simulation time: 01 hr 45 min 42 sec)
Heartbeat CPU 0 instructions: 950000002 cycles: 492426070 heartbeat IPC: 1.5 cumulative IPC: 1.705 (Simulation time: 01 hr 46 min 58 sec)
Heartbeat CPU 0 instructions: 960000000 cycles: 498213008 heartbeat IPC: 1.728 cumulative IPC: 1.705 (Simulation time: 01 hr 48 min 11 sec)
Heartbeat CPU 0 instructions: 970000000 cycles: 504573574 heartbeat IPC: 1.572 cumulative IPC: 1.704 (Simulation time: 01 hr 49 min 27 sec)
Heartbeat CPU 0 instructions: 980000001 cycles: 510728442 heartbeat IPC: 1.625 cumulative IPC: 1.703 (Simulation time: 01 hr 50 min 41 sec)
Heartbeat CPU 0 instructions: 990000000 cycles: 516743725 heartbeat IPC: 1.662 cumulative IPC: 1.702 (Simulation time: 01 hr 51 min 55 sec)
Heartbeat CPU 0 instructions: 1000000001 cycles: 521858370 heartbeat IPC: 1.955 cumulative IPC: 1.705 (Simulation time: 01 hr 53 min 06 sec)
Heartbeat CPU 0 instructions: 1010000000 cycles: 526638131 heartbeat IPC: 2.092 cumulative IPC: 1.709 (Simulation time: 01 hr 54 min 15 sec)
Heartbeat CPU 0 instructions: 1020000001 cycles: 532957683 heartbeat IPC: 1.582 cumulative IPC: 1.707 (Simulation time: 01 hr 55 min 32 sec)
Heartbeat CPU 0 instructions: 1030000002 cycles: 539611727 heartbeat IPC: 1.503 cumulative IPC: 1.704 (Simulation time: 01 hr 56 min 49 sec)
Heartbeat CPU 0 instructions: 1040000001 cycles: 546023243 heartbeat IPC: 1.56 cumulative IPC: 1.702 (Simulation time: 01 hr 58 min 04 sec)
Heartbeat CPU 0 instructions: 1050000000 cycles: 550911903 heartbeat IPC: 2.046 cumulative IPC: 1.706 (Simulation time: 01 hr 59 min 13 sec)
Heartbeat CPU 0 instructions: 1060000000 cycles: 557925895 heartbeat IPC: 1.426 cumulative IPC: 1.702 (Simulation time: 02 hr 00 min 32 sec)
Heartbeat CPU 0 instructions: 1070000000 cycles: 564150167 heartbeat IPC: 1.607 cumulative IPC: 1.701 (Simulation time: 02 hr 01 min 46 sec)
Heartbeat CPU 0 instructions: 1080000000 cycles: 569314641 heartbeat IPC: 1.936 cumulative IPC: 1.703 (Simulation time: 02 hr 02 min 57 sec)
Heartbeat CPU 0 instructions: 1090000000 cycles: 575932515 heartbeat IPC: 1.511 cumulative IPC: 1.701 (Simulation time: 02 hr 04 min 14 sec)
Heartbeat CPU 0 instructions: 1100000001 cycles: 582237314 heartbeat IPC: 1.586 cumulative IPC: 1.699 (Simulation time: 02 hr 05 min 29 sec)
Heartbeat CPU 0 instructions: 1110000003 cycles: 588367708 heartbeat IPC: 1.631 cumulative IPC: 1.698 (Simulation time: 02 hr 06 min 44 sec)
Heartbeat CPU 0 instructions: 1120000001 cycles: 593147034 heartbeat IPC: 2.092 cumulative IPC: 1.702 (Simulation time: 02 hr 07 min 53 sec)
Heartbeat CPU 0 instructions: 1130000002 cycles: 600194884 heartbeat IPC: 1.419 cumulative IPC: 1.698 (Simulation time: 02 hr 09 min 11 sec)
Heartbeat CPU 0 instructions: 1140000001 cycles: 606434687 heartbeat IPC: 1.603 cumulative IPC: 1.697 (Simulation time: 02 hr 10 min 26 sec)
Heartbeat CPU 0 instructions: 1150000000 cycles: 612456388 heartbeat IPC: 1.661 cumulative IPC: 1.697 (Simulation time: 02 hr 11 min 40 sec)
Heartbeat CPU 0 instructions: 1160000002 cycles: 617515431 heartbeat IPC: 1.977 cumulative IPC: 1.699 (Simulation time: 02 hr 12 min 50 sec)
Heartbeat CPU 0 instructions: 1170000001 cycles: 622514128 heartbeat IPC: 2.001 cumulative IPC: 1.702 (Simulation time: 02 hr 14 min 01 sec)
Heartbeat CPU 0 instructions: 1180000000 cycles: 629425174 heartbeat IPC: 1.447 cumulative IPC: 1.699 (Simulation time: 02 hr 15 min 19 sec)
Heartbeat CPU 0 instructions: 1190000000 cycles: 635212981 heartbeat IPC: 1.728 cumulative IPC: 1.699 (Simulation time: 02 hr 16 min 32 sec)
Heartbeat CPU 0 instructions: 1200000002 cycles: 641656124 heartbeat IPC: 1.552 cumulative IPC: 1.698 (Simulation time: 02 hr 17 min 47 sec)
Simulation finished CPU 0 instructions: 1000000004 cycles: 589066448 cumulative IPC: 1.698 (Simulation time: 02 hr 17 min 47 sec)
Simulation complete CPU 0 instructions: 1000000004 cycles: 589066448 cumulative IPC: 1.698 (Simulation time: 02 hr 17 min 47 sec)

ChampSim completed all CPUs

=== Simulation ===
CPU 0 runs /home/faculty/p/pgratz/dpc3_traces/623.xalancbmk_s-700B.champsimtrace.xz
Region of Interest Statistics

CPU 0 cumulative IPC: 1.698 instructions: 1000000004 cycles: 589066448
CPU 0 Branch Prediction Accuracy: 97.27% MPKI: 7.83 Average ROB Occupancy at Mispredict: 40.55
Branch type MPKI
BRANCH_DIRECT_JUMP: 0.107
BRANCH_INDIRECT: 0.335
BRANCH_CONDITIONAL: 5.62
BRANCH_DIRECT_CALL: 0.000181
BRANCH_INDIRECT_CALL: 0.363
BRANCH_RETURN: 1.41

LLC TOTAL        ACCESS:    4733537 HIT:    3341660 MISS:    1391877
LLC LOAD         ACCESS:    1781529 HIT:    1530766 MISS:     250763
LLC RFO          ACCESS:    1259663 HIT:     179261 MISS:    1080402
LLC PREFETCH     ACCESS:          0 HIT:          0 MISS:          0
LLC WRITE        ACCESS:    1528147 HIT:    1518024 MISS:      10123
LLC TRANSLATION  ACCESS:     164198 HIT:     113609 MISS:      50589
LLC PREFETCH REQUESTED:          0 ISSUED:          0 USEFUL:          0 USELESS:          0
LLC AVERAGE MISS LATENCY: 256.3 cycles
cpu0_DTLB TOTAL        ACCESS:  204836259 HIT:  167259309 MISS:   37576950
cpu0_DTLB LOAD         ACCESS:  204836259 HIT:  167259309 MISS:   37576950
cpu0_DTLB RFO          ACCESS:          0 HIT:          0 MISS:          0
cpu0_DTLB PREFETCH     ACCESS:          0 HIT:          0 MISS:          0
cpu0_DTLB WRITE        ACCESS:          0 HIT:          0 MISS:          0
cpu0_DTLB TRANSLATION  ACCESS:          0 HIT:          0 MISS:          0
cpu0_DTLB PREFETCH REQUESTED:          0 ISSUED:          0 USEFUL:          0 USELESS:          0
cpu0_DTLB AVERAGE MISS LATENCY: 5.966 cycles
cpu0_ITLB TOTAL        ACCESS:   31887809 HIT:   31168344 MISS:     719465
cpu0_ITLB LOAD         ACCESS:   31887809 HIT:   31168344 MISS:     719465
cpu0_ITLB RFO          ACCESS:          0 HIT:          0 MISS:          0
cpu0_ITLB PREFETCH     ACCESS:          0 HIT:          0 MISS:          0
cpu0_ITLB WRITE        ACCESS:          0 HIT:          0 MISS:          0
cpu0_ITLB TRANSLATION  ACCESS:          0 HIT:          0 MISS:          0
cpu0_ITLB PREFETCH REQUESTED:          0 ISSUED:          0 USEFUL:          0 USELESS:          0
cpu0_ITLB AVERAGE MISS LATENCY: 3.78 cycles
cpu0_L1D TOTAL        ACCESS:  275846656 HIT:  205726950 MISS:   70119706
cpu0_L1D LOAD         ACCESS:  206205012 HIT:  143377830 MISS:   62827182
cpu0_L1D RFO          ACCESS:          0 HIT:          0 MISS:          0
cpu0_L1D PREFETCH     ACCESS:          0 HIT:          0 MISS:          0
cpu0_L1D WRITE        ACCESS:   68061781 HIT:   62281049 MISS:    5780732
cpu0_L1D TRANSLATION  ACCESS:    1579863 HIT:      68071 MISS:    1511792
cpu0_L1D PREFETCH REQUESTED:          0 ISSUED:          0 USEFUL:          0 USELESS:          0
cpu0_L1D AVERAGE MISS LATENCY: 12.25 cycles
cpu0_L1I TOTAL        ACCESS:   37392019 HIT:   34055807 MISS:    3336212
cpu0_L1I LOAD         ACCESS:   37392019 HIT:   34055807 MISS:    3336212
cpu0_L1I RFO          ACCESS:          0 HIT:          0 MISS:          0
cpu0_L1I PREFETCH     ACCESS:          0 HIT:          0 MISS:          0
cpu0_L1I WRITE        ACCESS:          0 HIT:          0 MISS:          0
cpu0_L1I TRANSLATION  ACCESS:          0 HIT:          0 MISS:          0
cpu0_L1I PREFETCH REQUESTED:          0 ISSUED:          0 USEFUL:          0 USELESS:          0
cpu0_L1I AVERAGE MISS LATENCY: 8.313 cycles
cpu0_L2C TOTAL        ACCESS:   52695830 HIT:   49490362 MISS:    3205468
cpu0_L2C LOAD         ACCESS:   47331134 HIT:   45549567 MISS:    1781567
cpu0_L2C RFO          ACCESS:    1510204 HIT:     250541 MISS:    1259663
cpu0_L2C PREFETCH     ACCESS:          0 HIT:          0 MISS:          0
cpu0_L2C WRITE        ACCESS:    2343137 HIT:    2343097 MISS:         40
cpu0_L2C TRANSLATION  ACCESS:    1511355 HIT:    1347157 MISS:     164198
cpu0_L2C PREFETCH REQUESTED:          0 ISSUED:          0 USEFUL:          0 USELESS:          0
cpu0_L2C AVERAGE MISS LATENCY: 131.7 cycles
cpu0_STLB TOTAL        ACCESS:   27563590 HIT:   25989356 MISS:    1574234
cpu0_STLB LOAD         ACCESS:   27563590 HIT:   25989356 MISS:    1574234
cpu0_STLB RFO          ACCESS:          0 HIT:          0 MISS:          0
cpu0_STLB PREFETCH     ACCESS:          0 HIT:          0 MISS:          0
cpu0_STLB WRITE        ACCESS:          0 HIT:          0 MISS:          0
cpu0_STLB TRANSLATION  ACCESS:          0 HIT:          0 MISS:          0
cpu0_STLB PREFETCH REQUESTED:          0 ISSUED:          0 USEFUL:          0 USELESS:          0
cpu0_STLB AVERAGE MISS LATENCY: 31.9 cycles

DRAM Statistics

Channel 0 RQ ROW_BUFFER_HIT:     651395
  ROW_BUFFER_MISS:     730318
 AVG DBUS CONGESTED CYCLE: 3.953
WQ ROW_BUFFER_HIT: Channel 0 
  ROW_BUFFER_MISS:     158332
  FULL:    1070007
