WARNING: physical memory size is smaller than virtual memory size.
WARNING: option --warmup_instructions is deprecated. Use --warmup-instructions instead.
WARNING: option --simulation_instructions is deprecated. Use --simulation-instructions instead.

*** ChampSim Multicore Out-of-Order Simulator ***
Warmup Instructions: 200000000
Simulation Instructions: 1000000000
Number of CPUs: 1
Page size: 4096

Off-chip DRAM Size: 4 GiB Channels: 1 Width: 64-bit Data Race: 3200 MT/s
Heartbeat CPU 0 instructions: 10000003 cycles: 2500050 heartbeat IPC: 4 cumulative IPC: 4 (Simulation time: 00 hr 00 min 37 sec)
Heartbeat CPU 0 instructions: 20000003 cycles: 5000050 heartbeat IPC: 4 cumulative IPC: 4 (Simulation time: 00 hr 01 min 14 sec)
Heartbeat CPU 0 instructions: 30000000 cycles: 7500330 heartbeat IPC: 4 cumulative IPC: 4 (Simulation time: 00 hr 01 min 52 sec)
Heartbeat CPU 0 instructions: 40000000 cycles: 10000330 heartbeat IPC: 4 cumulative IPC: 4 (Simulation time: 00 hr 02 min 30 sec)
Heartbeat CPU 0 instructions: 50000000 cycles: 12500330 heartbeat IPC: 4 cumulative IPC: 4 (Simulation time: 00 hr 03 min 08 sec)
Heartbeat CPU 0 instructions: 60000000 cycles: 15000330 heartbeat IPC: 4 cumulative IPC: 4 (Simulation time: 00 hr 03 min 46 sec)
Heartbeat CPU 0 instructions: 70000000 cycles: 17500330 heartbeat IPC: 4 cumulative IPC: 4 (Simulation time: 00 hr 04 min 23 sec)
Heartbeat CPU 0 instructions: 80000000 cycles: 20000330 heartbeat IPC: 4 cumulative IPC: 4 (Simulation time: 00 hr 05 min 01 sec)
Heartbeat CPU 0 instructions: 90000000 cycles: 22500330 heartbeat IPC: 4 cumulative IPC: 4 (Simulation time: 00 hr 05 min 39 sec)
Heartbeat CPU 0 instructions: 100000000 cycles: 25000330 heartbeat IPC: 4 cumulative IPC: 4 (Simulation time: 00 hr 06 min 16 sec)
Heartbeat CPU 0 instructions: 110000000 cycles: 27500330 heartbeat IPC: 4 cumulative IPC: 4 (Simulation time: 00 hr 06 min 54 sec)
Heartbeat CPU 0 instructions: 120000000 cycles: 30000330 heartbeat IPC: 4 cumulative IPC: 4 (Simulation time: 00 hr 07 min 32 sec)
Heartbeat CPU 0 instructions: 130000000 cycles: 32500330 heartbeat IPC: 4 cumulative IPC: 4 (Simulation time: 00 hr 08 min 10 sec)
Heartbeat CPU 0 instructions: 140000002 cycles: 35004200 heartbeat IPC: 3.994 cumulative IPC: 4 (Simulation time: 00 hr 08 min 47 sec)
Heartbeat CPU 0 instructions: 150000001 cycles: 37522785 heartbeat IPC: 3.97 cumulative IPC: 3.998 (Simulation time: 00 hr 09 min 25 sec)
Heartbeat CPU 0 instructions: 160000003 cycles: 40024461 heartbeat IPC: 3.997 cumulative IPC: 3.998 (Simulation time: 00 hr 10 min 02 sec)
Heartbeat CPU 0 instructions: 170000000 cycles: 42526641 heartbeat IPC: 3.997 cumulative IPC: 3.997 (Simulation time: 00 hr 10 min 39 sec)
Heartbeat CPU 0 instructions: 180000000 cycles: 45028194 heartbeat IPC: 3.998 cumulative IPC: 3.997 (Simulation time: 00 hr 11 min 16 sec)
Heartbeat CPU 0 instructions: 190000003 cycles: 47530147 heartbeat IPC: 3.997 cumulative IPC: 3.997 (Simulation time: 00 hr 11 min 54 sec)
Heartbeat CPU 0 instructions: 200000003 cycles: 50031730 heartbeat IPC: 3.997 cumulative IPC: 3.997 (Simulation time: 00 hr 12 min 31 sec)
Warmup finished CPU 0 instructions: 200000003 cycles: 50031731 cumulative IPC: 3.997 (Simulation time: 00 hr 12 min 31 sec)
Warmup complete CPU 0 instructions: 200000003 cycles: 50031731 cumulative IPC: 3.997 (Simulation time: 00 hr 12 min 31 sec)
Heartbeat CPU 0 instructions: 210000000 cycles: 53371022 heartbeat IPC: 2.995 cumulative IPC: 2.995 (Simulation time: 00 hr 13 min 19 sec)
Heartbeat CPU 0 instructions: 220000001 cycles: 56782085 heartbeat IPC: 2.932 cumulative IPC: 2.963 (Simulation time: 00 hr 14 min 07 sec)
Heartbeat CPU 0 instructions: 230000000 cycles: 60201795 heartbeat IPC: 2.924 cumulative IPC: 2.95 (Simulation time: 00 hr 14 min 55 sec)
Heartbeat CPU 0 instructions: 240000003 cycles: 63571900 heartbeat IPC: 2.967 cumulative IPC: 2.954 (Simulation time: 00 hr 15 min 43 sec)
Heartbeat CPU 0 instructions: 250000000 cycles: 67022716 heartbeat IPC: 2.898 cumulative IPC: 2.943 (Simulation time: 00 hr 16 min 32 sec)
Heartbeat CPU 0 instructions: 260000004 cycles: 70399929 heartbeat IPC: 2.961 cumulative IPC: 2.946 (Simulation time: 00 hr 17 min 20 sec)
Heartbeat CPU 0 instructions: 270000004 cycles: 73776974 heartbeat IPC: 2.961 cumulative IPC: 2.948 (Simulation time: 00 hr 18 min 08 sec)
Heartbeat CPU 0 instructions: 280000001 cycles: 77215764 heartbeat IPC: 2.908 cumulative IPC: 2.943 (Simulation time: 00 hr 18 min 56 sec)
Heartbeat CPU 0 instructions: 290000004 cycles: 80587164 heartbeat IPC: 2.966 cumulative IPC: 2.945 (Simulation time: 00 hr 19 min 44 sec)
Heartbeat CPU 0 instructions: 300000001 cycles: 83938566 heartbeat IPC: 2.984 cumulative IPC: 2.949 (Simulation time: 00 hr 20 min 32 sec)
Heartbeat CPU 0 instructions: 310000000 cycles: 87380862 heartbeat IPC: 2.905 cumulative IPC: 2.945 (Simulation time: 00 hr 21 min 20 sec)
Heartbeat CPU 0 instructions: 320000000 cycles: 90729443 heartbeat IPC: 2.986 cumulative IPC: 2.949 (Simulation time: 00 hr 22 min 08 sec)
Heartbeat CPU 0 instructions: 330000003 cycles: 94065167 heartbeat IPC: 2.998 cumulative IPC: 2.952 (Simulation time: 00 hr 22 min 56 sec)
Heartbeat CPU 0 instructions: 340000002 cycles: 97384743 heartbeat IPC: 3.012 cumulative IPC: 2.957 (Simulation time: 00 hr 23 min 44 sec)
Heartbeat CPU 0 instructions: 350000003 cycles: 100715203 heartbeat IPC: 3.003 cumulative IPC: 2.96 (Simulation time: 00 hr 24 min 32 sec)
Heartbeat CPU 0 instructions: 360000001 cycles: 104033258 heartbeat IPC: 3.014 cumulative IPC: 2.963 (Simulation time: 00 hr 25 min 20 sec)
Heartbeat CPU 0 instructions: 370000002 cycles: 107362516 heartbeat IPC: 3.004 cumulative IPC: 2.965 (Simulation time: 00 hr 26 min 07 sec)
Heartbeat CPU 0 instructions: 380000001 cycles: 110692678 heartbeat IPC: 3.003 cumulative IPC: 2.967 (Simulation time: 00 hr 26 min 55 sec)
Heartbeat CPU 0 instructions: 390000004 cycles: 114040591 heartbeat IPC: 2.987 cumulative IPC: 2.968 (Simulation time: 00 hr 27 min 43 sec)
Heartbeat CPU 0 instructions: 400000000 cycles: 122361440 heartbeat IPC: 1.202 cumulative IPC: 2.765 (Simulation time: 00 hr 29 min 08 sec)
Heartbeat CPU 0 instructions: 410000001 cycles: 125091990 heartbeat IPC: 3.662 cumulative IPC: 2.798 (Simulation time: 00 hr 29 min 55 sec)
Heartbeat CPU 0 instructions: 420000001 cycles: 128377759 heartbeat IPC: 3.043 cumulative IPC: 2.808 (Simulation time: 00 hr 30 min 45 sec)
Heartbeat CPU 0 instructions: 430000002 cycles: 132230942 heartbeat IPC: 2.595 cumulative IPC: 2.798 (Simulation time: 00 hr 31 min 38 sec)
Heartbeat CPU 0 instructions: 440000000 cycles: 135496003 heartbeat IPC: 3.063 cumulative IPC: 2.808 (Simulation time: 00 hr 32 min 28 sec)
Heartbeat CPU 0 instructions: 450000004 cycles: 138733270 heartbeat IPC: 3.089 cumulative IPC: 2.818 (Simulation time: 00 hr 33 min 17 sec)
Heartbeat CPU 0 instructions: 460000001 cycles: 142057219 heartbeat IPC: 3.008 cumulative IPC: 2.825 (Simulation time: 00 hr 34 min 07 sec)
Heartbeat CPU 0 instructions: 470000000 cycles: 145371290 heartbeat IPC: 3.017 cumulative IPC: 2.832 (Simulation time: 00 hr 34 min 57 sec)
Heartbeat CPU 0 instructions: 480000001 cycles: 148644085 heartbeat IPC: 3.055 cumulative IPC: 2.839 (Simulation time: 00 hr 35 min 47 sec)
Heartbeat CPU 0 instructions: 490000002 cycles: 152004155 heartbeat IPC: 2.976 cumulative IPC: 2.844 (Simulation time: 00 hr 36 min 38 sec)
Heartbeat CPU 0 instructions: 500000002 cycles: 155295239 heartbeat IPC: 3.039 cumulative IPC: 2.85 (Simulation time: 00 hr 37 min 28 sec)
Heartbeat CPU 0 instructions: 510000003 cycles: 158546897 heartbeat IPC: 3.075 cumulative IPC: 2.857 (Simulation time: 00 hr 38 min 18 sec)
Heartbeat CPU 0 instructions: 520000002 cycles: 161741629 heartbeat IPC: 3.13 cumulative IPC: 2.865 (Simulation time: 00 hr 39 min 07 sec)
Heartbeat CPU 0 instructions: 530000004 cycles: 165015650 heartbeat IPC: 3.054 cumulative IPC: 2.87 (Simulation time: 00 hr 39 min 57 sec)
Heartbeat CPU 0 instructions: 540000003 cycles: 168289114 heartbeat IPC: 3.055 cumulative IPC: 2.875 (Simulation time: 00 hr 40 min 47 sec)
Heartbeat CPU 0 instructions: 550000001 cycles: 171493967 heartbeat IPC: 3.12 cumulative IPC: 2.882 (Simulation time: 00 hr 41 min 36 sec)
Heartbeat CPU 0 instructions: 560000003 cycles: 174710661 heartbeat IPC: 3.109 cumulative IPC: 2.887 (Simulation time: 00 hr 42 min 26 sec)
Heartbeat CPU 0 instructions: 570000000 cycles: 183030439 heartbeat IPC: 1.202 cumulative IPC: 2.782 (Simulation time: 00 hr 43 min 52 sec)
Heartbeat CPU 0 instructions: 580000003 cycles: 185854741 heartbeat IPC: 3.541 cumulative IPC: 2.798 (Simulation time: 00 hr 44 min 43 sec)
Heartbeat CPU 0 instructions: 590000003 cycles: 189731862 heartbeat IPC: 2.579 cumulative IPC: 2.792 (Simulation time: 00 hr 45 min 37 sec)
Heartbeat CPU 0 instructions: 600000004 cycles: 193447808 heartbeat IPC: 2.691 cumulative IPC: 2.789 (Simulation time: 00 hr 46 min 33 sec)
Heartbeat CPU 0 instructions: 610000004 cycles: 197184112 heartbeat IPC: 2.676 cumulative IPC: 2.786 (Simulation time: 00 hr 47 min 29 sec)
Heartbeat CPU 0 instructions: 620000000 cycles: 200903579 heartbeat IPC: 2.689 cumulative IPC: 2.784 (Simulation time: 00 hr 48 min 25 sec)
Heartbeat CPU 0 instructions: 630000004 cycles: 204653790 heartbeat IPC: 2.667 cumulative IPC: 2.781 (Simulation time: 00 hr 49 min 22 sec)
Heartbeat CPU 0 instructions: 640000002 cycles: 208343972 heartbeat IPC: 2.71 cumulative IPC: 2.779 (Simulation time: 00 hr 50 min 18 sec)
Heartbeat CPU 0 instructions: 650000001 cycles: 212056565 heartbeat IPC: 2.694 cumulative IPC: 2.777 (Simulation time: 00 hr 51 min 15 sec)
Heartbeat CPU 0 instructions: 660000000 cycles: 215729113 heartbeat IPC: 2.723 cumulative IPC: 2.776 (Simulation time: 00 hr 52 min 11 sec)
Heartbeat CPU 0 instructions: 670000002 cycles: 223497144 heartbeat IPC: 1.287 cumulative IPC: 2.709 (Simulation time: 00 hr 53 min 35 sec)
Heartbeat CPU 0 instructions: 680000001 cycles: 226620313 heartbeat IPC: 3.202 cumulative IPC: 2.718 (Simulation time: 00 hr 54 min 25 sec)
Heartbeat CPU 0 instructions: 690000000 cycles: 230474333 heartbeat IPC: 2.595 cumulative IPC: 2.716 (Simulation time: 00 hr 55 min 21 sec)
Heartbeat CPU 0 instructions: 700000000 cycles: 234186121 heartbeat IPC: 2.694 cumulative IPC: 2.715 (Simulation time: 00 hr 56 min 17 sec)
Heartbeat CPU 0 instructions: 710000001 cycles: 237874309 heartbeat IPC: 2.711 cumulative IPC: 2.715 (Simulation time: 00 hr 57 min 13 sec)
Heartbeat CPU 0 instructions: 720000000 cycles: 241603002 heartbeat IPC: 2.682 cumulative IPC: 2.714 (Simulation time: 00 hr 58 min 09 sec)
Heartbeat CPU 0 instructions: 730000001 cycles: 245340881 heartbeat IPC: 2.675 cumulative IPC: 2.714 (Simulation time: 00 hr 59 min 06 sec)
Heartbeat CPU 0 instructions: 740000001 cycles: 249064137 heartbeat IPC: 2.686 cumulative IPC: 2.713 (Simulation time: 01 hr 00 min 02 sec)
Heartbeat CPU 0 instructions: 750000000 cycles: 252792057 heartbeat IPC: 2.682 cumulative IPC: 2.713 (Simulation time: 01 hr 00 min 59 sec)
Heartbeat CPU 0 instructions: 760000004 cycles: 261320026 heartbeat IPC: 1.173 cumulative IPC: 2.65 (Simulation time: 01 hr 02 min 29 sec)
Heartbeat CPU 0 instructions: 770000001 cycles: 264011385 heartbeat IPC: 3.716 cumulative IPC: 2.664 (Simulation time: 01 hr 03 min 17 sec)
Heartbeat CPU 0 instructions: 780000001 cycles: 267425709 heartbeat IPC: 2.929 cumulative IPC: 2.668 (Simulation time: 01 hr 04 min 08 sec)
Heartbeat CPU 0 instructions: 790000004 cycles: 270474756 heartbeat IPC: 3.28 cumulative IPC: 2.676 (Simulation time: 01 hr 04 min 54 sec)
Heartbeat CPU 0 instructions: 800000003 cycles: 273476403 heartbeat IPC: 3.332 cumulative IPC: 2.685 (Simulation time: 01 hr 05 min 41 sec)
Heartbeat CPU 0 instructions: 810000000 cycles: 276514654 heartbeat IPC: 3.291 cumulative IPC: 2.693 (Simulation time: 01 hr 06 min 28 sec)
Heartbeat CPU 0 instructions: 820000003 cycles: 279548229 heartbeat IPC: 3.296 cumulative IPC: 2.701 (Simulation time: 01 hr 07 min 14 sec)
Heartbeat CPU 0 instructions: 830000003 cycles: 282566212 heartbeat IPC: 3.313 cumulative IPC: 2.709 (Simulation time: 01 hr 08 min 01 sec)
Heartbeat CPU 0 instructions: 840000003 cycles: 285542289 heartbeat IPC: 3.36 cumulative IPC: 2.718 (Simulation time: 01 hr 08 min 47 sec)
Heartbeat CPU 0 instructions: 850000001 cycles: 288458086 heartbeat IPC: 3.43 cumulative IPC: 2.726 (Simulation time: 01 hr 09 min 34 sec)
Heartbeat CPU 0 instructions: 860000000 cycles: 291412765 heartbeat IPC: 3.384 cumulative IPC: 2.734 (Simulation time: 01 hr 10 min 20 sec)
Heartbeat CPU 0 instructions: 870000003 cycles: 294338572 heartbeat IPC: 3.418 cumulative IPC: 2.742 (Simulation time: 01 hr 11 min 06 sec)
Heartbeat CPU 0 instructions: 880000003 cycles: 297286019 heartbeat IPC: 3.393 cumulative IPC: 2.75 (Simulation time: 01 hr 11 min 52 sec)
Heartbeat CPU 0 instructions: 890000000 cycles: 300251786 heartbeat IPC: 3.372 cumulative IPC: 2.758 (Simulation time: 01 hr 12 min 39 sec)
Heartbeat CPU 0 instructions: 900000004 cycles: 303201468 heartbeat IPC: 3.39 cumulative IPC: 2.765 (Simulation time: 01 hr 13 min 25 sec)
Heartbeat CPU 0 instructions: 910000000 cycles: 306136359 heartbeat IPC: 3.407 cumulative IPC: 2.772 (Simulation time: 01 hr 14 min 11 sec)
Heartbeat CPU 0 instructions: 920000004 cycles: 309073924 heartbeat IPC: 3.404 cumulative IPC: 2.779 (Simulation time: 01 hr 14 min 57 sec)
Heartbeat CPU 0 instructions: 930000003 cycles: 311981652 heartbeat IPC: 3.439 cumulative IPC: 2.787 (Simulation time: 01 hr 15 min 43 sec)
Heartbeat CPU 0 instructions: 940000002 cycles: 314899869 heartbeat IPC: 3.427 cumulative IPC: 2.794 (Simulation time: 01 hr 16 min 29 sec)
Heartbeat CPU 0 instructions: 950000001 cycles: 317794194 heartbeat IPC: 3.455 cumulative IPC: 2.801 (Simulation time: 01 hr 17 min 15 sec)
Heartbeat CPU 0 instructions: 960000001 cycles: 320706530 heartbeat IPC: 3.434 cumulative IPC: 2.808 (Simulation time: 01 hr 18 min 01 sec)
Heartbeat CPU 0 instructions: 970000000 cycles: 323635850 heartbeat IPC: 3.414 cumulative IPC: 2.814 (Simulation time: 01 hr 18 min 47 sec)
Heartbeat CPU 0 instructions: 980000003 cycles: 326532300 heartbeat IPC: 3.453 cumulative IPC: 2.821 (Simulation time: 01 hr 19 min 33 sec)
Heartbeat CPU 0 instructions: 990000000 cycles: 329449950 heartbeat IPC: 3.427 cumulative IPC: 2.827 (Simulation time: 01 hr 20 min 19 sec)
Heartbeat CPU 0 instructions: 1000000003 cycles: 332400064 heartbeat IPC: 3.39 cumulative IPC: 2.833 (Simulation time: 01 hr 21 min 05 sec)
Heartbeat CPU 0 instructions: 1010000001 cycles: 335310562 heartbeat IPC: 3.436 cumulative IPC: 2.839 (Simulation time: 01 hr 21 min 51 sec)
Heartbeat CPU 0 instructions: 1020000004 cycles: 338194997 heartbeat IPC: 3.467 cumulative IPC: 2.846 (Simulation time: 01 hr 22 min 37 sec)
Heartbeat CPU 0 instructions: 1030000000 cycles: 341125873 heartbeat IPC: 3.412 cumulative IPC: 2.851 (Simulation time: 01 hr 23 min 24 sec)
Heartbeat CPU 0 instructions: 1040000002 cycles: 344042653 heartbeat IPC: 3.428 cumulative IPC: 2.857 (Simulation time: 01 hr 24 min 10 sec)
Heartbeat CPU 0 instructions: 1050000004 cycles: 346955897 heartbeat IPC: 3.433 cumulative IPC: 2.863 (Simulation time: 01 hr 24 min 57 sec)
Heartbeat CPU 0 instructions: 1060000003 cycles: 349903144 heartbeat IPC: 3.393 cumulative IPC: 2.868 (Simulation time: 01 hr 25 min 43 sec)
Heartbeat CPU 0 instructions: 1070000003 cycles: 352823817 heartbeat IPC: 3.424 cumulative IPC: 2.873 (Simulation time: 01 hr 26 min 30 sec)
Heartbeat CPU 0 instructions: 1080000004 cycles: 355735659 heartbeat IPC: 3.434 cumulative IPC: 2.879 (Simulation time: 01 hr 27 min 16 sec)
Heartbeat CPU 0 instructions: 1090000001 cycles: 358670541 heartbeat IPC: 3.407 cumulative IPC: 2.884 (Simulation time: 01 hr 28 min 03 sec)
Heartbeat CPU 0 instructions: 1100000002 cycles: 361587991 heartbeat IPC: 3.428 cumulative IPC: 2.889 (Simulation time: 01 hr 28 min 50 sec)
Heartbeat CPU 0 instructions: 1110000000 cycles: 364512553 heartbeat IPC: 3.419 cumulative IPC: 2.894 (Simulation time: 01 hr 29 min 36 sec)
Heartbeat CPU 0 instructions: 1120000001 cycles: 367416358 heartbeat IPC: 3.444 cumulative IPC: 2.899 (Simulation time: 01 hr 30 min 22 sec)
Heartbeat CPU 0 instructions: 1130000001 cycles: 370435025 heartbeat IPC: 3.313 cumulative IPC: 2.903 (Simulation time: 01 hr 31 min 09 sec)
Heartbeat CPU 0 instructions: 1140000001 cycles: 373474535 heartbeat IPC: 3.29 cumulative IPC: 2.906 (Simulation time: 01 hr 31 min 55 sec)
Heartbeat CPU 0 instructions: 1150000000 cycles: 376474862 heartbeat IPC: 3.333 cumulative IPC: 2.91 (Simulation time: 01 hr 32 min 42 sec)
Heartbeat CPU 0 instructions: 1160000002 cycles: 379460646 heartbeat IPC: 3.349 cumulative IPC: 2.914 (Simulation time: 01 hr 33 min 28 sec)
Heartbeat CPU 0 instructions: 1170000004 cycles: 382418692 heartbeat IPC: 3.381 cumulative IPC: 2.918 (Simulation time: 01 hr 34 min 14 sec)
Heartbeat CPU 0 instructions: 1180000001 cycles: 385356497 heartbeat IPC: 3.404 cumulative IPC: 2.923 (Simulation time: 01 hr 35 min 00 sec)
Heartbeat CPU 0 instructions: 1190000003 cycles: 388302837 heartbeat IPC: 3.394 cumulative IPC: 2.927 (Simulation time: 01 hr 35 min 46 sec)
Heartbeat CPU 0 instructions: 1200000004 cycles: 391265801 heartbeat IPC: 3.375 cumulative IPC: 2.931 (Simulation time: 01 hr 36 min 33 sec)
Simulation finished CPU 0 instructions: 1000000001 cycles: 341234071 cumulative IPC: 2.931 (Simulation time: 01 hr 36 min 33 sec)
Simulation complete CPU 0 instructions: 1000000001 cycles: 341234071 cumulative IPC: 2.931 (Simulation time: 01 hr 36 min 33 sec)

ChampSim completed all CPUs

=== Simulation ===
CPU 0 runs /home/faculty/p/pgratz/dpc3_traces/625.x264_s-18B.champsimtrace.xz
Region of Interest Statistics

CPU 0 cumulative IPC: 2.931 instructions: 1000000001 cycles: 341234071
CPU 0 Branch Prediction Accuracy: 93.98% MPKI: 2.252 Average ROB Occupancy at Mispredict: 143.8
Branch type MPKI
BRANCH_DIRECT_JUMP: 0.000467
BRANCH_INDIRECT: 0.000602
BRANCH_CONDITIONAL: 2.16
BRANCH_DIRECT_CALL: 0.000215
BRANCH_INDIRECT_CALL: 0.0141
BRANCH_RETURN: 0.0743

LLC TOTAL        ACCESS:    1746515 HIT:     674594 MISS:    1071921
LLC LOAD         ACCESS:     858836 HIT:     185779 MISS:     673057
LLC RFO          ACCESS:     397410 HIT:       1863 MISS:     395547
LLC PREFETCH     ACCESS:          0 HIT:          0 MISS:          0
LLC WRITE        ACCESS:     484278 HIT:     482982 MISS:       1296
LLC TRANSLATION  ACCESS:       5991 HIT:       3970 MISS:       2021
LLC PREFETCH REQUESTED:          0 ISSUED:          0 USEFUL:          0 USELESS:          0
LLC AVERAGE MISS LATENCY: 457.8 cycles
cpu0_DTLB TOTAL        ACCESS:  117221517 HIT:  115378363 MISS:    1843154
cpu0_DTLB LOAD         ACCESS:  117221517 HIT:  115378363 MISS:    1843154
cpu0_DTLB RFO          ACCESS:          0 HIT:          0 MISS:          0
cpu0_DTLB PREFETCH     ACCESS:          0 HIT:          0 MISS:          0
cpu0_DTLB WRITE        ACCESS:          0 HIT:          0 MISS:          0
cpu0_DTLB TRANSLATION  ACCESS:          0 HIT:          0 MISS:          0
cpu0_DTLB PREFETCH REQUESTED:          0 ISSUED:          0 USEFUL:          0 USELESS:          0
cpu0_DTLB AVERAGE MISS LATENCY: 4.451 cycles
cpu0_ITLB TOTAL        ACCESS:   14034365 HIT:   14030038 MISS:       4327
cpu0_ITLB LOAD         ACCESS:   14034365 HIT:   14030038 MISS:       4327
cpu0_ITLB RFO          ACCESS:          0 HIT:          0 MISS:          0
cpu0_ITLB PREFETCH     ACCESS:          0 HIT:          0 MISS:          0
cpu0_ITLB WRITE        ACCESS:          0 HIT:          0 MISS:          0
cpu0_ITLB TRANSLATION  ACCESS:          0 HIT:          0 MISS:          0
cpu0_ITLB PREFETCH REQUESTED:          0 ISSUED:          0 USEFUL:          0 USELESS:          0
cpu0_ITLB AVERAGE MISS LATENCY: 18.88 cycles
cpu0_L1D TOTAL        ACCESS:  161676652 HIT:  154726277 MISS:    6950375
cpu0_L1D LOAD         ACCESS:   85348957 HIT:   82214484 MISS:    3134473
cpu0_L1D RFO          ACCESS:          0 HIT:          0 MISS:          0
cpu0_L1D PREFETCH     ACCESS:          0 HIT:          0 MISS:          0
cpu0_L1D WRITE        ACCESS:   76311900 HIT:   72505091 MISS:    3806809
cpu0_L1D TRANSLATION  ACCESS:      15795 HIT:       6702 MISS:       9093
cpu0_L1D PREFETCH REQUESTED:          0 ISSUED:          0 USEFUL:          0 USELESS:          0
cpu0_L1D AVERAGE MISS LATENCY: 68.84 cycles
cpu0_L1I TOTAL        ACCESS:   17704022 HIT:   15046791 MISS:    2657231
cpu0_L1I LOAD         ACCESS:   17704022 HIT:   15046791 MISS:    2657231
cpu0_L1I RFO          ACCESS:          0 HIT:          0 MISS:          0
cpu0_L1I PREFETCH     ACCESS:          0 HIT:          0 MISS:          0
cpu0_L1I WRITE        ACCESS:          0 HIT:          0 MISS:          0
cpu0_L1I TRANSLATION  ACCESS:          0 HIT:          0 MISS:          0
cpu0_L1I PREFETCH REQUESTED:          0 ISSUED:          0 USEFUL:          0 USELESS:          0
cpu0_L1I AVERAGE MISS LATENCY: 6.558 cycles
cpu0_L2C TOTAL        ACCESS:    4295703 HIT:    3032659 MISS:    1263044
cpu0_L2C LOAD         ACCESS:    3019803 HIT:    2160967 MISS:     858836
cpu0_L2C RFO          ACCESS:     568572 HIT:     171162 MISS:     397410
cpu0_L2C PREFETCH     ACCESS:          0 HIT:          0 MISS:          0
cpu0_L2C WRITE        ACCESS:     698356 HIT:     697549 MISS:        807
cpu0_L2C TRANSLATION  ACCESS:       8972 HIT:       2981 MISS:       5991
cpu0_L2C PREFETCH REQUESTED:          0 ISSUED:          0 USEFUL:          0 USELESS:          0
cpu0_L2C AVERAGE MISS LATENCY: 409.3 cycles
cpu0_STLB TOTAL        ACCESS:    1070924 HIT:    1055211 MISS:      15713
cpu0_STLB LOAD         ACCESS:    1070924 HIT:    1055211 MISS:      15713
cpu0_STLB RFO          ACCESS:          0 HIT:          0 MISS:          0
cpu0_STLB PREFETCH     ACCESS:          0 HIT:          0 MISS:          0
cpu0_STLB WRITE        ACCESS:          0 HIT:          0 MISS:          0
cpu0_STLB TRANSLATION  ACCESS:          0 HIT:          0 MISS:          0
cpu0_STLB PREFETCH REQUESTED:          0 ISSUED:          0 USEFUL:          0 USELESS:          0
cpu0_STLB AVERAGE MISS LATENCY: 172 cycles

DRAM Statistics

Channel 0 RQ ROW_BUFFER_HIT:     282554
  ROW_BUFFER_MISS:     787986
 AVG DBUS CONGESTED CYCLE: 3.958
WQ ROW_BUFFER_HIT: Channel 0 
  ROW_BUFFER_MISS:      79428
  FULL:     413194
