WARNING: physical memory size is smaller than virtual memory size.
WARNING: option --warmup_instructions is deprecated. Use --warmup-instructions instead.
WARNING: option --simulation_instructions is deprecated. Use --simulation-instructions instead.

*** ChampSim Multicore Out-of-Order Simulator ***
Warmup Instructions: 200000000
Simulation Instructions: 1000000000
Number of CPUs: 1
Page size: 4096

Off-chip DRAM Size: 4 GiB Channels: 1 Width: 64-bit Data Race: 3200 MT/s
Heartbeat CPU 0 instructions: 10000003 cycles: 2614383 heartbeat IPC: 3.825 cumulative IPC: 3.825 (Simulation time: 00 hr 00 min 37 sec)
Heartbeat CPU 0 instructions: 20000002 cycles: 5115353 heartbeat IPC: 3.998 cumulative IPC: 3.91 (Simulation time: 00 hr 01 min 15 sec)
Heartbeat CPU 0 instructions: 30000001 cycles: 7616345 heartbeat IPC: 3.998 cumulative IPC: 3.939 (Simulation time: 00 hr 01 min 52 sec)
Heartbeat CPU 0 instructions: 40000002 cycles: 10117576 heartbeat IPC: 3.998 cumulative IPC: 3.954 (Simulation time: 00 hr 02 min 30 sec)
Heartbeat CPU 0 instructions: 50000001 cycles: 12617834 heartbeat IPC: 4 cumulative IPC: 3.963 (Simulation time: 00 hr 03 min 09 sec)
Heartbeat CPU 0 instructions: 60000001 cycles: 15117834 heartbeat IPC: 4 cumulative IPC: 3.969 (Simulation time: 00 hr 03 min 49 sec)
Heartbeat CPU 0 instructions: 70000001 cycles: 17617834 heartbeat IPC: 4 cumulative IPC: 3.973 (Simulation time: 00 hr 04 min 27 sec)
Heartbeat CPU 0 instructions: 80000000 cycles: 20127062 heartbeat IPC: 3.985 cumulative IPC: 3.975 (Simulation time: 00 hr 05 min 05 sec)
Heartbeat CPU 0 instructions: 90000002 cycles: 22676326 heartbeat IPC: 3.923 cumulative IPC: 3.969 (Simulation time: 00 hr 05 min 42 sec)
Heartbeat CPU 0 instructions: 100000000 cycles: 25304791 heartbeat IPC: 3.805 cumulative IPC: 3.952 (Simulation time: 00 hr 06 min 20 sec)
Heartbeat CPU 0 instructions: 110000000 cycles: 28533896 heartbeat IPC: 3.097 cumulative IPC: 3.855 (Simulation time: 00 hr 07 min 03 sec)
Heartbeat CPU 0 instructions: 120000002 cycles: 31038583 heartbeat IPC: 3.993 cumulative IPC: 3.866 (Simulation time: 00 hr 07 min 41 sec)
Heartbeat CPU 0 instructions: 130000001 cycles: 33539549 heartbeat IPC: 3.998 cumulative IPC: 3.876 (Simulation time: 00 hr 08 min 19 sec)
Heartbeat CPU 0 instructions: 140000001 cycles: 36040759 heartbeat IPC: 3.998 cumulative IPC: 3.884 (Simulation time: 00 hr 08 min 58 sec)
Heartbeat CPU 0 instructions: 150000000 cycles: 38541172 heartbeat IPC: 3.999 cumulative IPC: 3.892 (Simulation time: 00 hr 09 min 37 sec)
Heartbeat CPU 0 instructions: 160000001 cycles: 41041206 heartbeat IPC: 4 cumulative IPC: 3.899 (Simulation time: 00 hr 10 min 17 sec)
Heartbeat CPU 0 instructions: 170000001 cycles: 43541234 heartbeat IPC: 4 cumulative IPC: 3.904 (Simulation time: 00 hr 10 min 56 sec)
Heartbeat CPU 0 instructions: 180000002 cycles: 46048262 heartbeat IPC: 3.989 cumulative IPC: 3.909 (Simulation time: 00 hr 11 min 34 sec)
Heartbeat CPU 0 instructions: 190000002 cycles: 48582199 heartbeat IPC: 3.946 cumulative IPC: 3.911 (Simulation time: 00 hr 12 min 11 sec)
Heartbeat CPU 0 instructions: 200000000 cycles: 51165173 heartbeat IPC: 3.872 cumulative IPC: 3.909 (Simulation time: 00 hr 12 min 48 sec)
Warmup finished CPU 0 instructions: 200000000 cycles: 51165174 cumulative IPC: 3.909 (Simulation time: 00 hr 12 min 48 sec)
Warmup complete CPU 0 instructions: 200000000 cycles: 51165174 cumulative IPC: 3.909 (Simulation time: 00 hr 12 min 48 sec)
Heartbeat CPU 0 instructions: 210000003 cycles: 82370640 heartbeat IPC: 0.3205 cumulative IPC: 0.3205 (Simulation time: 00 hr 16 min 17 sec)
Heartbeat CPU 0 instructions: 220000001 cycles: 86050535 heartbeat IPC: 2.717 cumulative IPC: 0.5733 (Simulation time: 00 hr 17 min 08 sec)
Heartbeat CPU 0 instructions: 230000001 cycles: 89401369 heartbeat IPC: 2.984 cumulative IPC: 0.7846 (Simulation time: 00 hr 17 min 57 sec)
Heartbeat CPU 0 instructions: 240000000 cycles: 92745885 heartbeat IPC: 2.99 cumulative IPC: 0.962 (Simulation time: 00 hr 18 min 46 sec)
Heartbeat CPU 0 instructions: 250000000 cycles: 96671596 heartbeat IPC: 2.547 cumulative IPC: 1.099 (Simulation time: 00 hr 19 min 37 sec)
Heartbeat CPU 0 instructions: 260000000 cycles: 101114187 heartbeat IPC: 2.251 cumulative IPC: 1.201 (Simulation time: 00 hr 20 min 32 sec)
Heartbeat CPU 0 instructions: 270000000 cycles: 105527620 heartbeat IPC: 2.266 cumulative IPC: 1.288 (Simulation time: 00 hr 21 min 26 sec)
Heartbeat CPU 0 instructions: 280000001 cycles: 109592497 heartbeat IPC: 2.46 cumulative IPC: 1.369 (Simulation time: 00 hr 22 min 18 sec)
Heartbeat CPU 0 instructions: 290000003 cycles: 114014203 heartbeat IPC: 2.262 cumulative IPC: 1.432 (Simulation time: 00 hr 23 min 12 sec)
Heartbeat CPU 0 instructions: 300000001 cycles: 119034673 heartbeat IPC: 1.992 cumulative IPC: 1.473 (Simulation time: 00 hr 24 min 09 sec)
Heartbeat CPU 0 instructions: 310000000 cycles: 151145300 heartbeat IPC: 0.3114 cumulative IPC: 1.1 (Simulation time: 00 hr 27 min 49 sec)
Heartbeat CPU 0 instructions: 320000004 cycles: 155585023 heartbeat IPC: 2.252 cumulative IPC: 1.149 (Simulation time: 00 hr 28 min 44 sec)
Heartbeat CPU 0 instructions: 330000002 cycles: 158991672 heartbeat IPC: 2.935 cumulative IPC: 1.206 (Simulation time: 00 hr 29 min 33 sec)
Heartbeat CPU 0 instructions: 340000004 cycles: 162333867 heartbeat IPC: 2.992 cumulative IPC: 1.259 (Simulation time: 00 hr 30 min 21 sec)
Heartbeat CPU 0 instructions: 350000004 cycles: 165914640 heartbeat IPC: 2.793 cumulative IPC: 1.307 (Simulation time: 00 hr 31 min 11 sec)
Heartbeat CPU 0 instructions: 360000000 cycles: 170055180 heartbeat IPC: 2.415 cumulative IPC: 1.346 (Simulation time: 00 hr 32 min 04 sec)
Heartbeat CPU 0 instructions: 370000000 cycles: 174496917 heartbeat IPC: 2.251 cumulative IPC: 1.378 (Simulation time: 00 hr 32 min 58 sec)
Heartbeat CPU 0 instructions: 380000002 cycles: 178693795 heartbeat IPC: 2.383 cumulative IPC: 1.411 (Simulation time: 00 hr 33 min 51 sec)
Heartbeat CPU 0 instructions: 390000000 cycles: 183025930 heartbeat IPC: 2.308 cumulative IPC: 1.441 (Simulation time: 00 hr 34 min 46 sec)
Heartbeat CPU 0 instructions: 400000001 cycles: 186911081 heartbeat IPC: 2.574 cumulative IPC: 1.473 (Simulation time: 00 hr 35 min 35 sec)
Heartbeat CPU 0 instructions: 410000000 cycles: 197769538 heartbeat IPC: 0.9209 cumulative IPC: 1.432 (Simulation time: 00 hr 37 min 12 sec)
Heartbeat CPU 0 instructions: 420000002 cycles: 224675834 heartbeat IPC: 0.3717 cumulative IPC: 1.268 (Simulation time: 00 hr 40 min 16 sec)
Heartbeat CPU 0 instructions: 430000000 cycles: 228324397 heartbeat IPC: 2.741 cumulative IPC: 1.298 (Simulation time: 00 hr 41 min 07 sec)
Heartbeat CPU 0 instructions: 440000003 cycles: 231706202 heartbeat IPC: 2.957 cumulative IPC: 1.329 (Simulation time: 00 hr 41 min 56 sec)
Heartbeat CPU 0 instructions: 450000002 cycles: 235100088 heartbeat IPC: 2.946 cumulative IPC: 1.359 (Simulation time: 00 hr 42 min 45 sec)
Heartbeat CPU 0 instructions: 460000001 cycles: 239189770 heartbeat IPC: 2.445 cumulative IPC: 1.383 (Simulation time: 00 hr 43 min 37 sec)
Heartbeat CPU 0 instructions: 470000000 cycles: 243600583 heartbeat IPC: 2.267 cumulative IPC: 1.403 (Simulation time: 00 hr 44 min 32 sec)
Heartbeat CPU 0 instructions: 480000004 cycles: 247909285 heartbeat IPC: 2.321 cumulative IPC: 1.423 (Simulation time: 00 hr 45 min 25 sec)
Heartbeat CPU 0 instructions: 490000001 cycles: 252187200 heartbeat IPC: 2.338 cumulative IPC: 1.443 (Simulation time: 00 hr 46 min 19 sec)
Heartbeat CPU 0 instructions: 500000000 cycles: 256054395 heartbeat IPC: 2.586 cumulative IPC: 1.464 (Simulation time: 00 hr 47 min 08 sec)
Heartbeat CPU 0 instructions: 510000000 cycles: 263492732 heartbeat IPC: 1.344 cumulative IPC: 1.46 (Simulation time: 00 hr 48 min 26 sec)
Heartbeat CPU 0 instructions: 520000003 cycles: 293880548 heartbeat IPC: 0.3291 cumulative IPC: 1.318 (Simulation time: 00 hr 51 min 50 sec)
Heartbeat CPU 0 instructions: 530000003 cycles: 297556303 heartbeat IPC: 2.721 cumulative IPC: 1.339 (Simulation time: 00 hr 52 min 41 sec)
Heartbeat CPU 0 instructions: 540000001 cycles: 300936453 heartbeat IPC: 2.958 cumulative IPC: 1.361 (Simulation time: 00 hr 53 min 30 sec)
Heartbeat CPU 0 instructions: 550000001 cycles: 304340721 heartbeat IPC: 2.937 cumulative IPC: 1.382 (Simulation time: 00 hr 54 min 19 sec)
Heartbeat CPU 0 instructions: 560000000 cycles: 308323598 heartbeat IPC: 2.511 cumulative IPC: 1.4 (Simulation time: 00 hr 55 min 11 sec)
Heartbeat CPU 0 instructions: 570000004 cycles: 312633672 heartbeat IPC: 2.32 cumulative IPC: 1.415 (Simulation time: 00 hr 56 min 04 sec)
Heartbeat CPU 0 instructions: 580000003 cycles: 316966827 heartbeat IPC: 2.308 cumulative IPC: 1.43 (Simulation time: 00 hr 56 min 58 sec)
Heartbeat CPU 0 instructions: 590000000 cycles: 321105929 heartbeat IPC: 2.416 cumulative IPC: 1.445 (Simulation time: 00 hr 57 min 51 sec)
Heartbeat CPU 0 instructions: 600000000 cycles: 325084630 heartbeat IPC: 2.513 cumulative IPC: 1.46 (Simulation time: 00 hr 58 min 41 sec)
Heartbeat CPU 0 instructions: 610000004 cycles: 332257102 heartbeat IPC: 1.394 cumulative IPC: 1.459 (Simulation time: 00 hr 59 min 57 sec)
Heartbeat CPU 0 instructions: 620000001 cycles: 362737898 heartbeat IPC: 0.3281 cumulative IPC: 1.348 (Simulation time: 01 hr 03 min 21 sec)
Heartbeat CPU 0 instructions: 630000002 cycles: 366430069 heartbeat IPC: 2.708 cumulative IPC: 1.364 (Simulation time: 01 hr 04 min 12 sec)
Heartbeat CPU 0 instructions: 640000004 cycles: 369815512 heartbeat IPC: 2.954 cumulative IPC: 1.381 (Simulation time: 01 hr 05 min 01 sec)
Heartbeat CPU 0 instructions: 650000000 cycles: 373485520 heartbeat IPC: 2.725 cumulative IPC: 1.396 (Simulation time: 01 hr 05 min 51 sec)
Heartbeat CPU 0 instructions: 660000001 cycles: 377893670 heartbeat IPC: 2.269 cumulative IPC: 1.408 (Simulation time: 01 hr 06 min 45 sec)
Heartbeat CPU 0 instructions: 670000000 cycles: 382305668 heartbeat IPC: 2.267 cumulative IPC: 1.419 (Simulation time: 01 hr 07 min 40 sec)
Heartbeat CPU 0 instructions: 680000000 cycles: 386346918 heartbeat IPC: 2.474 cumulative IPC: 1.432 (Simulation time: 01 hr 08 min 32 sec)
Heartbeat CPU 0 instructions: 690000001 cycles: 390380315 heartbeat IPC: 2.479 cumulative IPC: 1.445 (Simulation time: 01 hr 09 min 23 sec)
Heartbeat CPU 0 instructions: 700000000 cycles: 396974712 heartbeat IPC: 1.516 cumulative IPC: 1.446 (Simulation time: 01 hr 10 min 34 sec)
Heartbeat CPU 0 instructions: 710000000 cycles: 428017251 heartbeat IPC: 0.3221 cumulative IPC: 1.353 (Simulation time: 01 hr 14 min 03 sec)
Heartbeat CPU 0 instructions: 720000002 cycles: 431749311 heartbeat IPC: 2.679 cumulative IPC: 1.366 (Simulation time: 01 hr 14 min 55 sec)
Heartbeat CPU 0 instructions: 730000003 cycles: 435131233 heartbeat IPC: 2.957 cumulative IPC: 1.38 (Simulation time: 01 hr 15 min 44 sec)
Heartbeat CPU 0 instructions: 740000002 cycles: 438958807 heartbeat IPC: 2.613 cumulative IPC: 1.392 (Simulation time: 01 hr 16 min 35 sec)
Heartbeat CPU 0 instructions: 750000003 cycles: 443228105 heartbeat IPC: 2.342 cumulative IPC: 1.403 (Simulation time: 01 hr 17 min 28 sec)
Heartbeat CPU 0 instructions: 760000000 cycles: 447627161 heartbeat IPC: 2.273 cumulative IPC: 1.412 (Simulation time: 01 hr 18 min 22 sec)
Heartbeat CPU 0 instructions: 770000003 cycles: 451729847 heartbeat IPC: 2.437 cumulative IPC: 1.423 (Simulation time: 01 hr 19 min 14 sec)
Heartbeat CPU 0 instructions: 780000002 cycles: 455825996 heartbeat IPC: 2.441 cumulative IPC: 1.433 (Simulation time: 01 hr 20 min 06 sec)
Heartbeat CPU 0 instructions: 790000003 cycles: 461569286 heartbeat IPC: 1.741 cumulative IPC: 1.438 (Simulation time: 01 hr 21 min 08 sec)
Heartbeat CPU 0 instructions: 800000000 cycles: 493460743 heartbeat IPC: 0.3136 cumulative IPC: 1.357 (Simulation time: 01 hr 24 min 46 sec)
Heartbeat CPU 0 instructions: 810000001 cycles: 497167796 heartbeat IPC: 2.698 cumulative IPC: 1.368 (Simulation time: 01 hr 25 min 37 sec)
Heartbeat CPU 0 instructions: 820000003 cycles: 500502607 heartbeat IPC: 2.999 cumulative IPC: 1.38 (Simulation time: 01 hr 26 min 26 sec)
Heartbeat CPU 0 instructions: 830000001 cycles: 504464042 heartbeat IPC: 2.524 cumulative IPC: 1.39 (Simulation time: 01 hr 27 min 18 sec)
Heartbeat CPU 0 instructions: 840000001 cycles: 508545191 heartbeat IPC: 2.45 cumulative IPC: 1.399 (Simulation time: 01 hr 28 min 10 sec)
Heartbeat CPU 0 instructions: 850000003 cycles: 512909734 heartbeat IPC: 2.291 cumulative IPC: 1.408 (Simulation time: 01 hr 29 min 04 sec)
Heartbeat CPU 0 instructions: 860000001 cycles: 516894159 heartbeat IPC: 2.51 cumulative IPC: 1.417 (Simulation time: 01 hr 29 min 55 sec)
Heartbeat CPU 0 instructions: 870000000 cycles: 521152510 heartbeat IPC: 2.348 cumulative IPC: 1.426 (Simulation time: 01 hr 30 min 48 sec)
Heartbeat CPU 0 instructions: 880000000 cycles: 526757819 heartbeat IPC: 1.784 cumulative IPC: 1.43 (Simulation time: 01 hr 31 min 50 sec)
Heartbeat CPU 0 instructions: 890000004 cycles: 558658238 heartbeat IPC: 0.3135 cumulative IPC: 1.36 (Simulation time: 01 hr 35 min 26 sec)
Heartbeat CPU 0 instructions: 900000000 cycles: 562275465 heartbeat IPC: 2.765 cumulative IPC: 1.37 (Simulation time: 01 hr 36 min 17 sec)
Heartbeat CPU 0 instructions: 910000000 cycles: 565673514 heartbeat IPC: 2.943 cumulative IPC: 1.38 (Simulation time: 01 hr 37 min 06 sec)
Heartbeat CPU 0 instructions: 920000000 cycles: 569010854 heartbeat IPC: 2.996 cumulative IPC: 1.39 (Simulation time: 01 hr 37 min 54 sec)
Heartbeat CPU 0 instructions: 930000001 cycles: 573193589 heartbeat IPC: 2.391 cumulative IPC: 1.398 (Simulation time: 01 hr 38 min 47 sec)
Heartbeat CPU 0 instructions: 940000004 cycles: 577638300 heartbeat IPC: 2.25 cumulative IPC: 1.406 (Simulation time: 01 hr 39 min 42 sec)
Heartbeat CPU 0 instructions: 950000002 cycles: 581972953 heartbeat IPC: 2.307 cumulative IPC: 1.413 (Simulation time: 01 hr 40 min 36 sec)
Heartbeat CPU 0 instructions: 960000000 cycles: 586125276 heartbeat IPC: 2.408 cumulative IPC: 1.421 (Simulation time: 01 hr 41 min 29 sec)
Heartbeat CPU 0 instructions: 970000003 cycles: 590072087 heartbeat IPC: 2.534 cumulative IPC: 1.429 (Simulation time: 01 hr 42 min 19 sec)
Heartbeat CPU 0 instructions: 980000001 cycles: 596705119 heartbeat IPC: 1.508 cumulative IPC: 1.43 (Simulation time: 01 hr 43 min 31 sec)
Heartbeat CPU 0 instructions: 990000003 cycles: 627778379 heartbeat IPC: 0.3218 cumulative IPC: 1.37 (Simulation time: 01 hr 47 min 00 sec)
Heartbeat CPU 0 instructions: 1000000002 cycles: 631480784 heartbeat IPC: 2.701 cumulative IPC: 1.379 (Simulation time: 01 hr 47 min 51 sec)
Heartbeat CPU 0 instructions: 1010000000 cycles: 634819730 heartbeat IPC: 2.995 cumulative IPC: 1.388 (Simulation time: 01 hr 48 min 39 sec)
Heartbeat CPU 0 instructions: 1020000001 cycles: 638288356 heartbeat IPC: 2.883 cumulative IPC: 1.397 (Simulation time: 01 hr 49 min 28 sec)
Heartbeat CPU 0 instructions: 1030000000 cycles: 642662960 heartbeat IPC: 2.286 cumulative IPC: 1.403 (Simulation time: 01 hr 50 min 22 sec)
Heartbeat CPU 0 instructions: 1040000001 cycles: 646723466 heartbeat IPC: 2.463 cumulative IPC: 1.41 (Simulation time: 01 hr 51 min 15 sec)
Heartbeat CPU 0 instructions: 1050000004 cycles: 650828152 heartbeat IPC: 2.436 cumulative IPC: 1.417 (Simulation time: 01 hr 52 min 06 sec)
Heartbeat CPU 0 instructions: 1060000004 cycles: 655294509 heartbeat IPC: 2.239 cumulative IPC: 1.424 (Simulation time: 01 hr 53 min 01 sec)
Heartbeat CPU 0 instructions: 1070000001 cycles: 659320311 heartbeat IPC: 2.484 cumulative IPC: 1.431 (Simulation time: 01 hr 53 min 51 sec)
Heartbeat CPU 0 instructions: 1080000001 cycles: 684604972 heartbeat IPC: 0.3955 cumulative IPC: 1.389 (Simulation time: 01 hr 56 min 52 sec)
Heartbeat CPU 0 instructions: 1090000000 cycles: 696799628 heartbeat IPC: 0.82 cumulative IPC: 1.378 (Simulation time: 01 hr 58 min 31 sec)
Heartbeat CPU 0 instructions: 1100000000 cycles: 700318143 heartbeat IPC: 2.842 cumulative IPC: 1.386 (Simulation time: 01 hr 59 min 21 sec)
Heartbeat CPU 0 instructions: 1110000001 cycles: 703703154 heartbeat IPC: 2.954 cumulative IPC: 1.395 (Simulation time: 02 hr 00 min 10 sec)
Heartbeat CPU 0 instructions: 1120000000 cycles: 707129732 heartbeat IPC: 2.918 cumulative IPC: 1.403 (Simulation time: 02 hr 00 min 59 sec)
Heartbeat CPU 0 instructions: 1130000003 cycles: 711650665 heartbeat IPC: 2.212 cumulative IPC: 1.408 (Simulation time: 02 hr 01 min 54 sec)
Heartbeat CPU 0 instructions: 1140000002 cycles: 716105921 heartbeat IPC: 2.245 cumulative IPC: 1.414 (Simulation time: 02 hr 02 min 48 sec)
Heartbeat CPU 0 instructions: 1150000004 cycles: 720073667 heartbeat IPC: 2.52 cumulative IPC: 1.42 (Simulation time: 02 hr 03 min 39 sec)
Heartbeat CPU 0 instructions: 1160000004 cycles: 724648191 heartbeat IPC: 2.186 cumulative IPC: 1.425 (Simulation time: 02 hr 04 min 35 sec)
Heartbeat CPU 0 instructions: 1170000000 cycles: 728769373 heartbeat IPC: 2.426 cumulative IPC: 1.432 (Simulation time: 02 hr 05 min 27 sec)
Heartbeat CPU 0 instructions: 1180000001 cycles: 755589658 heartbeat IPC: 0.3729 cumulative IPC: 1.391 (Simulation time: 02 hr 08 min 35 sec)
Heartbeat CPU 0 instructions: 1190000001 cycles: 765932253 heartbeat IPC: 0.9669 cumulative IPC: 1.385 (Simulation time: 02 hr 10 min 04 sec)
Heartbeat CPU 0 instructions: 1200000002 cycles: 769401600 heartbeat IPC: 2.882 cumulative IPC: 1.392 (Simulation time: 02 hr 10 min 54 sec)
Simulation finished CPU 0 instructions: 1000000002 cycles: 718236427 cumulative IPC: 1.392 (Simulation time: 02 hr 10 min 54 sec)
Simulation complete CPU 0 instructions: 1000000002 cycles: 718236427 cumulative IPC: 1.392 (Simulation time: 02 hr 10 min 54 sec)

ChampSim completed all CPUs

=== Simulation ===
CPU 0 runs /home/faculty/p/pgratz/dpc3_traces/627.cam4_s-573B.champsimtrace.xz
Region of Interest Statistics

CPU 0 cumulative IPC: 1.392 instructions: 1000000002 cycles: 718236427
CPU 0 Branch Prediction Accuracy: 94.75% MPKI: 7.025 Average ROB Occupancy at Mispredict: 64.6
Branch type MPKI
BRANCH_DIRECT_JUMP: 0.00503
BRANCH_INDIRECT: 0.00132
BRANCH_CONDITIONAL: 6.37
BRANCH_DIRECT_CALL: 0.0167
BRANCH_INDIRECT_CALL: 0
BRANCH_RETURN: 0.633

LLC TOTAL        ACCESS:   11420587 HIT:    5808989 MISS:    5611598
LLC LOAD         ACCESS:     689946 HIT:     315561 MISS:     374385
LLC RFO          ACCESS:    5324945 HIT:     107489 MISS:    5217456
LLC PREFETCH     ACCESS:          0 HIT:          0 MISS:          0
LLC WRITE        ACCESS:    5389028 HIT:    5384265 MISS:       4763
LLC TRANSLATION  ACCESS:      16668 HIT:       1674 MISS:      14994
LLC PREFETCH REQUESTED:          0 ISSUED:          0 USEFUL:          0 USELESS:          0
LLC AVERAGE MISS LATENCY: 1846 cycles
cpu0_DTLB TOTAL        ACCESS:  151621795 HIT:  150001657 MISS:    1620138
cpu0_DTLB LOAD         ACCESS:  151621795 HIT:  150001657 MISS:    1620138
cpu0_DTLB RFO          ACCESS:          0 HIT:          0 MISS:          0
cpu0_DTLB PREFETCH     ACCESS:          0 HIT:          0 MISS:          0
cpu0_DTLB WRITE        ACCESS:          0 HIT:          0 MISS:          0
cpu0_DTLB TRANSLATION  ACCESS:          0 HIT:          0 MISS:          0
cpu0_DTLB PREFETCH REQUESTED:          0 ISSUED:          0 USEFUL:          0 USELESS:          0
cpu0_DTLB AVERAGE MISS LATENCY: 4.982 cycles
cpu0_ITLB TOTAL        ACCESS:   21300386 HIT:   21275787 MISS:      24599
cpu0_ITLB LOAD         ACCESS:   21300386 HIT:   21275787 MISS:      24599
cpu0_ITLB RFO          ACCESS:          0 HIT:          0 MISS:          0
cpu0_ITLB PREFETCH     ACCESS:          0 HIT:          0 MISS:          0
cpu0_ITLB WRITE        ACCESS:          0 HIT:          0 MISS:          0
cpu0_ITLB TRANSLATION  ACCESS:          0 HIT:          0 MISS:          0
cpu0_ITLB PREFETCH REQUESTED:          0 ISSUED:          0 USEFUL:          0 USELESS:          0
cpu0_ITLB AVERAGE MISS LATENCY: 23.7 cycles
cpu0_L1D TOTAL        ACCESS:  197017736 HIT:  166083027 MISS:   30934709
cpu0_L1D LOAD         ACCESS:   95055394 HIT:   90359548 MISS:    4695846
cpu0_L1D RFO          ACCESS:          0 HIT:          0 MISS:          0
cpu0_L1D PREFETCH     ACCESS:          0 HIT:          0 MISS:          0
cpu0_L1D WRITE        ACCESS:  101855660 HIT:   75640539 MISS:   26215121
cpu0_L1D TRANSLATION  ACCESS:     106682 HIT:      82940 MISS:      23742
cpu0_L1D PREFETCH REQUESTED:          0 ISSUED:          0 USEFUL:          0 USELESS:          0
cpu0_L1D AVERAGE MISS LATENCY: 338.9 cycles
cpu0_L1I TOTAL        ACCESS:   26271441 HIT:   25698920 MISS:     572521
cpu0_L1I LOAD         ACCESS:   26271441 HIT:   25698920 MISS:     572521
cpu0_L1I RFO          ACCESS:          0 HIT:          0 MISS:          0
cpu0_L1I PREFETCH     ACCESS:          0 HIT:          0 MISS:          0
cpu0_L1I WRITE        ACCESS:          0 HIT:          0 MISS:          0
cpu0_L1I TRANSLATION  ACCESS:          0 HIT:          0 MISS:          0
cpu0_L1I PREFETCH REQUESTED:          0 ISSUED:          0 USEFUL:          0 USELESS:          0
cpu0_L1I AVERAGE MISS LATENCY: 55.06 cycles
cpu0_L2C TOTAL        ACCESS:   17317220 HIT:   11285470 MISS:    6031750
cpu0_L2C LOAD         ACCESS:    3526715 HIT:    2836769 MISS:     689946
cpu0_L2C RFO          ACCESS:    6665242 HIT:    1340297 MISS:    5324945
cpu0_L2C PREFETCH     ACCESS:          0 HIT:          0 MISS:          0
cpu0_L2C WRITE        ACCESS:    7101788 HIT:    7101597 MISS:        191
cpu0_L2C TRANSLATION  ACCESS:      23475 HIT:       6807 MISS:      16668
cpu0_L2C PREFETCH REQUESTED:          0 ISSUED:          0 USEFUL:          0 USELESS:          0
cpu0_L2C AVERAGE MISS LATENCY: 1739 cycles
cpu0_STLB TOTAL        ACCESS:     645723 HIT:     540991 MISS:     104732
cpu0_STLB LOAD         ACCESS:     645723 HIT:     540991 MISS:     104732
cpu0_STLB RFO          ACCESS:          0 HIT:          0 MISS:          0
cpu0_STLB PREFETCH     ACCESS:          0 HIT:          0 MISS:          0
cpu0_STLB WRITE        ACCESS:          0 HIT:          0 MISS:          0
cpu0_STLB TRANSLATION  ACCESS:          0 HIT:          0 MISS:          0
cpu0_STLB PREFETCH REQUESTED:          0 ISSUED:          0 USEFUL:          0 USELESS:          0
cpu0_STLB AVERAGE MISS LATENCY: 68.35 cycles

DRAM Statistics

Channel 0 RQ ROW_BUFFER_HIT:    1962713
  ROW_BUFFER_MISS:    3644040
 AVG DBUS CONGESTED CYCLE: 3.98
WQ ROW_BUFFER_HIT: Channel 0 
  ROW_BUFFER_MISS:    1451269
  FULL:    3790767
