WARNING: physical memory size is smaller than virtual memory size.
WARNING: option --warmup_instructions is deprecated. Use --warmup-instructions instead.
WARNING: option --simulation_instructions is deprecated. Use --simulation-instructions instead.

*** ChampSim Multicore Out-of-Order Simulator ***
Warmup Instructions: 200000000
Simulation Instructions: 1000000000
Number of CPUs: 1
Page size: 4096

Off-chip DRAM Size: 4 GiB Channels: 1 Width: 64-bit Data Race: 3200 MT/s
Heartbeat CPU 0 instructions: 10000000 cycles: 2568815 heartbeat IPC: 3.893 cumulative IPC: 3.893 (Simulation time: 00 hr 00 min 39 sec)
Heartbeat CPU 0 instructions: 20000001 cycles: 5137474 heartbeat IPC: 3.893 cumulative IPC: 3.893 (Simulation time: 00 hr 01 min 18 sec)
Heartbeat CPU 0 instructions: 30000001 cycles: 7706478 heartbeat IPC: 3.893 cumulative IPC: 3.893 (Simulation time: 00 hr 01 min 57 sec)
Heartbeat CPU 0 instructions: 40000002 cycles: 10276464 heartbeat IPC: 3.891 cumulative IPC: 3.892 (Simulation time: 00 hr 02 min 36 sec)
Heartbeat CPU 0 instructions: 50000002 cycles: 12851418 heartbeat IPC: 3.884 cumulative IPC: 3.891 (Simulation time: 00 hr 03 min 15 sec)
Heartbeat CPU 0 instructions: 60000000 cycles: 15429274 heartbeat IPC: 3.879 cumulative IPC: 3.889 (Simulation time: 00 hr 03 min 54 sec)
Heartbeat CPU 0 instructions: 70000003 cycles: 18011788 heartbeat IPC: 3.872 cumulative IPC: 3.886 (Simulation time: 00 hr 04 min 32 sec)
Heartbeat CPU 0 instructions: 80000002 cycles: 20535152 heartbeat IPC: 3.963 cumulative IPC: 3.896 (Simulation time: 00 hr 05 min 09 sec)
Heartbeat CPU 0 instructions: 90000003 cycles: 23127301 heartbeat IPC: 3.858 cumulative IPC: 3.892 (Simulation time: 00 hr 05 min 46 sec)
Heartbeat CPU 0 instructions: 100000002 cycles: 25697233 heartbeat IPC: 3.891 cumulative IPC: 3.891 (Simulation time: 00 hr 06 min 24 sec)
Heartbeat CPU 0 instructions: 110000000 cycles: 28231944 heartbeat IPC: 3.945 cumulative IPC: 3.896 (Simulation time: 00 hr 07 min 01 sec)
Heartbeat CPU 0 instructions: 120000003 cycles: 31041185 heartbeat IPC: 3.56 cumulative IPC: 3.866 (Simulation time: 00 hr 07 min 38 sec)
Heartbeat CPU 0 instructions: 130000002 cycles: 33738407 heartbeat IPC: 3.708 cumulative IPC: 3.853 (Simulation time: 00 hr 08 min 15 sec)
Heartbeat CPU 0 instructions: 140000002 cycles: 36548240 heartbeat IPC: 3.559 cumulative IPC: 3.831 (Simulation time: 00 hr 08 min 51 sec)
Heartbeat CPU 0 instructions: 150000000 cycles: 39261367 heartbeat IPC: 3.686 cumulative IPC: 3.821 (Simulation time: 00 hr 09 min 25 sec)
Heartbeat CPU 0 instructions: 160000004 cycles: 42094521 heartbeat IPC: 3.53 cumulative IPC: 3.801 (Simulation time: 00 hr 10 min 00 sec)
Heartbeat CPU 0 instructions: 170000000 cycles: 44791349 heartbeat IPC: 3.708 cumulative IPC: 3.795 (Simulation time: 00 hr 10 min 36 sec)
Heartbeat CPU 0 instructions: 180000003 cycles: 47406765 heartbeat IPC: 3.823 cumulative IPC: 3.797 (Simulation time: 00 hr 11 min 14 sec)
Heartbeat CPU 0 instructions: 190000001 cycles: 49974527 heartbeat IPC: 3.894 cumulative IPC: 3.802 (Simulation time: 00 hr 11 min 53 sec)
Heartbeat CPU 0 instructions: 200000002 cycles: 52542231 heartbeat IPC: 3.895 cumulative IPC: 3.806 (Simulation time: 00 hr 12 min 33 sec)
Warmup finished CPU 0 instructions: 200000002 cycles: 52542232 cumulative IPC: 3.806 (Simulation time: 00 hr 12 min 33 sec)
Warmup complete CPU 0 instructions: 200000002 cycles: 52542232 cumulative IPC: 3.806 (Simulation time: 00 hr 12 min 33 sec)
Heartbeat CPU 0 instructions: 210000000 cycles: 57011413 heartbeat IPC: 2.238 cumulative IPC: 2.238 (Simulation time: 00 hr 13 min 35 sec)
Heartbeat CPU 0 instructions: 220000001 cycles: 61455232 heartbeat IPC: 2.25 cumulative IPC: 2.244 (Simulation time: 00 hr 14 min 37 sec)
Heartbeat CPU 0 instructions: 230000000 cycles: 65913672 heartbeat IPC: 2.243 cumulative IPC: 2.244 (Simulation time: 00 hr 15 min 39 sec)
Heartbeat CPU 0 instructions: 240000000 cycles: 70376576 heartbeat IPC: 2.241 cumulative IPC: 2.243 (Simulation time: 00 hr 16 min 41 sec)
Heartbeat CPU 0 instructions: 250000000 cycles: 74641852 heartbeat IPC: 2.345 cumulative IPC: 2.262 (Simulation time: 00 hr 17 min 41 sec)
Heartbeat CPU 0 instructions: 260000003 cycles: 78440409 heartbeat IPC: 2.633 cumulative IPC: 2.317 (Simulation time: 00 hr 18 min 34 sec)
Heartbeat CPU 0 instructions: 270000001 cycles: 82560483 heartbeat IPC: 2.427 cumulative IPC: 2.332 (Simulation time: 00 hr 19 min 28 sec)
Heartbeat CPU 0 instructions: 280000003 cycles: 87347690 heartbeat IPC: 2.089 cumulative IPC: 2.298 (Simulation time: 00 hr 20 min 34 sec)
Heartbeat CPU 0 instructions: 290000002 cycles: 93360666 heartbeat IPC: 1.663 cumulative IPC: 2.205 (Simulation time: 00 hr 21 min 47 sec)
Heartbeat CPU 0 instructions: 300000000 cycles: 100771663 heartbeat IPC: 1.349 cumulative IPC: 2.073 (Simulation time: 00 hr 23 min 11 sec)
Heartbeat CPU 0 instructions: 310000002 cycles: 105120133 heartbeat IPC: 2.3 cumulative IPC: 2.092 (Simulation time: 00 hr 24 min 05 sec)
Heartbeat CPU 0 instructions: 320000003 cycles: 110336567 heartbeat IPC: 1.917 cumulative IPC: 2.076 (Simulation time: 00 hr 24 min 59 sec)
Heartbeat CPU 0 instructions: 330000002 cycles: 115071633 heartbeat IPC: 2.112 cumulative IPC: 2.079 (Simulation time: 00 hr 25 min 54 sec)
Heartbeat CPU 0 instructions: 340000000 cycles: 120587901 heartbeat IPC: 1.813 cumulative IPC: 2.057 (Simulation time: 00 hr 26 min 51 sec)
Heartbeat CPU 0 instructions: 350000000 cycles: 124553381 heartbeat IPC: 2.522 cumulative IPC: 2.083 (Simulation time: 00 hr 27 min 43 sec)
Heartbeat CPU 0 instructions: 360000002 cycles: 130036573 heartbeat IPC: 1.824 cumulative IPC: 2.065 (Simulation time: 00 hr 28 min 50 sec)
Heartbeat CPU 0 instructions: 370000003 cycles: 134563759 heartbeat IPC: 2.209 cumulative IPC: 2.073 (Simulation time: 00 hr 29 min 53 sec)
Heartbeat CPU 0 instructions: 380000001 cycles: 139075797 heartbeat IPC: 2.216 cumulative IPC: 2.08 (Simulation time: 00 hr 30 min 55 sec)
Heartbeat CPU 0 instructions: 390000000 cycles: 143619326 heartbeat IPC: 2.201 cumulative IPC: 2.086 (Simulation time: 00 hr 31 min 58 sec)
Heartbeat CPU 0 instructions: 400000001 cycles: 148115976 heartbeat IPC: 2.224 cumulative IPC: 2.093 (Simulation time: 00 hr 33 min 00 sec)
Heartbeat CPU 0 instructions: 410000003 cycles: 152648965 heartbeat IPC: 2.206 cumulative IPC: 2.098 (Simulation time: 00 hr 34 min 03 sec)
Heartbeat CPU 0 instructions: 420000001 cycles: 157150895 heartbeat IPC: 2.221 cumulative IPC: 2.103 (Simulation time: 00 hr 35 min 05 sec)
Heartbeat CPU 0 instructions: 430000000 cycles: 161542173 heartbeat IPC: 2.277 cumulative IPC: 2.11 (Simulation time: 00 hr 36 min 06 sec)
Heartbeat CPU 0 instructions: 440000002 cycles: 165183511 heartbeat IPC: 2.746 cumulative IPC: 2.131 (Simulation time: 00 hr 36 min 59 sec)
Heartbeat CPU 0 instructions: 450000001 cycles: 169432034 heartbeat IPC: 2.354 cumulative IPC: 2.139 (Simulation time: 00 hr 37 min 54 sec)
Heartbeat CPU 0 instructions: 460000002 cycles: 173803932 heartbeat IPC: 2.287 cumulative IPC: 2.144 (Simulation time: 00 hr 38 min 55 sec)
Heartbeat CPU 0 instructions: 470000000 cycles: 179603156 heartbeat IPC: 1.724 cumulative IPC: 2.125 (Simulation time: 00 hr 40 min 08 sec)
Heartbeat CPU 0 instructions: 480000001 cycles: 187302468 heartbeat IPC: 1.299 cumulative IPC: 2.078 (Simulation time: 00 hr 41 min 36 sec)
Heartbeat CPU 0 instructions: 490000000 cycles: 191387143 heartbeat IPC: 2.448 cumulative IPC: 2.089 (Simulation time: 00 hr 42 min 26 sec)
Heartbeat CPU 0 instructions: 500000003 cycles: 196917379 heartbeat IPC: 1.808 cumulative IPC: 2.078 (Simulation time: 00 hr 43 min 24 sec)
Heartbeat CPU 0 instructions: 510000001 cycles: 201029261 heartbeat IPC: 2.432 cumulative IPC: 2.088 (Simulation time: 00 hr 44 min 13 sec)
Heartbeat CPU 0 instructions: 520000001 cycles: 207062131 heartbeat IPC: 1.658 cumulative IPC: 2.071 (Simulation time: 00 hr 45 min 18 sec)
Heartbeat CPU 0 instructions: 530000001 cycles: 210855715 heartbeat IPC: 2.636 cumulative IPC: 2.084 (Simulation time: 00 hr 46 min 06 sec)
Heartbeat CPU 0 instructions: 540000004 cycles: 216166783 heartbeat IPC: 1.883 cumulative IPC: 2.078 (Simulation time: 00 hr 47 min 12 sec)
Heartbeat CPU 0 instructions: 550000004 cycles: 220662001 heartbeat IPC: 2.225 cumulative IPC: 2.082 (Simulation time: 00 hr 48 min 15 sec)
Heartbeat CPU 0 instructions: 560000003 cycles: 225048425 heartbeat IPC: 2.28 cumulative IPC: 2.087 (Simulation time: 00 hr 49 min 17 sec)
Heartbeat CPU 0 instructions: 570000000 cycles: 229496200 heartbeat IPC: 2.248 cumulative IPC: 2.091 (Simulation time: 00 hr 50 min 20 sec)
Heartbeat CPU 0 instructions: 580000003 cycles: 233898630 heartbeat IPC: 2.271 cumulative IPC: 2.095 (Simulation time: 00 hr 51 min 22 sec)
Heartbeat CPU 0 instructions: 590000002 cycles: 238297233 heartbeat IPC: 2.273 cumulative IPC: 2.1 (Simulation time: 00 hr 52 min 24 sec)
Heartbeat CPU 0 instructions: 600000001 cycles: 242689403 heartbeat IPC: 2.277 cumulative IPC: 2.104 (Simulation time: 00 hr 53 min 26 sec)
Heartbeat CPU 0 instructions: 610000000 cycles: 247221311 heartbeat IPC: 2.207 cumulative IPC: 2.106 (Simulation time: 00 hr 54 min 28 sec)
Heartbeat CPU 0 instructions: 620000004 cycles: 250771702 heartbeat IPC: 2.817 cumulative IPC: 2.119 (Simulation time: 00 hr 55 min 19 sec)
Heartbeat CPU 0 instructions: 630000002 cycles: 255300854 heartbeat IPC: 2.208 cumulative IPC: 2.121 (Simulation time: 00 hr 56 min 19 sec)
Heartbeat CPU 0 instructions: 640000002 cycles: 259341329 heartbeat IPC: 2.475 cumulative IPC: 2.128 (Simulation time: 00 hr 57 min 14 sec)
Heartbeat CPU 0 instructions: 650000000 cycles: 265195211 heartbeat IPC: 1.708 cumulative IPC: 2.116 (Simulation time: 00 hr 58 min 28 sec)
Heartbeat CPU 0 instructions: 660000002 cycles: 273294421 heartbeat IPC: 1.235 cumulative IPC: 2.084 (Simulation time: 01 hr 00 min 05 sec)
Heartbeat CPU 0 instructions: 670000003 cycles: 277588304 heartbeat IPC: 2.329 cumulative IPC: 2.088 (Simulation time: 01 hr 00 min 55 sec)
Heartbeat CPU 0 instructions: 680000003 cycles: 283487563 heartbeat IPC: 1.695 cumulative IPC: 2.078 (Simulation time: 01 hr 01 min 57 sec)
Heartbeat CPU 0 instructions: 690000000 cycles: 286885171 heartbeat IPC: 2.943 cumulative IPC: 2.091 (Simulation time: 01 hr 02 min 38 sec)
Heartbeat CPU 0 instructions: 700000000 cycles: 292119945 heartbeat IPC: 1.91 cumulative IPC: 2.087 (Simulation time: 01 hr 03 min 38 sec)
Heartbeat CPU 0 instructions: 710000000 cycles: 297574026 heartbeat IPC: 1.833 cumulative IPC: 2.081 (Simulation time: 01 hr 04 min 36 sec)
Heartbeat CPU 0 instructions: 720000003 cycles: 301999051 heartbeat IPC: 2.26 cumulative IPC: 2.085 (Simulation time: 01 hr 05 min 33 sec)
Heartbeat CPU 0 instructions: 730000000 cycles: 307296203 heartbeat IPC: 1.888 cumulative IPC: 2.08 (Simulation time: 01 hr 06 min 41 sec)
Heartbeat CPU 0 instructions: 740000004 cycles: 311628086 heartbeat IPC: 2.308 cumulative IPC: 2.084 (Simulation time: 01 hr 07 min 43 sec)
Heartbeat CPU 0 instructions: 750000000 cycles: 316021528 heartbeat IPC: 2.276 cumulative IPC: 2.087 (Simulation time: 01 hr 08 min 45 sec)
Heartbeat CPU 0 instructions: 760000003 cycles: 320412858 heartbeat IPC: 2.277 cumulative IPC: 2.091 (Simulation time: 01 hr 09 min 47 sec)
Heartbeat CPU 0 instructions: 770000000 cycles: 324801417 heartbeat IPC: 2.279 cumulative IPC: 2.094 (Simulation time: 01 hr 10 min 48 sec)
Heartbeat CPU 0 instructions: 780000000 cycles: 329269252 heartbeat IPC: 2.238 cumulative IPC: 2.096 (Simulation time: 01 hr 11 min 51 sec)
Heartbeat CPU 0 instructions: 790000004 cycles: 333829350 heartbeat IPC: 2.193 cumulative IPC: 2.098 (Simulation time: 01 hr 12 min 53 sec)
Heartbeat CPU 0 instructions: 800000001 cycles: 337806619 heartbeat IPC: 2.514 cumulative IPC: 2.103 (Simulation time: 01 hr 13 min 49 sec)
Heartbeat CPU 0 instructions: 810000000 cycles: 341961682 heartbeat IPC: 2.407 cumulative IPC: 2.108 (Simulation time: 01 hr 14 min 46 sec)
Heartbeat CPU 0 instructions: 820000001 cycles: 345887084 heartbeat IPC: 2.548 cumulative IPC: 2.114 (Simulation time: 01 hr 15 min 38 sec)
Heartbeat CPU 0 instructions: 830000001 cycles: 350898228 heartbeat IPC: 1.996 cumulative IPC: 2.112 (Simulation time: 01 hr 16 min 45 sec)
Heartbeat CPU 0 instructions: 840000000 cycles: 356575529 heartbeat IPC: 1.761 cumulative IPC: 2.105 (Simulation time: 01 hr 17 min 56 sec)
Heartbeat CPU 0 instructions: 850000001 cycles: 363849736 heartbeat IPC: 1.375 cumulative IPC: 2.088 (Simulation time: 01 hr 19 min 16 sec)
Heartbeat CPU 0 instructions: 860000002 cycles: 368196781 heartbeat IPC: 2.3 cumulative IPC: 2.091 (Simulation time: 01 hr 20 min 10 sec)
Heartbeat CPU 0 instructions: 870000001 cycles: 373341306 heartbeat IPC: 1.944 cumulative IPC: 2.089 (Simulation time: 01 hr 21 min 03 sec)
Heartbeat CPU 0 instructions: 880000004 cycles: 378386591 heartbeat IPC: 1.982 cumulative IPC: 2.087 (Simulation time: 01 hr 22 min 02 sec)
Heartbeat CPU 0 instructions: 890000000 cycles: 383981280 heartbeat IPC: 1.787 cumulative IPC: 2.082 (Simulation time: 01 hr 23 min 00 sec)
Heartbeat CPU 0 instructions: 900000001 cycles: 387902762 heartbeat IPC: 2.55 cumulative IPC: 2.087 (Simulation time: 01 hr 23 min 52 sec)
Heartbeat CPU 0 instructions: 910000003 cycles: 393235595 heartbeat IPC: 1.875 cumulative IPC: 2.084 (Simulation time: 01 hr 24 min 59 sec)
Heartbeat CPU 0 instructions: 920000004 cycles: 397542066 heartbeat IPC: 2.322 cumulative IPC: 2.087 (Simulation time: 01 hr 26 min 01 sec)
Heartbeat CPU 0 instructions: 930000002 cycles: 401865499 heartbeat IPC: 2.313 cumulative IPC: 2.09 (Simulation time: 01 hr 27 min 03 sec)
Heartbeat CPU 0 instructions: 940000002 cycles: 406136572 heartbeat IPC: 2.341 cumulative IPC: 2.093 (Simulation time: 01 hr 28 min 05 sec)
Heartbeat CPU 0 instructions: 950000004 cycles: 410400197 heartbeat IPC: 2.345 cumulative IPC: 2.096 (Simulation time: 01 hr 29 min 06 sec)
Heartbeat CPU 0 instructions: 960000003 cycles: 414644094 heartbeat IPC: 2.356 cumulative IPC: 2.099 (Simulation time: 01 hr 30 min 08 sec)
Heartbeat CPU 0 instructions: 970000001 cycles: 419054854 heartbeat IPC: 2.267 cumulative IPC: 2.101 (Simulation time: 01 hr 31 min 10 sec)
Heartbeat CPU 0 instructions: 980000002 cycles: 423675549 heartbeat IPC: 2.164 cumulative IPC: 2.102 (Simulation time: 01 hr 32 min 12 sec)
Heartbeat CPU 0 instructions: 990000002 cycles: 427265729 heartbeat IPC: 2.785 cumulative IPC: 2.108 (Simulation time: 01 hr 33 min 04 sec)
Heartbeat CPU 0 instructions: 1000000000 cycles: 431659957 heartbeat IPC: 2.276 cumulative IPC: 2.11 (Simulation time: 01 hr 34 min 00 sec)
Heartbeat CPU 0 instructions: 1010000002 cycles: 436068138 heartbeat IPC: 2.269 cumulative IPC: 2.112 (Simulation time: 01 hr 35 min 01 sec)
Heartbeat CPU 0 instructions: 1020000003 cycles: 441835287 heartbeat IPC: 1.734 cumulative IPC: 2.106 (Simulation time: 01 hr 36 min 13 sec)
Heartbeat CPU 0 instructions: 1030000001 cycles: 449639833 heartbeat IPC: 1.281 cumulative IPC: 2.09 (Simulation time: 01 hr 37 min 42 sec)
Heartbeat CPU 0 instructions: 1040000004 cycles: 453950214 heartbeat IPC: 2.32 cumulative IPC: 2.093 (Simulation time: 01 hr 38 min 33 sec)
Heartbeat CPU 0 instructions: 1050000000 cycles: 459636497 heartbeat IPC: 1.759 cumulative IPC: 2.088 (Simulation time: 01 hr 39 min 32 sec)
Heartbeat CPU 0 instructions: 1060000002 cycles: 463682386 heartbeat IPC: 2.472 cumulative IPC: 2.092 (Simulation time: 01 hr 40 min 20 sec)
Heartbeat CPU 0 instructions: 1070000001 cycles: 470157912 heartbeat IPC: 1.544 cumulative IPC: 2.083 (Simulation time: 01 hr 41 min 28 sec)
Heartbeat CPU 0 instructions: 1080000000 cycles: 473988700 heartbeat IPC: 2.61 cumulative IPC: 2.088 (Simulation time: 01 hr 42 min 15 sec)
Heartbeat CPU 0 instructions: 1090000000 cycles: 478995799 heartbeat IPC: 1.997 cumulative IPC: 2.087 (Simulation time: 01 hr 43 min 18 sec)
Heartbeat CPU 0 instructions: 1100000002 cycles: 483684155 heartbeat IPC: 2.133 cumulative IPC: 2.087 (Simulation time: 01 hr 44 min 22 sec)
Heartbeat CPU 0 instructions: 1110000000 cycles: 488043738 heartbeat IPC: 2.294 cumulative IPC: 2.09 (Simulation time: 01 hr 45 min 24 sec)
Heartbeat CPU 0 instructions: 1120000002 cycles: 492373037 heartbeat IPC: 2.31 cumulative IPC: 2.092 (Simulation time: 01 hr 46 min 26 sec)
Heartbeat CPU 0 instructions: 1130000004 cycles: 496695410 heartbeat IPC: 2.314 cumulative IPC: 2.094 (Simulation time: 01 hr 47 min 28 sec)
Heartbeat CPU 0 instructions: 1140000002 cycles: 501043998 heartbeat IPC: 2.3 cumulative IPC: 2.096 (Simulation time: 01 hr 48 min 30 sec)
Heartbeat CPU 0 instructions: 1150000000 cycles: 505413224 heartbeat IPC: 2.289 cumulative IPC: 2.098 (Simulation time: 01 hr 49 min 31 sec)
Heartbeat CPU 0 instructions: 1160000004 cycles: 510031158 heartbeat IPC: 2.165 cumulative IPC: 2.098 (Simulation time: 01 hr 50 min 34 sec)
Heartbeat CPU 0 instructions: 1170000002 cycles: 513760182 heartbeat IPC: 2.682 cumulative IPC: 2.103 (Simulation time: 01 hr 51 min 27 sec)
Heartbeat CPU 0 instructions: 1180000000 cycles: 518179952 heartbeat IPC: 2.263 cumulative IPC: 2.105 (Simulation time: 01 hr 52 min 26 sec)
Heartbeat CPU 0 instructions: 1190000000 cycles: 522177886 heartbeat IPC: 2.501 cumulative IPC: 2.108 (Simulation time: 01 hr 53 min 20 sec)
Heartbeat CPU 0 instructions: 1200000001 cycles: 527907921 heartbeat IPC: 1.745 cumulative IPC: 2.104 (Simulation time: 01 hr 54 min 33 sec)
Simulation finished CPU 0 instructions: 1000000000 cycles: 475365691 cumulative IPC: 2.104 (Simulation time: 01 hr 54 min 33 sec)
Simulation complete CPU 0 instructions: 1000000000 cycles: 475365691 cumulative IPC: 2.104 (Simulation time: 01 hr 54 min 33 sec)

ChampSim completed all CPUs

=== Simulation ===
CPU 0 runs /home/faculty/p/pgratz/dpc3_traces/628.pop2_s-17B.champsimtrace.xz
Region of Interest Statistics

CPU 0 cumulative IPC: 2.104 instructions: 1000000000 cycles: 475365691
CPU 0 Branch Prediction Accuracy: 97.38% MPKI: 3.983 Average ROB Occupancy at Mispredict: 105.4
Branch type MPKI
BRANCH_DIRECT_JUMP: 0.0294
BRANCH_INDIRECT: 0.000694
BRANCH_CONDITIONAL: 3.88
BRANCH_DIRECT_CALL: 1e-06
BRANCH_INDIRECT_CALL: 0
BRANCH_RETURN: 0.0734

LLC TOTAL        ACCESS:    9512633 HIT:    5924760 MISS:    3587873
LLC LOAD         ACCESS:    4431185 HIT:    2178829 MISS:    2252356
LLC RFO          ACCESS:    2066665 HIT:     782306 MISS:    1284359
LLC PREFETCH     ACCESS:          0 HIT:          0 MISS:          0
LLC WRITE        ACCESS:    2985017 HIT:    2954855 MISS:      30162
LLC TRANSLATION  ACCESS:      29766 HIT:       8770 MISS:      20996
LLC PREFETCH REQUESTED:          0 ISSUED:          0 USEFUL:          0 USELESS:          0
LLC AVERAGE MISS LATENCY: 543.1 cycles
cpu0_DTLB TOTAL        ACCESS:  142527783 HIT:  141299043 MISS:    1228740
cpu0_DTLB LOAD         ACCESS:  142527783 HIT:  141299043 MISS:    1228740
cpu0_DTLB RFO          ACCESS:          0 HIT:          0 MISS:          0
cpu0_DTLB PREFETCH     ACCESS:          0 HIT:          0 MISS:          0
cpu0_DTLB WRITE        ACCESS:          0 HIT:          0 MISS:          0
cpu0_DTLB TRANSLATION  ACCESS:          0 HIT:          0 MISS:          0
cpu0_DTLB PREFETCH REQUESTED:          0 ISSUED:          0 USEFUL:          0 USELESS:          0
cpu0_DTLB AVERAGE MISS LATENCY: 10.15 cycles
cpu0_ITLB TOTAL        ACCESS:    2153078 HIT:    2099265 MISS:      53813
cpu0_ITLB LOAD         ACCESS:    2153078 HIT:    2099265 MISS:      53813
cpu0_ITLB RFO          ACCESS:          0 HIT:          0 MISS:          0
cpu0_ITLB PREFETCH     ACCESS:          0 HIT:          0 MISS:          0
cpu0_ITLB WRITE        ACCESS:          0 HIT:          0 MISS:          0
cpu0_ITLB TRANSLATION  ACCESS:          0 HIT:          0 MISS:          0
cpu0_ITLB PREFETCH REQUESTED:          0 ISSUED:          0 USEFUL:          0 USELESS:          0
cpu0_ITLB AVERAGE MISS LATENCY: 5.77 cycles
cpu0_L1D TOTAL        ACCESS:  170932878 HIT:  133008015 MISS:   37924863
cpu0_L1D LOAD         ACCESS:  103324685 HIT:   85547899 MISS:   17776786
cpu0_L1D RFO          ACCESS:          0 HIT:          0 MISS:          0
cpu0_L1D PREFETCH     ACCESS:          0 HIT:          0 MISS:          0
cpu0_L1D WRITE        ACCESS:   67551600 HIT:   47447276 MISS:   20104324
cpu0_L1D TRANSLATION  ACCESS:      56593 HIT:      12840 MISS:      43753
cpu0_L1D PREFETCH REQUESTED:          0 ISSUED:          0 USEFUL:          0 USELESS:          0
cpu0_L1D AVERAGE MISS LATENCY: 50.88 cycles
cpu0_L1I TOTAL        ACCESS:    2606752 HIT:    1723495 MISS:     883257
cpu0_L1I LOAD         ACCESS:    2606752 HIT:    1723495 MISS:     883257
cpu0_L1I RFO          ACCESS:          0 HIT:          0 MISS:          0
cpu0_L1I PREFETCH     ACCESS:          0 HIT:          0 MISS:          0
cpu0_L1I WRITE        ACCESS:          0 HIT:          0 MISS:          0
cpu0_L1I TRANSLATION  ACCESS:          0 HIT:          0 MISS:          0
cpu0_L1I PREFETCH REQUESTED:          0 ISSUED:          0 USEFUL:          0 USELESS:          0
cpu0_L1I AVERAGE MISS LATENCY: 23 cycles
cpu0_L2C TOTAL        ACCESS:   22174824 HIT:   15643543 MISS:    6531281
cpu0_L2C LOAD         ACCESS:   10390188 HIT:    5959003 MISS:    4431185
cpu0_L2C RFO          ACCESS:    5004021 HIT:    2937356 MISS:    2066665
cpu0_L2C PREFETCH     ACCESS:          0 HIT:          0 MISS:          0
cpu0_L2C WRITE        ACCESS:    6737664 HIT:    6733999 MISS:       3665
cpu0_L2C TRANSLATION  ACCESS:      42951 HIT:      13185 MISS:      29766
cpu0_L2C PREFETCH REQUESTED:          0 ISSUED:          0 USEFUL:          0 USELESS:          0
cpu0_L2C AVERAGE MISS LATENCY: 318.9 cycles
cpu0_STLB TOTAL        ACCESS:     490319 HIT:     443055 MISS:      47264
cpu0_STLB LOAD         ACCESS:     490319 HIT:     443055 MISS:      47264
cpu0_STLB RFO          ACCESS:          0 HIT:          0 MISS:          0
cpu0_STLB PREFETCH     ACCESS:          0 HIT:          0 MISS:          0
cpu0_STLB WRITE        ACCESS:          0 HIT:          0 MISS:          0
cpu0_STLB TRANSLATION  ACCESS:          0 HIT:          0 MISS:          0
cpu0_STLB PREFETCH REQUESTED:          0 ISSUED:          0 USEFUL:          0 USELESS:          0
cpu0_STLB AVERAGE MISS LATENCY: 319 cycles

DRAM Statistics

Channel 0 RQ ROW_BUFFER_HIT:    1562803
  ROW_BUFFER_MISS:    1994174
 AVG DBUS CONGESTED CYCLE: 3.926
WQ ROW_BUFFER_HIT: Channel 0 
  ROW_BUFFER_MISS:     318849
  FULL:    1448242
