WARNING: physical memory size is smaller than virtual memory size.
WARNING: option --warmup_instructions is deprecated. Use --warmup-instructions instead.
WARNING: option --simulation_instructions is deprecated. Use --simulation-instructions instead.

*** ChampSim Multicore Out-of-Order Simulator ***
Warmup Instructions: 200000000
Simulation Instructions: 1000000000
Number of CPUs: 1
Page size: 4096

Off-chip DRAM Size: 4 GiB Channels: 1 Width: 64-bit Data Race: 3200 MT/s
Heartbeat CPU 0 instructions: 10000002 cycles: 2500062 heartbeat IPC: 4 cumulative IPC: 4 (Simulation time: 00 hr 00 min 40 sec)
Heartbeat CPU 0 instructions: 20000002 cycles: 5000062 heartbeat IPC: 4 cumulative IPC: 4 (Simulation time: 00 hr 01 min 22 sec)
Heartbeat CPU 0 instructions: 30000002 cycles: 7500062 heartbeat IPC: 4 cumulative IPC: 4 (Simulation time: 00 hr 02 min 03 sec)
Heartbeat CPU 0 instructions: 40000002 cycles: 10000062 heartbeat IPC: 4 cumulative IPC: 4 (Simulation time: 00 hr 02 min 44 sec)
Heartbeat CPU 0 instructions: 50000002 cycles: 12500062 heartbeat IPC: 4 cumulative IPC: 4 (Simulation time: 00 hr 03 min 25 sec)
Heartbeat CPU 0 instructions: 60000002 cycles: 15000062 heartbeat IPC: 4 cumulative IPC: 4 (Simulation time: 00 hr 04 min 06 sec)
Heartbeat CPU 0 instructions: 70000002 cycles: 17500062 heartbeat IPC: 4 cumulative IPC: 4 (Simulation time: 00 hr 04 min 47 sec)
Heartbeat CPU 0 instructions: 80000002 cycles: 20000062 heartbeat IPC: 4 cumulative IPC: 4 (Simulation time: 00 hr 05 min 28 sec)
Heartbeat CPU 0 instructions: 90000002 cycles: 22500062 heartbeat IPC: 4 cumulative IPC: 4 (Simulation time: 00 hr 06 min 09 sec)
Heartbeat CPU 0 instructions: 100000002 cycles: 25000062 heartbeat IPC: 4 cumulative IPC: 4 (Simulation time: 00 hr 06 min 50 sec)
Heartbeat CPU 0 instructions: 110000002 cycles: 27500062 heartbeat IPC: 4 cumulative IPC: 4 (Simulation time: 00 hr 07 min 31 sec)
Heartbeat CPU 0 instructions: 120000002 cycles: 30000062 heartbeat IPC: 4 cumulative IPC: 4 (Simulation time: 00 hr 08 min 12 sec)
Heartbeat CPU 0 instructions: 130000002 cycles: 32500062 heartbeat IPC: 4 cumulative IPC: 4 (Simulation time: 00 hr 08 min 54 sec)
Heartbeat CPU 0 instructions: 140000002 cycles: 35000062 heartbeat IPC: 4 cumulative IPC: 4 (Simulation time: 00 hr 09 min 35 sec)
Heartbeat CPU 0 instructions: 150000002 cycles: 37500062 heartbeat IPC: 4 cumulative IPC: 4 (Simulation time: 00 hr 10 min 16 sec)
Heartbeat CPU 0 instructions: 160000002 cycles: 40000062 heartbeat IPC: 4 cumulative IPC: 4 (Simulation time: 00 hr 10 min 58 sec)
Heartbeat CPU 0 instructions: 170000001 cycles: 42500062 heartbeat IPC: 4 cumulative IPC: 4 (Simulation time: 00 hr 11 min 39 sec)
Heartbeat CPU 0 instructions: 180000001 cycles: 45000062 heartbeat IPC: 4 cumulative IPC: 4 (Simulation time: 00 hr 12 min 20 sec)
Heartbeat CPU 0 instructions: 190000001 cycles: 47500062 heartbeat IPC: 4 cumulative IPC: 4 (Simulation time: 00 hr 13 min 02 sec)
Heartbeat CPU 0 instructions: 200000001 cycles: 50000062 heartbeat IPC: 4 cumulative IPC: 4 (Simulation time: 00 hr 13 min 43 sec)
Warmup finished CPU 0 instructions: 200000001 cycles: 50000063 cumulative IPC: 4 (Simulation time: 00 hr 13 min 43 sec)
Warmup complete CPU 0 instructions: 200000001 cycles: 50000063 cumulative IPC: 4 (Simulation time: 00 hr 13 min 43 sec)
Heartbeat CPU 0 instructions: 210000003 cycles: 56596163 heartbeat IPC: 1.516 cumulative IPC: 1.516 (Simulation time: 00 hr 14 min 55 sec)
Heartbeat CPU 0 instructions: 220000000 cycles: 63474221 heartbeat IPC: 1.454 cumulative IPC: 1.484 (Simulation time: 00 hr 16 min 07 sec)
Heartbeat CPU 0 instructions: 230000000 cycles: 70469067 heartbeat IPC: 1.43 cumulative IPC: 1.466 (Simulation time: 00 hr 17 min 20 sec)
Heartbeat CPU 0 instructions: 240000001 cycles: 76847214 heartbeat IPC: 1.568 cumulative IPC: 1.49 (Simulation time: 00 hr 18 min 31 sec)
Heartbeat CPU 0 instructions: 250000003 cycles: 83306869 heartbeat IPC: 1.548 cumulative IPC: 1.501 (Simulation time: 00 hr 19 min 41 sec)
Heartbeat CPU 0 instructions: 260000002 cycles: 89918869 heartbeat IPC: 1.512 cumulative IPC: 1.503 (Simulation time: 00 hr 20 min 52 sec)
Heartbeat CPU 0 instructions: 270000001 cycles: 96509486 heartbeat IPC: 1.517 cumulative IPC: 1.505 (Simulation time: 00 hr 22 min 03 sec)
Heartbeat CPU 0 instructions: 280000000 cycles: 103121302 heartbeat IPC: 1.512 cumulative IPC: 1.506 (Simulation time: 00 hr 23 min 14 sec)
Heartbeat CPU 0 instructions: 290000001 cycles: 109646347 heartbeat IPC: 1.533 cumulative IPC: 1.509 (Simulation time: 00 hr 24 min 26 sec)
Heartbeat CPU 0 instructions: 300000003 cycles: 116082870 heartbeat IPC: 1.554 cumulative IPC: 1.513 (Simulation time: 00 hr 25 min 35 sec)
Heartbeat CPU 0 instructions: 310000003 cycles: 122835519 heartbeat IPC: 1.481 cumulative IPC: 1.51 (Simulation time: 00 hr 26 min 47 sec)
Heartbeat CPU 0 instructions: 320000000 cycles: 129449215 heartbeat IPC: 1.512 cumulative IPC: 1.51 (Simulation time: 00 hr 27 min 58 sec)
Heartbeat CPU 0 instructions: 330000002 cycles: 136191855 heartbeat IPC: 1.483 cumulative IPC: 1.508 (Simulation time: 00 hr 29 min 09 sec)
Heartbeat CPU 0 instructions: 340000001 cycles: 142719480 heartbeat IPC: 1.532 cumulative IPC: 1.51 (Simulation time: 00 hr 30 min 19 sec)
Heartbeat CPU 0 instructions: 350000002 cycles: 149286913 heartbeat IPC: 1.523 cumulative IPC: 1.511 (Simulation time: 00 hr 31 min 29 sec)
Heartbeat CPU 0 instructions: 360000000 cycles: 155917847 heartbeat IPC: 1.508 cumulative IPC: 1.511 (Simulation time: 00 hr 32 min 40 sec)
Heartbeat CPU 0 instructions: 370000000 cycles: 162632348 heartbeat IPC: 1.489 cumulative IPC: 1.509 (Simulation time: 00 hr 33 min 51 sec)
Heartbeat CPU 0 instructions: 380000003 cycles: 169022118 heartbeat IPC: 1.565 cumulative IPC: 1.512 (Simulation time: 00 hr 35 min 01 sec)
Heartbeat CPU 0 instructions: 390000004 cycles: 175618582 heartbeat IPC: 1.516 cumulative IPC: 1.513 (Simulation time: 00 hr 36 min 12 sec)
Heartbeat CPU 0 instructions: 400000000 cycles: 182294069 heartbeat IPC: 1.498 cumulative IPC: 1.512 (Simulation time: 00 hr 37 min 22 sec)
Heartbeat CPU 0 instructions: 410000002 cycles: 189126343 heartbeat IPC: 1.464 cumulative IPC: 1.509 (Simulation time: 00 hr 38 min 35 sec)
Heartbeat CPU 0 instructions: 420000000 cycles: 195596240 heartbeat IPC: 1.546 cumulative IPC: 1.511 (Simulation time: 00 hr 39 min 45 sec)
Heartbeat CPU 0 instructions: 430000000 cycles: 201918752 heartbeat IPC: 1.582 cumulative IPC: 1.514 (Simulation time: 00 hr 40 min 55 sec)
Heartbeat CPU 0 instructions: 440000004 cycles: 208361242 heartbeat IPC: 1.552 cumulative IPC: 1.516 (Simulation time: 00 hr 42 min 04 sec)
Heartbeat CPU 0 instructions: 450000000 cycles: 214957001 heartbeat IPC: 1.516 cumulative IPC: 1.516 (Simulation time: 00 hr 43 min 14 sec)
Heartbeat CPU 0 instructions: 460000004 cycles: 221520041 heartbeat IPC: 1.524 cumulative IPC: 1.516 (Simulation time: 00 hr 44 min 24 sec)
Heartbeat CPU 0 instructions: 470000003 cycles: 227782240 heartbeat IPC: 1.597 cumulative IPC: 1.519 (Simulation time: 00 hr 45 min 33 sec)
Heartbeat CPU 0 instructions: 480000001 cycles: 234035750 heartbeat IPC: 1.599 cumulative IPC: 1.521 (Simulation time: 00 hr 46 min 41 sec)
Heartbeat CPU 0 instructions: 490000001 cycles: 240462497 heartbeat IPC: 1.556 cumulative IPC: 1.523 (Simulation time: 00 hr 47 min 50 sec)
Heartbeat CPU 0 instructions: 500000004 cycles: 246996075 heartbeat IPC: 1.531 cumulative IPC: 1.523 (Simulation time: 00 hr 49 min 00 sec)
Heartbeat CPU 0 instructions: 510000003 cycles: 253350977 heartbeat IPC: 1.574 cumulative IPC: 1.524 (Simulation time: 00 hr 50 min 08 sec)
Heartbeat CPU 0 instructions: 520000000 cycles: 259752368 heartbeat IPC: 1.562 cumulative IPC: 1.526 (Simulation time: 00 hr 51 min 17 sec)
Heartbeat CPU 0 instructions: 530000002 cycles: 266282668 heartbeat IPC: 1.531 cumulative IPC: 1.526 (Simulation time: 00 hr 52 min 27 sec)
Heartbeat CPU 0 instructions: 540000000 cycles: 272772641 heartbeat IPC: 1.541 cumulative IPC: 1.526 (Simulation time: 00 hr 53 min 36 sec)
Heartbeat CPU 0 instructions: 550000004 cycles: 279193374 heartbeat IPC: 1.557 cumulative IPC: 1.527 (Simulation time: 00 hr 54 min 45 sec)
Heartbeat CPU 0 instructions: 560000002 cycles: 285514399 heartbeat IPC: 1.582 cumulative IPC: 1.529 (Simulation time: 00 hr 55 min 53 sec)
Heartbeat CPU 0 instructions: 570000001 cycles: 291777464 heartbeat IPC: 1.597 cumulative IPC: 1.53 (Simulation time: 00 hr 57 min 02 sec)
Heartbeat CPU 0 instructions: 580000000 cycles: 298262201 heartbeat IPC: 1.542 cumulative IPC: 1.531 (Simulation time: 00 hr 58 min 12 sec)
Heartbeat CPU 0 instructions: 590000000 cycles: 304991792 heartbeat IPC: 1.486 cumulative IPC: 1.529 (Simulation time: 00 hr 59 min 23 sec)
Heartbeat CPU 0 instructions: 600000004 cycles: 311530467 heartbeat IPC: 1.529 cumulative IPC: 1.529 (Simulation time: 01 hr 00 min 32 sec)
Heartbeat CPU 0 instructions: 610000001 cycles: 318252636 heartbeat IPC: 1.488 cumulative IPC: 1.528 (Simulation time: 01 hr 01 min 43 sec)
Heartbeat CPU 0 instructions: 620000003 cycles: 324780502 heartbeat IPC: 1.532 cumulative IPC: 1.528 (Simulation time: 01 hr 02 min 52 sec)
Heartbeat CPU 0 instructions: 630000002 cycles: 331271165 heartbeat IPC: 1.541 cumulative IPC: 1.529 (Simulation time: 01 hr 04 min 02 sec)
Heartbeat CPU 0 instructions: 640000002 cycles: 337786766 heartbeat IPC: 1.535 cumulative IPC: 1.529 (Simulation time: 01 hr 05 min 11 sec)
Heartbeat CPU 0 instructions: 650000003 cycles: 344367681 heartbeat IPC: 1.52 cumulative IPC: 1.529 (Simulation time: 01 hr 06 min 21 sec)
Heartbeat CPU 0 instructions: 660000001 cycles: 350843946 heartbeat IPC: 1.544 cumulative IPC: 1.529 (Simulation time: 01 hr 07 min 31 sec)
Heartbeat CPU 0 instructions: 670000000 cycles: 357059096 heartbeat IPC: 1.609 cumulative IPC: 1.531 (Simulation time: 01 hr 08 min 38 sec)
Heartbeat CPU 0 instructions: 680000000 cycles: 363473652 heartbeat IPC: 1.559 cumulative IPC: 1.531 (Simulation time: 01 hr 09 min 47 sec)
Heartbeat CPU 0 instructions: 690000002 cycles: 370272861 heartbeat IPC: 1.471 cumulative IPC: 1.53 (Simulation time: 01 hr 10 min 58 sec)
Heartbeat CPU 0 instructions: 700000002 cycles: 376958363 heartbeat IPC: 1.496 cumulative IPC: 1.529 (Simulation time: 01 hr 12 min 09 sec)
Heartbeat CPU 0 instructions: 710000004 cycles: 383336535 heartbeat IPC: 1.568 cumulative IPC: 1.53 (Simulation time: 01 hr 13 min 17 sec)
Heartbeat CPU 0 instructions: 720000003 cycles: 389652076 heartbeat IPC: 1.583 cumulative IPC: 1.531 (Simulation time: 01 hr 14 min 26 sec)
Heartbeat CPU 0 instructions: 730000003 cycles: 396052106 heartbeat IPC: 1.562 cumulative IPC: 1.532 (Simulation time: 01 hr 15 min 35 sec)
Heartbeat CPU 0 instructions: 740000001 cycles: 402475399 heartbeat IPC: 1.557 cumulative IPC: 1.532 (Simulation time: 01 hr 16 min 44 sec)
Heartbeat CPU 0 instructions: 750000001 cycles: 409141190 heartbeat IPC: 1.5 cumulative IPC: 1.531 (Simulation time: 01 hr 17 min 55 sec)
Heartbeat CPU 0 instructions: 760000000 cycles: 415708069 heartbeat IPC: 1.523 cumulative IPC: 1.531 (Simulation time: 01 hr 19 min 04 sec)
Heartbeat CPU 0 instructions: 770000001 cycles: 422384364 heartbeat IPC: 1.498 cumulative IPC: 1.531 (Simulation time: 01 hr 20 min 14 sec)
Heartbeat CPU 0 instructions: 780000003 cycles: 429062913 heartbeat IPC: 1.497 cumulative IPC: 1.53 (Simulation time: 01 hr 21 min 25 sec)
Heartbeat CPU 0 instructions: 790000001 cycles: 435515143 heartbeat IPC: 1.55 cumulative IPC: 1.53 (Simulation time: 01 hr 22 min 35 sec)
Heartbeat CPU 0 instructions: 800000001 cycles: 442001824 heartbeat IPC: 1.542 cumulative IPC: 1.531 (Simulation time: 01 hr 23 min 45 sec)
Heartbeat CPU 0 instructions: 810000000 cycles: 448473060 heartbeat IPC: 1.545 cumulative IPC: 1.531 (Simulation time: 01 hr 24 min 54 sec)
Heartbeat CPU 0 instructions: 820000000 cycles: 454751210 heartbeat IPC: 1.593 cumulative IPC: 1.532 (Simulation time: 01 hr 26 min 02 sec)
Heartbeat CPU 0 instructions: 830000001 cycles: 460920968 heartbeat IPC: 1.621 cumulative IPC: 1.533 (Simulation time: 01 hr 27 min 11 sec)
Heartbeat CPU 0 instructions: 840000000 cycles: 467199741 heartbeat IPC: 1.593 cumulative IPC: 1.534 (Simulation time: 01 hr 28 min 20 sec)
Heartbeat CPU 0 instructions: 850000001 cycles: 474014045 heartbeat IPC: 1.468 cumulative IPC: 1.533 (Simulation time: 01 hr 29 min 31 sec)
Heartbeat CPU 0 instructions: 860000002 cycles: 480597775 heartbeat IPC: 1.519 cumulative IPC: 1.533 (Simulation time: 01 hr 30 min 41 sec)
Heartbeat CPU 0 instructions: 870000003 cycles: 486881462 heartbeat IPC: 1.591 cumulative IPC: 1.534 (Simulation time: 01 hr 31 min 50 sec)
Heartbeat CPU 0 instructions: 880000002 cycles: 493492701 heartbeat IPC: 1.513 cumulative IPC: 1.533 (Simulation time: 01 hr 33 min 01 sec)
Heartbeat CPU 0 instructions: 890000001 cycles: 500183489 heartbeat IPC: 1.495 cumulative IPC: 1.533 (Simulation time: 01 hr 34 min 12 sec)
Heartbeat CPU 0 instructions: 900000000 cycles: 506928978 heartbeat IPC: 1.482 cumulative IPC: 1.532 (Simulation time: 01 hr 35 min 23 sec)
Heartbeat CPU 0 instructions: 910000000 cycles: 513626489 heartbeat IPC: 1.493 cumulative IPC: 1.531 (Simulation time: 01 hr 36 min 35 sec)
Heartbeat CPU 0 instructions: 920000001 cycles: 520124540 heartbeat IPC: 1.539 cumulative IPC: 1.532 (Simulation time: 01 hr 37 min 44 sec)
Heartbeat CPU 0 instructions: 930000003 cycles: 526667211 heartbeat IPC: 1.528 cumulative IPC: 1.531 (Simulation time: 01 hr 38 min 55 sec)
Heartbeat CPU 0 instructions: 940000003 cycles: 532884858 heartbeat IPC: 1.608 cumulative IPC: 1.532 (Simulation time: 01 hr 40 min 03 sec)
Heartbeat CPU 0 instructions: 950000002 cycles: 539172904 heartbeat IPC: 1.59 cumulative IPC: 1.533 (Simulation time: 01 hr 41 min 12 sec)
Heartbeat CPU 0 instructions: 960000000 cycles: 545396420 heartbeat IPC: 1.607 cumulative IPC: 1.534 (Simulation time: 01 hr 42 min 21 sec)
Heartbeat CPU 0 instructions: 970000001 cycles: 551727839 heartbeat IPC: 1.579 cumulative IPC: 1.535 (Simulation time: 01 hr 43 min 31 sec)
Heartbeat CPU 0 instructions: 980000000 cycles: 558310091 heartbeat IPC: 1.519 cumulative IPC: 1.534 (Simulation time: 01 hr 44 min 41 sec)
Heartbeat CPU 0 instructions: 990000003 cycles: 564751079 heartbeat IPC: 1.553 cumulative IPC: 1.535 (Simulation time: 01 hr 45 min 51 sec)
Heartbeat CPU 0 instructions: 1000000002 cycles: 571845593 heartbeat IPC: 1.41 cumulative IPC: 1.533 (Simulation time: 01 hr 47 min 04 sec)
Heartbeat CPU 0 instructions: 1010000001 cycles: 578452523 heartbeat IPC: 1.514 cumulative IPC: 1.533 (Simulation time: 01 hr 48 min 16 sec)
Heartbeat CPU 0 instructions: 1020000001 cycles: 585201028 heartbeat IPC: 1.482 cumulative IPC: 1.532 (Simulation time: 01 hr 49 min 27 sec)
Heartbeat CPU 0 instructions: 1030000002 cycles: 592040112 heartbeat IPC: 1.462 cumulative IPC: 1.531 (Simulation time: 01 hr 50 min 39 sec)
Heartbeat CPU 0 instructions: 1040000001 cycles: 598858255 heartbeat IPC: 1.467 cumulative IPC: 1.53 (Simulation time: 01 hr 51 min 51 sec)
Heartbeat CPU 0 instructions: 1050000001 cycles: 605524981 heartbeat IPC: 1.5 cumulative IPC: 1.53 (Simulation time: 01 hr 53 min 02 sec)
Heartbeat CPU 0 instructions: 1060000000 cycles: 612491380 heartbeat IPC: 1.435 cumulative IPC: 1.529 (Simulation time: 01 hr 54 min 14 sec)
Heartbeat CPU 0 instructions: 1070000003 cycles: 619308004 heartbeat IPC: 1.467 cumulative IPC: 1.528 (Simulation time: 01 hr 55 min 25 sec)
Heartbeat CPU 0 instructions: 1080000000 cycles: 626072594 heartbeat IPC: 1.478 cumulative IPC: 1.528 (Simulation time: 01 hr 56 min 36 sec)
Heartbeat CPU 0 instructions: 1090000002 cycles: 632653847 heartbeat IPC: 1.519 cumulative IPC: 1.527 (Simulation time: 01 hr 57 min 47 sec)
Heartbeat CPU 0 instructions: 1100000004 cycles: 638979523 heartbeat IPC: 1.581 cumulative IPC: 1.528 (Simulation time: 01 hr 58 min 58 sec)
Heartbeat CPU 0 instructions: 1110000001 cycles: 645840231 heartbeat IPC: 1.458 cumulative IPC: 1.527 (Simulation time: 02 hr 00 min 10 sec)
Heartbeat CPU 0 instructions: 1120000004 cycles: 652769095 heartbeat IPC: 1.443 cumulative IPC: 1.526 (Simulation time: 02 hr 01 min 21 sec)
Heartbeat CPU 0 instructions: 1130000001 cycles: 659573863 heartbeat IPC: 1.47 cumulative IPC: 1.526 (Simulation time: 02 hr 02 min 33 sec)
Heartbeat CPU 0 instructions: 1140000001 cycles: 666140651 heartbeat IPC: 1.523 cumulative IPC: 1.526 (Simulation time: 02 hr 03 min 44 sec)
Heartbeat CPU 0 instructions: 1150000001 cycles: 672871853 heartbeat IPC: 1.486 cumulative IPC: 1.525 (Simulation time: 02 hr 04 min 56 sec)
Heartbeat CPU 0 instructions: 1160000003 cycles: 679516938 heartbeat IPC: 1.505 cumulative IPC: 1.525 (Simulation time: 02 hr 06 min 08 sec)
Heartbeat CPU 0 instructions: 1170000004 cycles: 686197846 heartbeat IPC: 1.497 cumulative IPC: 1.525 (Simulation time: 02 hr 07 min 19 sec)
Heartbeat CPU 0 instructions: 1180000004 cycles: 692915821 heartbeat IPC: 1.489 cumulative IPC: 1.524 (Simulation time: 02 hr 08 min 31 sec)
Heartbeat CPU 0 instructions: 1190000004 cycles: 699423868 heartbeat IPC: 1.537 cumulative IPC: 1.524 (Simulation time: 02 hr 09 min 41 sec)
Heartbeat CPU 0 instructions: 1200000003 cycles: 705724383 heartbeat IPC: 1.587 cumulative IPC: 1.525 (Simulation time: 02 hr 10 min 51 sec)
Simulation finished CPU 0 instructions: 1000000002 cycles: 655724321 cumulative IPC: 1.525 (Simulation time: 02 hr 10 min 51 sec)
Simulation complete CPU 0 instructions: 1000000002 cycles: 655724321 cumulative IPC: 1.525 (Simulation time: 02 hr 10 min 51 sec)

ChampSim completed all CPUs

=== Simulation ===
CPU 0 runs /home/faculty/p/pgratz/dpc3_traces/631.deepsjeng_s-928B.champsimtrace.xz
Region of Interest Statistics

CPU 0 cumulative IPC: 1.525 instructions: 1000000002 cycles: 655724321
CPU 0 Branch Prediction Accuracy: 90.59% MPKI: 13.91 Average ROB Occupancy at Mispredict: 36.02
Branch type MPKI
BRANCH_DIRECT_JUMP: 0.0205
BRANCH_INDIRECT: 0.00948
BRANCH_CONDITIONAL: 13.4
BRANCH_DIRECT_CALL: 0.0189
BRANCH_INDIRECT_CALL: 0
BRANCH_RETURN: 0.458

LLC TOTAL        ACCESS:     743266 HIT:     244990 MISS:     498276
LLC LOAD         ACCESS:     286292 HIT:      19868 MISS:     266424
LLC RFO          ACCESS:      12526 HIT:       8732 MISS:       3794
LLC PREFETCH     ACCESS:          0 HIT:          0 MISS:          0
LLC WRITE        ACCESS:     204156 HIT:     201332 MISS:       2824
LLC TRANSLATION  ACCESS:     240292 HIT:      15058 MISS:     225234
LLC PREFETCH REQUESTED:          0 ISSUED:          0 USEFUL:          0 USELESS:          0
LLC AVERAGE MISS LATENCY: 141.3 cycles
cpu0_DTLB TOTAL        ACCESS:  194311548 HIT:  193743185 MISS:     568363
cpu0_DTLB LOAD         ACCESS:  194311548 HIT:  193743185 MISS:     568363
cpu0_DTLB RFO          ACCESS:          0 HIT:          0 MISS:          0
cpu0_DTLB PREFETCH     ACCESS:          0 HIT:          0 MISS:          0
cpu0_DTLB WRITE        ACCESS:          0 HIT:          0 MISS:          0
cpu0_DTLB TRANSLATION  ACCESS:          0 HIT:          0 MISS:          0
cpu0_DTLB PREFETCH REQUESTED:          0 ISSUED:          0 USEFUL:          0 USELESS:          0
cpu0_DTLB AVERAGE MISS LATENCY: 175.3 cycles
cpu0_ITLB TOTAL        ACCESS:   63973935 HIT:   63973935 MISS:          0
cpu0_ITLB LOAD         ACCESS:   63973935 HIT:   63973935 MISS:          0
cpu0_ITLB RFO          ACCESS:          0 HIT:          0 MISS:          0
cpu0_ITLB PREFETCH     ACCESS:          0 HIT:          0 MISS:          0
cpu0_ITLB WRITE        ACCESS:          0 HIT:          0 MISS:          0
cpu0_ITLB TRANSLATION  ACCESS:          0 HIT:          0 MISS:          0
cpu0_ITLB PREFETCH REQUESTED:          0 ISSUED:          0 USEFUL:          0 USELESS:          0
cpu0_ITLB AVERAGE MISS LATENCY: -nan cycles
cpu0_L1D TOTAL        ACCESS:  264006638 HIT:  262029977 MISS:    1976661
cpu0_L1D LOAD         ACCESS:  145824908 HIT:  144859680 MISS:     965228
cpu0_L1D RFO          ACCESS:          0 HIT:          0 MISS:          0
cpu0_L1D PREFETCH     ACCESS:          0 HIT:          0 MISS:          0
cpu0_L1D WRITE        ACCESS:  117835632 HIT:  117152620 MISS:     683012
cpu0_L1D TRANSLATION  ACCESS:     346098 HIT:      17677 MISS:     328421
cpu0_L1D PREFETCH REQUESTED:          0 ISSUED:          0 USEFUL:          0 USELESS:          0
cpu0_L1D AVERAGE MISS LATENCY: 45.63 cycles
cpu0_L1I TOTAL        ACCESS:   79145422 HIT:   77990830 MISS:    1154592
cpu0_L1I LOAD         ACCESS:   79145422 HIT:   77990830 MISS:    1154592
cpu0_L1I RFO          ACCESS:          0 HIT:          0 MISS:          0
cpu0_L1I PREFETCH     ACCESS:          0 HIT:          0 MISS:          0
cpu0_L1I WRITE        ACCESS:          0 HIT:          0 MISS:          0
cpu0_L1I TRANSLATION  ACCESS:          0 HIT:          0 MISS:          0
cpu0_L1I PREFETCH REQUESTED:          0 ISSUED:          0 USEFUL:          0 USELESS:          0
cpu0_L1I AVERAGE MISS LATENCY: 7.691 cycles
cpu0_L2C TOTAL        ACCESS:    2536518 HIT:    1996405 MISS:     540113
cpu0_L2C LOAD         ACCESS:    1488465 HIT:    1202173 MISS:     286292
cpu0_L2C RFO          ACCESS:     244137 HIT:     231611 MISS:      12526
cpu0_L2C PREFETCH     ACCESS:          0 HIT:          0 MISS:          0
cpu0_L2C WRITE        ACCESS:     476267 HIT:     475264 MISS:       1003
cpu0_L2C TRANSLATION  ACCESS:     327649 HIT:      87357 MISS:     240292
cpu0_L2C PREFETCH REQUESTED:          0 ISSUED:          0 USEFUL:          0 USELESS:          0
cpu0_L2C AVERAGE MISS LATENCY: 151.2 cycles
cpu0_STLB TOTAL        ACCESS:     266476 HIT:      94811 MISS:     171665
cpu0_STLB LOAD         ACCESS:     266476 HIT:      94811 MISS:     171665
cpu0_STLB RFO          ACCESS:          0 HIT:          0 MISS:          0
cpu0_STLB PREFETCH     ACCESS:          0 HIT:          0 MISS:          0
cpu0_STLB WRITE        ACCESS:          0 HIT:          0 MISS:          0
cpu0_STLB TRANSLATION  ACCESS:          0 HIT:          0 MISS:          0
cpu0_STLB PREFETCH REQUESTED:          0 ISSUED:          0 USEFUL:          0 USELESS:          0
cpu0_STLB AVERAGE MISS LATENCY: 589.4 cycles

DRAM Statistics

Channel 0 RQ ROW_BUFFER_HIT:     116212
  ROW_BUFFER_MISS:     379239
 AVG DBUS CONGESTED CYCLE: 3.92
WQ ROW_BUFFER_HIT: Channel 0 
  ROW_BUFFER_MISS:       7978
  FULL:     182299
