WARNING: physical memory size is smaller than virtual memory size.
WARNING: option --warmup_instructions is deprecated. Use --warmup-instructions instead.
WARNING: option --simulation_instructions is deprecated. Use --simulation-instructions instead.

*** ChampSim Multicore Out-of-Order Simulator ***
Warmup Instructions: 200000000
Simulation Instructions: 1000000000
Number of CPUs: 1
Page size: 4096

Off-chip DRAM Size: 4 GiB Channels: 1 Width: 64-bit Data Race: 3200 MT/s
Heartbeat CPU 0 instructions: 10000001 cycles: 2500044 heartbeat IPC: 4 cumulative IPC: 4 (Simulation time: 00 hr 00 min 32 sec)
Heartbeat CPU 0 instructions: 20000001 cycles: 5000044 heartbeat IPC: 4 cumulative IPC: 4 (Simulation time: 00 hr 01 min 05 sec)
Heartbeat CPU 0 instructions: 30000001 cycles: 7500044 heartbeat IPC: 4 cumulative IPC: 4 (Simulation time: 00 hr 01 min 38 sec)
Heartbeat CPU 0 instructions: 40000001 cycles: 10000044 heartbeat IPC: 4 cumulative IPC: 4 (Simulation time: 00 hr 02 min 11 sec)
Heartbeat CPU 0 instructions: 50000001 cycles: 12500044 heartbeat IPC: 4 cumulative IPC: 4 (Simulation time: 00 hr 02 min 44 sec)
Heartbeat CPU 0 instructions: 60000001 cycles: 15000044 heartbeat IPC: 4 cumulative IPC: 4 (Simulation time: 00 hr 03 min 17 sec)
Heartbeat CPU 0 instructions: 70000001 cycles: 17500044 heartbeat IPC: 4 cumulative IPC: 4 (Simulation time: 00 hr 03 min 50 sec)
Heartbeat CPU 0 instructions: 80000001 cycles: 20000044 heartbeat IPC: 4 cumulative IPC: 4 (Simulation time: 00 hr 04 min 23 sec)
Heartbeat CPU 0 instructions: 90000001 cycles: 22500044 heartbeat IPC: 4 cumulative IPC: 4 (Simulation time: 00 hr 04 min 56 sec)
Heartbeat CPU 0 instructions: 100000001 cycles: 25000044 heartbeat IPC: 4 cumulative IPC: 4 (Simulation time: 00 hr 05 min 29 sec)
Heartbeat CPU 0 instructions: 110000001 cycles: 27500044 heartbeat IPC: 4 cumulative IPC: 4 (Simulation time: 00 hr 06 min 02 sec)
Heartbeat CPU 0 instructions: 120000001 cycles: 30000044 heartbeat IPC: 4 cumulative IPC: 4 (Simulation time: 00 hr 06 min 35 sec)
Heartbeat CPU 0 instructions: 130000001 cycles: 32500044 heartbeat IPC: 4 cumulative IPC: 4 (Simulation time: 00 hr 07 min 08 sec)
Heartbeat CPU 0 instructions: 140000001 cycles: 35000044 heartbeat IPC: 4 cumulative IPC: 4 (Simulation time: 00 hr 07 min 41 sec)
Heartbeat CPU 0 instructions: 150000001 cycles: 37500044 heartbeat IPC: 4 cumulative IPC: 4 (Simulation time: 00 hr 08 min 13 sec)
Heartbeat CPU 0 instructions: 160000001 cycles: 40000044 heartbeat IPC: 4 cumulative IPC: 4 (Simulation time: 00 hr 08 min 46 sec)
Heartbeat CPU 0 instructions: 170000001 cycles: 42500044 heartbeat IPC: 4 cumulative IPC: 4 (Simulation time: 00 hr 09 min 19 sec)
Heartbeat CPU 0 instructions: 180000001 cycles: 45000044 heartbeat IPC: 4 cumulative IPC: 4 (Simulation time: 00 hr 09 min 52 sec)
Heartbeat CPU 0 instructions: 190000001 cycles: 47500044 heartbeat IPC: 4 cumulative IPC: 4 (Simulation time: 00 hr 10 min 25 sec)
Heartbeat CPU 0 instructions: 200000001 cycles: 50000044 heartbeat IPC: 4 cumulative IPC: 4 (Simulation time: 00 hr 10 min 58 sec)
Warmup finished CPU 0 instructions: 200000001 cycles: 50000045 cumulative IPC: 4 (Simulation time: 00 hr 10 min 58 sec)
Warmup complete CPU 0 instructions: 200000001 cycles: 50000045 cumulative IPC: 4 (Simulation time: 00 hr 10 min 58 sec)
Heartbeat CPU 0 instructions: 210000004 cycles: 52592524 heartbeat IPC: 3.857 cumulative IPC: 3.857 (Simulation time: 00 hr 11 min 37 sec)
Heartbeat CPU 0 instructions: 220000004 cycles: 55184957 heartbeat IPC: 3.857 cumulative IPC: 3.857 (Simulation time: 00 hr 12 min 16 sec)
Heartbeat CPU 0 instructions: 230000003 cycles: 57777577 heartbeat IPC: 3.857 cumulative IPC: 3.857 (Simulation time: 00 hr 12 min 55 sec)
Heartbeat CPU 0 instructions: 240000003 cycles: 60369826 heartbeat IPC: 3.858 cumulative IPC: 3.857 (Simulation time: 00 hr 13 min 33 sec)
Heartbeat CPU 0 instructions: 250000002 cycles: 62962616 heartbeat IPC: 3.857 cumulative IPC: 3.857 (Simulation time: 00 hr 14 min 12 sec)
Heartbeat CPU 0 instructions: 260000000 cycles: 65555039 heartbeat IPC: 3.857 cumulative IPC: 3.857 (Simulation time: 00 hr 14 min 51 sec)
Heartbeat CPU 0 instructions: 270000000 cycles: 68147438 heartbeat IPC: 3.857 cumulative IPC: 3.857 (Simulation time: 00 hr 15 min 30 sec)
Heartbeat CPU 0 instructions: 280000001 cycles: 70739537 heartbeat IPC: 3.858 cumulative IPC: 3.857 (Simulation time: 00 hr 16 min 08 sec)
Heartbeat CPU 0 instructions: 290000004 cycles: 73332219 heartbeat IPC: 3.857 cumulative IPC: 3.857 (Simulation time: 00 hr 16 min 47 sec)
Heartbeat CPU 0 instructions: 300000000 cycles: 75924624 heartbeat IPC: 3.857 cumulative IPC: 3.857 (Simulation time: 00 hr 17 min 26 sec)
Heartbeat CPU 0 instructions: 310000003 cycles: 78516930 heartbeat IPC: 3.858 cumulative IPC: 3.857 (Simulation time: 00 hr 18 min 05 sec)
Heartbeat CPU 0 instructions: 320000002 cycles: 81109209 heartbeat IPC: 3.858 cumulative IPC: 3.857 (Simulation time: 00 hr 18 min 43 sec)
Heartbeat CPU 0 instructions: 330000000 cycles: 83702168 heartbeat IPC: 3.857 cumulative IPC: 3.857 (Simulation time: 00 hr 19 min 22 sec)
Heartbeat CPU 0 instructions: 340000001 cycles: 86294456 heartbeat IPC: 3.858 cumulative IPC: 3.857 (Simulation time: 00 hr 20 min 01 sec)
Heartbeat CPU 0 instructions: 350000001 cycles: 88886838 heartbeat IPC: 3.857 cumulative IPC: 3.857 (Simulation time: 00 hr 20 min 40 sec)
Heartbeat CPU 0 instructions: 360000003 cycles: 91479337 heartbeat IPC: 3.857 cumulative IPC: 3.857 (Simulation time: 00 hr 21 min 19 sec)
Heartbeat CPU 0 instructions: 370000002 cycles: 94071725 heartbeat IPC: 3.857 cumulative IPC: 3.857 (Simulation time: 00 hr 21 min 57 sec)
Heartbeat CPU 0 instructions: 380000004 cycles: 96663911 heartbeat IPC: 3.858 cumulative IPC: 3.857 (Simulation time: 00 hr 22 min 36 sec)
Heartbeat CPU 0 instructions: 390000000 cycles: 99256324 heartbeat IPC: 3.857 cumulative IPC: 3.857 (Simulation time: 00 hr 23 min 15 sec)
Heartbeat CPU 0 instructions: 400000000 cycles: 101848787 heartbeat IPC: 3.857 cumulative IPC: 3.857 (Simulation time: 00 hr 23 min 54 sec)
Heartbeat CPU 0 instructions: 410000003 cycles: 104441405 heartbeat IPC: 3.857 cumulative IPC: 3.857 (Simulation time: 00 hr 24 min 32 sec)
Heartbeat CPU 0 instructions: 420000002 cycles: 107033692 heartbeat IPC: 3.858 cumulative IPC: 3.857 (Simulation time: 00 hr 25 min 11 sec)
Heartbeat CPU 0 instructions: 430000001 cycles: 109626410 heartbeat IPC: 3.857 cumulative IPC: 3.857 (Simulation time: 00 hr 25 min 50 sec)
Heartbeat CPU 0 instructions: 440000002 cycles: 112219252 heartbeat IPC: 3.857 cumulative IPC: 3.857 (Simulation time: 00 hr 26 min 29 sec)
Heartbeat CPU 0 instructions: 450000000 cycles: 114811844 heartbeat IPC: 3.857 cumulative IPC: 3.857 (Simulation time: 00 hr 27 min 07 sec)
Heartbeat CPU 0 instructions: 460000001 cycles: 117404176 heartbeat IPC: 3.858 cumulative IPC: 3.857 (Simulation time: 00 hr 27 min 46 sec)
Heartbeat CPU 0 instructions: 470000003 cycles: 119996568 heartbeat IPC: 3.857 cumulative IPC: 3.857 (Simulation time: 00 hr 28 min 25 sec)
Heartbeat CPU 0 instructions: 480000004 cycles: 122588783 heartbeat IPC: 3.858 cumulative IPC: 3.857 (Simulation time: 00 hr 29 min 04 sec)
Heartbeat CPU 0 instructions: 490000003 cycles: 125180992 heartbeat IPC: 3.858 cumulative IPC: 3.857 (Simulation time: 00 hr 29 min 43 sec)
Heartbeat CPU 0 instructions: 500000002 cycles: 127773470 heartbeat IPC: 3.857 cumulative IPC: 3.857 (Simulation time: 00 hr 30 min 21 sec)
Heartbeat CPU 0 instructions: 510000001 cycles: 130366143 heartbeat IPC: 3.857 cumulative IPC: 3.857 (Simulation time: 00 hr 31 min 00 sec)
Heartbeat CPU 0 instructions: 520000002 cycles: 132958528 heartbeat IPC: 3.857 cumulative IPC: 3.857 (Simulation time: 00 hr 31 min 39 sec)
Heartbeat CPU 0 instructions: 530000000 cycles: 135551154 heartbeat IPC: 3.857 cumulative IPC: 3.857 (Simulation time: 00 hr 32 min 18 sec)
Heartbeat CPU 0 instructions: 540000002 cycles: 138143488 heartbeat IPC: 3.858 cumulative IPC: 3.857 (Simulation time: 00 hr 32 min 57 sec)
Heartbeat CPU 0 instructions: 550000000 cycles: 140735752 heartbeat IPC: 3.858 cumulative IPC: 3.857 (Simulation time: 00 hr 33 min 35 sec)
Heartbeat CPU 0 instructions: 560000000 cycles: 143328415 heartbeat IPC: 3.857 cumulative IPC: 3.857 (Simulation time: 00 hr 34 min 14 sec)
Heartbeat CPU 0 instructions: 570000002 cycles: 145920698 heartbeat IPC: 3.858 cumulative IPC: 3.857 (Simulation time: 00 hr 34 min 53 sec)
Heartbeat CPU 0 instructions: 580000004 cycles: 148513206 heartbeat IPC: 3.857 cumulative IPC: 3.857 (Simulation time: 00 hr 35 min 32 sec)
Heartbeat CPU 0 instructions: 590000000 cycles: 151105333 heartbeat IPC: 3.858 cumulative IPC: 3.857 (Simulation time: 00 hr 36 min 11 sec)
Heartbeat CPU 0 instructions: 600000001 cycles: 153697966 heartbeat IPC: 3.857 cumulative IPC: 3.857 (Simulation time: 00 hr 36 min 49 sec)
Heartbeat CPU 0 instructions: 610000000 cycles: 156290420 heartbeat IPC: 3.857 cumulative IPC: 3.857 (Simulation time: 00 hr 37 min 28 sec)
Heartbeat CPU 0 instructions: 620000004 cycles: 158882750 heartbeat IPC: 3.858 cumulative IPC: 3.857 (Simulation time: 00 hr 38 min 07 sec)
Heartbeat CPU 0 instructions: 630000002 cycles: 161475004 heartbeat IPC: 3.858 cumulative IPC: 3.857 (Simulation time: 00 hr 38 min 46 sec)
Heartbeat CPU 0 instructions: 640000002 cycles: 164067505 heartbeat IPC: 3.857 cumulative IPC: 3.857 (Simulation time: 00 hr 39 min 25 sec)
Heartbeat CPU 0 instructions: 650000003 cycles: 166659611 heartbeat IPC: 3.858 cumulative IPC: 3.857 (Simulation time: 00 hr 40 min 04 sec)
Heartbeat CPU 0 instructions: 660000002 cycles: 169252105 heartbeat IPC: 3.857 cumulative IPC: 3.857 (Simulation time: 00 hr 40 min 42 sec)
Heartbeat CPU 0 instructions: 670000001 cycles: 171844507 heartbeat IPC: 3.857 cumulative IPC: 3.857 (Simulation time: 00 hr 41 min 21 sec)
Heartbeat CPU 0 instructions: 680000003 cycles: 174436973 heartbeat IPC: 3.857 cumulative IPC: 3.857 (Simulation time: 00 hr 42 min 00 sec)
Heartbeat CPU 0 instructions: 690000001 cycles: 177029099 heartbeat IPC: 3.858 cumulative IPC: 3.857 (Simulation time: 00 hr 42 min 39 sec)
Heartbeat CPU 0 instructions: 700000000 cycles: 179621474 heartbeat IPC: 3.857 cumulative IPC: 3.857 (Simulation time: 00 hr 43 min 18 sec)
Heartbeat CPU 0 instructions: 710000004 cycles: 182214102 heartbeat IPC: 3.857 cumulative IPC: 3.857 (Simulation time: 00 hr 43 min 57 sec)
Heartbeat CPU 0 instructions: 720000000 cycles: 184806340 heartbeat IPC: 3.858 cumulative IPC: 3.857 (Simulation time: 00 hr 44 min 36 sec)
Heartbeat CPU 0 instructions: 730000001 cycles: 187398905 heartbeat IPC: 3.857 cumulative IPC: 3.857 (Simulation time: 00 hr 45 min 14 sec)
Heartbeat CPU 0 instructions: 740000001 cycles: 189991369 heartbeat IPC: 3.857 cumulative IPC: 3.857 (Simulation time: 00 hr 45 min 53 sec)
Heartbeat CPU 0 instructions: 750000001 cycles: 192583490 heartbeat IPC: 3.858 cumulative IPC: 3.857 (Simulation time: 00 hr 46 min 32 sec)
Heartbeat CPU 0 instructions: 760000002 cycles: 195175924 heartbeat IPC: 3.857 cumulative IPC: 3.857 (Simulation time: 00 hr 47 min 11 sec)
Heartbeat CPU 0 instructions: 770000000 cycles: 197768452 heartbeat IPC: 3.857 cumulative IPC: 3.857 (Simulation time: 00 hr 47 min 50 sec)
Heartbeat CPU 0 instructions: 780000000 cycles: 200360768 heartbeat IPC: 3.858 cumulative IPC: 3.857 (Simulation time: 00 hr 48 min 28 sec)
Heartbeat CPU 0 instructions: 790000001 cycles: 202953432 heartbeat IPC: 3.857 cumulative IPC: 3.857 (Simulation time: 00 hr 49 min 07 sec)
Heartbeat CPU 0 instructions: 800000002 cycles: 205545905 heartbeat IPC: 3.857 cumulative IPC: 3.857 (Simulation time: 00 hr 49 min 46 sec)
Heartbeat CPU 0 instructions: 810000003 cycles: 208138367 heartbeat IPC: 3.857 cumulative IPC: 3.857 (Simulation time: 00 hr 50 min 25 sec)
Heartbeat CPU 0 instructions: 820000001 cycles: 210730881 heartbeat IPC: 3.857 cumulative IPC: 3.857 (Simulation time: 00 hr 51 min 04 sec)
Heartbeat CPU 0 instructions: 830000000 cycles: 213323247 heartbeat IPC: 3.857 cumulative IPC: 3.857 (Simulation time: 00 hr 51 min 43 sec)
Heartbeat CPU 0 instructions: 840000001 cycles: 215915687 heartbeat IPC: 3.857 cumulative IPC: 3.857 (Simulation time: 00 hr 52 min 21 sec)
Heartbeat CPU 0 instructions: 850000001 cycles: 218508079 heartbeat IPC: 3.857 cumulative IPC: 3.857 (Simulation time: 00 hr 53 min 00 sec)
Heartbeat CPU 0 instructions: 860000003 cycles: 221100478 heartbeat IPC: 3.857 cumulative IPC: 3.857 (Simulation time: 00 hr 53 min 39 sec)
Heartbeat CPU 0 instructions: 870000003 cycles: 223692820 heartbeat IPC: 3.858 cumulative IPC: 3.857 (Simulation time: 00 hr 54 min 18 sec)
Heartbeat CPU 0 instructions: 880000001 cycles: 226285250 heartbeat IPC: 3.857 cumulative IPC: 3.857 (Simulation time: 00 hr 54 min 57 sec)
Heartbeat CPU 0 instructions: 890000001 cycles: 228877764 heartbeat IPC: 3.857 cumulative IPC: 3.857 (Simulation time: 00 hr 55 min 36 sec)
Heartbeat CPU 0 instructions: 900000003 cycles: 231470160 heartbeat IPC: 3.857 cumulative IPC: 3.857 (Simulation time: 00 hr 56 min 14 sec)
Heartbeat CPU 0 instructions: 910000002 cycles: 234062883 heartbeat IPC: 3.857 cumulative IPC: 3.857 (Simulation time: 00 hr 56 min 53 sec)
Heartbeat CPU 0 instructions: 920000000 cycles: 236655196 heartbeat IPC: 3.858 cumulative IPC: 3.857 (Simulation time: 00 hr 57 min 32 sec)
Heartbeat CPU 0 instructions: 930000002 cycles: 239247475 heartbeat IPC: 3.858 cumulative IPC: 3.857 (Simulation time: 00 hr 58 min 11 sec)
Heartbeat CPU 0 instructions: 940000002 cycles: 241839828 heartbeat IPC: 3.857 cumulative IPC: 3.857 (Simulation time: 00 hr 58 min 50 sec)
Heartbeat CPU 0 instructions: 950000003 cycles: 244432341 heartbeat IPC: 3.857 cumulative IPC: 3.857 (Simulation time: 00 hr 59 min 29 sec)
Heartbeat CPU 0 instructions: 960000004 cycles: 247024743 heartbeat IPC: 3.857 cumulative IPC: 3.857 (Simulation time: 01 hr 00 min 07 sec)
Heartbeat CPU 0 instructions: 970000002 cycles: 249616883 heartbeat IPC: 3.858 cumulative IPC: 3.857 (Simulation time: 01 hr 00 min 46 sec)
Heartbeat CPU 0 instructions: 980000002 cycles: 252209524 heartbeat IPC: 3.857 cumulative IPC: 3.857 (Simulation time: 01 hr 01 min 25 sec)
Heartbeat CPU 0 instructions: 990000003 cycles: 254801634 heartbeat IPC: 3.858 cumulative IPC: 3.857 (Simulation time: 01 hr 02 min 04 sec)
Heartbeat CPU 0 instructions: 1000000003 cycles: 257393853 heartbeat IPC: 3.858 cumulative IPC: 3.857 (Simulation time: 01 hr 02 min 43 sec)
Heartbeat CPU 0 instructions: 1010000001 cycles: 259986875 heartbeat IPC: 3.857 cumulative IPC: 3.857 (Simulation time: 01 hr 03 min 21 sec)
Heartbeat CPU 0 instructions: 1020000003 cycles: 262579409 heartbeat IPC: 3.857 cumulative IPC: 3.857 (Simulation time: 01 hr 04 min 00 sec)
Heartbeat CPU 0 instructions: 1030000002 cycles: 265171519 heartbeat IPC: 3.858 cumulative IPC: 3.857 (Simulation time: 01 hr 04 min 39 sec)
Heartbeat CPU 0 instructions: 1040000002 cycles: 267763716 heartbeat IPC: 3.858 cumulative IPC: 3.857 (Simulation time: 01 hr 05 min 18 sec)
Heartbeat CPU 0 instructions: 1050000001 cycles: 270356022 heartbeat IPC: 3.858 cumulative IPC: 3.857 (Simulation time: 01 hr 05 min 57 sec)
Heartbeat CPU 0 instructions: 1060000003 cycles: 272948617 heartbeat IPC: 3.857 cumulative IPC: 3.857 (Simulation time: 01 hr 06 min 36 sec)
Heartbeat CPU 0 instructions: 1070000002 cycles: 275540806 heartbeat IPC: 3.858 cumulative IPC: 3.857 (Simulation time: 01 hr 07 min 15 sec)
Heartbeat CPU 0 instructions: 1080000003 cycles: 278133225 heartbeat IPC: 3.857 cumulative IPC: 3.857 (Simulation time: 01 hr 07 min 53 sec)
Heartbeat CPU 0 instructions: 1090000001 cycles: 280725567 heartbeat IPC: 3.858 cumulative IPC: 3.857 (Simulation time: 01 hr 08 min 32 sec)
Heartbeat CPU 0 instructions: 1100000004 cycles: 283318084 heartbeat IPC: 3.857 cumulative IPC: 3.857 (Simulation time: 01 hr 09 min 11 sec)
Heartbeat CPU 0 instructions: 1110000001 cycles: 285910781 heartbeat IPC: 3.857 cumulative IPC: 3.857 (Simulation time: 01 hr 09 min 50 sec)
Heartbeat CPU 0 instructions: 1120000000 cycles: 288503140 heartbeat IPC: 3.857 cumulative IPC: 3.857 (Simulation time: 01 hr 10 min 29 sec)
Heartbeat CPU 0 instructions: 1130000000 cycles: 291095360 heartbeat IPC: 3.858 cumulative IPC: 3.857 (Simulation time: 01 hr 11 min 08 sec)
Heartbeat CPU 0 instructions: 1140000000 cycles: 293688216 heartbeat IPC: 3.857 cumulative IPC: 3.857 (Simulation time: 01 hr 11 min 46 sec)
Heartbeat CPU 0 instructions: 1150000000 cycles: 296280835 heartbeat IPC: 3.857 cumulative IPC: 3.857 (Simulation time: 01 hr 12 min 25 sec)
Heartbeat CPU 0 instructions: 1160000004 cycles: 298873362 heartbeat IPC: 3.857 cumulative IPC: 3.857 (Simulation time: 01 hr 13 min 04 sec)
Heartbeat CPU 0 instructions: 1170000000 cycles: 301465539 heartbeat IPC: 3.858 cumulative IPC: 3.857 (Simulation time: 01 hr 13 min 43 sec)
Heartbeat CPU 0 instructions: 1180000004 cycles: 304057787 heartbeat IPC: 3.858 cumulative IPC: 3.857 (Simulation time: 01 hr 14 min 22 sec)
Heartbeat CPU 0 instructions: 1190000002 cycles: 306650298 heartbeat IPC: 3.857 cumulative IPC: 3.857 (Simulation time: 01 hr 15 min 01 sec)
Heartbeat CPU 0 instructions: 1200000002 cycles: 309242402 heartbeat IPC: 3.858 cumulative IPC: 3.857 (Simulation time: 01 hr 15 min 40 sec)
Simulation finished CPU 0 instructions: 1000000001 cycles: 259242358 cumulative IPC: 3.857 (Simulation time: 01 hr 15 min 40 sec)
Simulation complete CPU 0 instructions: 1000000001 cycles: 259242358 cumulative IPC: 3.857 (Simulation time: 01 hr 15 min 40 sec)

ChampSim completed all CPUs

=== Simulation ===
CPU 0 runs /home/faculty/p/pgratz/dpc3_traces/638.imagick_s-10316B.champsimtrace.xz
Region of Interest Statistics

CPU 0 cumulative IPC: 3.857 instructions: 1000000001 cycles: 259242358
CPU 0 Branch Prediction Accuracy: 99.7% MPKI: 0.3129 Average ROB Occupancy at Mispredict: 348.4
Branch type MPKI
BRANCH_DIRECT_JUMP: 1e-06
BRANCH_INDIRECT: 0
BRANCH_CONDITIONAL: 0.313
BRANCH_DIRECT_CALL: 0
BRANCH_INDIRECT_CALL: 0
BRANCH_RETURN: 0

LLC TOTAL        ACCESS:      39422 HIT:        364 MISS:      39058
LLC LOAD         ACCESS:      38709 HIT:          0 MISS:      38709
LLC RFO          ACCESS:        349 HIT:          0 MISS:        349
LLC PREFETCH     ACCESS:          0 HIT:          0 MISS:          0
LLC WRITE        ACCESS:        358 HIT:        358 MISS:          0
LLC TRANSLATION  ACCESS:          6 HIT:          6 MISS:          0
LLC PREFETCH REQUESTED:          0 ISSUED:          0 USEFUL:          0 USELESS:          0
LLC AVERAGE MISS LATENCY: 136.5 cycles
cpu0_DTLB TOTAL        ACCESS:  111518199 HIT:  110175042 MISS:    1343157
cpu0_DTLB LOAD         ACCESS:  111518199 HIT:  110175042 MISS:    1343157
cpu0_DTLB RFO          ACCESS:          0 HIT:          0 MISS:          0
cpu0_DTLB PREFETCH     ACCESS:          0 HIT:          0 MISS:          0
cpu0_DTLB WRITE        ACCESS:          0 HIT:          0 MISS:          0
cpu0_DTLB TRANSLATION  ACCESS:          0 HIT:          0 MISS:          0
cpu0_DTLB PREFETCH REQUESTED:          0 ISSUED:          0 USEFUL:          0 USELESS:          0
cpu0_DTLB AVERAGE MISS LATENCY: 0.7038 cycles
cpu0_ITLB TOTAL        ACCESS:          0 HIT:          0 MISS:          0
cpu0_ITLB LOAD         ACCESS:          0 HIT:          0 MISS:          0
cpu0_ITLB RFO          ACCESS:          0 HIT:          0 MISS:          0
cpu0_ITLB PREFETCH     ACCESS:          0 HIT:          0 MISS:          0
cpu0_ITLB WRITE        ACCESS:          0 HIT:          0 MISS:          0
cpu0_ITLB TRANSLATION  ACCESS:          0 HIT:          0 MISS:          0
cpu0_ITLB PREFETCH REQUESTED:          0 ISSUED:          0 USEFUL:          0 USELESS:          0
cpu0_ITLB AVERAGE MISS LATENCY: -nan cycles
cpu0_L1D TOTAL        ACCESS:  155313658 HIT:  116205277 MISS:   39108381
cpu0_L1D LOAD         ACCESS:  155265563 HIT:  116169336 MISS:   39096227
cpu0_L1D RFO          ACCESS:          0 HIT:          0 MISS:          0
cpu0_L1D PREFETCH     ACCESS:          0 HIT:          0 MISS:          0
cpu0_L1D WRITE        ACCESS:      47484 HIT:      35941 MISS:      11543
cpu0_L1D TRANSLATION  ACCESS:        611 HIT:          0 MISS:        611
cpu0_L1D PREFETCH REQUESTED:          0 ISSUED:          0 USEFUL:          0 USELESS:          0
cpu0_L1D AVERAGE MISS LATENCY: 0.6796 cycles
cpu0_L1I TOTAL        ACCESS:          0 HIT:          0 MISS:          0
cpu0_L1I LOAD         ACCESS:          0 HIT:          0 MISS:          0
cpu0_L1I RFO          ACCESS:          0 HIT:          0 MISS:          0
cpu0_L1I PREFETCH     ACCESS:          0 HIT:          0 MISS:          0
cpu0_L1I WRITE        ACCESS:          0 HIT:          0 MISS:          0
cpu0_L1I TRANSLATION  ACCESS:          0 HIT:          0 MISS:          0
cpu0_L1I PREFETCH REQUESTED:          0 ISSUED:          0 USEFUL:          0 USELESS:          0
cpu0_L1I AVERAGE MISS LATENCY: -nan cycles
cpu0_L2C TOTAL        ACCESS:    8914574 HIT:    8875510 MISS:      39064
cpu0_L2C LOAD         ACCESS:    8893740 HIT:    8855031 MISS:      38709
cpu0_L2C RFO          ACCESS:       5929 HIT:       5580 MISS:        349
cpu0_L2C PREFETCH     ACCESS:          0 HIT:          0 MISS:          0
cpu0_L2C WRITE        ACCESS:      14294 HIT:      14294 MISS:          0
cpu0_L2C TRANSLATION  ACCESS:        611 HIT:        605 MISS:          6
cpu0_L2C PREFETCH REQUESTED:          0 ISSUED:          0 USEFUL:          0 USELESS:          0
cpu0_L2C AVERAGE MISS LATENCY: 157.5 cycles
cpu0_STLB TOTAL        ACCESS:     463815 HIT:     463204 MISS:        611
cpu0_STLB LOAD         ACCESS:     463815 HIT:     463204 MISS:        611
cpu0_STLB RFO          ACCESS:          0 HIT:          0 MISS:          0
cpu0_STLB PREFETCH     ACCESS:          0 HIT:          0 MISS:          0
cpu0_STLB WRITE        ACCESS:          0 HIT:          0 MISS:          0
cpu0_STLB TRANSLATION  ACCESS:          0 HIT:          0 MISS:          0
cpu0_STLB PREFETCH REQUESTED:          0 ISSUED:          0 USEFUL:          0 USELESS:          0
cpu0_STLB AVERAGE MISS LATENCY: 217.2 cycles

DRAM Statistics

Channel 0 RQ ROW_BUFFER_HIT:      10682
  ROW_BUFFER_MISS:      28376
 AVG DBUS CONGESTED CYCLE: -
WQ ROW_BUFFER_HIT: Channel 0 
  ROW_BUFFER_MISS:          0
  FULL:        127
