WARNING: physical memory size is smaller than virtual memory size.
WARNING: option --warmup_instructions is deprecated. Use --warmup-instructions instead.
WARNING: option --simulation_instructions is deprecated. Use --simulation-instructions instead.

*** ChampSim Multicore Out-of-Order Simulator ***
Warmup Instructions: 200000000
Simulation Instructions: 1000000000
Number of CPUs: 1
Page size: 4096

Off-chip DRAM Size: 4 GiB Channels: 1 Width: 64-bit Data Race: 3200 MT/s
Heartbeat CPU 0 instructions: 10000001 cycles: 2511341 heartbeat IPC: 3.982 cumulative IPC: 3.982 (Simulation time: 00 hr 00 min 41 sec)
Heartbeat CPU 0 instructions: 20000000 cycles: 5022630 heartbeat IPC: 3.982 cumulative IPC: 3.982 (Simulation time: 00 hr 01 min 23 sec)
Heartbeat CPU 0 instructions: 30000000 cycles: 7532178 heartbeat IPC: 3.985 cumulative IPC: 3.983 (Simulation time: 00 hr 02 min 04 sec)
Heartbeat CPU 0 instructions: 40000001 cycles: 10043454 heartbeat IPC: 3.982 cumulative IPC: 3.983 (Simulation time: 00 hr 02 min 46 sec)
Heartbeat CPU 0 instructions: 50000000 cycles: 12553871 heartbeat IPC: 3.983 cumulative IPC: 3.983 (Simulation time: 00 hr 03 min 27 sec)
Heartbeat CPU 0 instructions: 60000001 cycles: 15064309 heartbeat IPC: 3.983 cumulative IPC: 3.983 (Simulation time: 00 hr 04 min 09 sec)
Heartbeat CPU 0 instructions: 70000001 cycles: 17575615 heartbeat IPC: 3.982 cumulative IPC: 3.983 (Simulation time: 00 hr 04 min 50 sec)
Heartbeat CPU 0 instructions: 80000002 cycles: 20086050 heartbeat IPC: 3.983 cumulative IPC: 3.983 (Simulation time: 00 hr 05 min 32 sec)
Heartbeat CPU 0 instructions: 90000003 cycles: 22596493 heartbeat IPC: 3.983 cumulative IPC: 3.983 (Simulation time: 00 hr 06 min 13 sec)
Heartbeat CPU 0 instructions: 100000001 cycles: 25106938 heartbeat IPC: 3.983 cumulative IPC: 3.983 (Simulation time: 00 hr 06 min 55 sec)
Heartbeat CPU 0 instructions: 110000001 cycles: 27616855 heartbeat IPC: 3.984 cumulative IPC: 3.983 (Simulation time: 00 hr 07 min 36 sec)
Heartbeat CPU 0 instructions: 120000003 cycles: 30333675 heartbeat IPC: 3.681 cumulative IPC: 3.956 (Simulation time: 00 hr 08 min 20 sec)
Heartbeat CPU 0 instructions: 130000000 cycles: 32843389 heartbeat IPC: 3.985 cumulative IPC: 3.958 (Simulation time: 00 hr 09 min 01 sec)
Heartbeat CPU 0 instructions: 140000002 cycles: 35353986 heartbeat IPC: 3.983 cumulative IPC: 3.96 (Simulation time: 00 hr 09 min 43 sec)
Heartbeat CPU 0 instructions: 150000001 cycles: 37864581 heartbeat IPC: 3.983 cumulative IPC: 3.961 (Simulation time: 00 hr 10 min 25 sec)
Heartbeat CPU 0 instructions: 160000001 cycles: 40375175 heartbeat IPC: 3.983 cumulative IPC: 3.963 (Simulation time: 00 hr 11 min 07 sec)
Heartbeat CPU 0 instructions: 170000001 cycles: 42885770 heartbeat IPC: 3.983 cumulative IPC: 3.964 (Simulation time: 00 hr 11 min 49 sec)
Heartbeat CPU 0 instructions: 180000001 cycles: 45397244 heartbeat IPC: 3.982 cumulative IPC: 3.965 (Simulation time: 00 hr 12 min 30 sec)
Heartbeat CPU 0 instructions: 190000002 cycles: 47906960 heartbeat IPC: 3.985 cumulative IPC: 3.966 (Simulation time: 00 hr 13 min 12 sec)
Heartbeat CPU 0 instructions: 200000000 cycles: 50417550 heartbeat IPC: 3.983 cumulative IPC: 3.967 (Simulation time: 00 hr 13 min 54 sec)
Warmup finished CPU 0 instructions: 200000000 cycles: 50417551 cumulative IPC: 3.967 (Simulation time: 00 hr 13 min 54 sec)
Warmup complete CPU 0 instructions: 200000000 cycles: 50417551 cumulative IPC: 3.967 (Simulation time: 00 hr 13 min 54 sec)
Heartbeat CPU 0 instructions: 210000000 cycles: 56343467 heartbeat IPC: 1.688 cumulative IPC: 1.688 (Simulation time: 00 hr 14 min 58 sec)
Heartbeat CPU 0 instructions: 220000000 cycles: 62300291 heartbeat IPC: 1.679 cumulative IPC: 1.683 (Simulation time: 00 hr 16 min 02 sec)
Heartbeat CPU 0 instructions: 230000001 cycles: 68262625 heartbeat IPC: 1.677 cumulative IPC: 1.681 (Simulation time: 00 hr 17 min 07 sec)
Heartbeat CPU 0 instructions: 240000000 cycles: 74175745 heartbeat IPC: 1.691 cumulative IPC: 1.684 (Simulation time: 00 hr 18 min 11 sec)
Heartbeat CPU 0 instructions: 250000000 cycles: 80115210 heartbeat IPC: 1.684 cumulative IPC: 1.684 (Simulation time: 00 hr 19 min 15 sec)
Heartbeat CPU 0 instructions: 260000002 cycles: 86027472 heartbeat IPC: 1.691 cumulative IPC: 1.685 (Simulation time: 00 hr 20 min 19 sec)
Heartbeat CPU 0 instructions: 270000002 cycles: 91961490 heartbeat IPC: 1.685 cumulative IPC: 1.685 (Simulation time: 00 hr 21 min 23 sec)
Heartbeat CPU 0 instructions: 280000004 cycles: 97899341 heartbeat IPC: 1.684 cumulative IPC: 1.685 (Simulation time: 00 hr 22 min 27 sec)
Heartbeat CPU 0 instructions: 290000004 cycles: 103790863 heartbeat IPC: 1.697 cumulative IPC: 1.686 (Simulation time: 00 hr 23 min 31 sec)
Heartbeat CPU 0 instructions: 300000000 cycles: 109714057 heartbeat IPC: 1.688 cumulative IPC: 1.686 (Simulation time: 00 hr 24 min 35 sec)
Heartbeat CPU 0 instructions: 310000000 cycles: 115637333 heartbeat IPC: 1.688 cumulative IPC: 1.687 (Simulation time: 00 hr 25 min 38 sec)
Heartbeat CPU 0 instructions: 320000004 cycles: 121550876 heartbeat IPC: 1.691 cumulative IPC: 1.687 (Simulation time: 00 hr 26 min 42 sec)
Heartbeat CPU 0 instructions: 330000004 cycles: 127476801 heartbeat IPC: 1.688 cumulative IPC: 1.687 (Simulation time: 00 hr 27 min 46 sec)
Heartbeat CPU 0 instructions: 340000002 cycles: 133404907 heartbeat IPC: 1.687 cumulative IPC: 1.687 (Simulation time: 00 hr 28 min 50 sec)
Heartbeat CPU 0 instructions: 350000003 cycles: 139334820 heartbeat IPC: 1.686 cumulative IPC: 1.687 (Simulation time: 00 hr 29 min 54 sec)
Heartbeat CPU 0 instructions: 360000003 cycles: 145286437 heartbeat IPC: 1.68 cumulative IPC: 1.687 (Simulation time: 00 hr 30 min 58 sec)
Heartbeat CPU 0 instructions: 370000003 cycles: 151164034 heartbeat IPC: 1.701 cumulative IPC: 1.687 (Simulation time: 00 hr 32 min 01 sec)
Heartbeat CPU 0 instructions: 380000001 cycles: 157111835 heartbeat IPC: 1.681 cumulative IPC: 1.687 (Simulation time: 00 hr 33 min 06 sec)
Heartbeat CPU 0 instructions: 390000002 cycles: 163021549 heartbeat IPC: 1.692 cumulative IPC: 1.687 (Simulation time: 00 hr 34 min 09 sec)
Heartbeat CPU 0 instructions: 400000002 cycles: 168938083 heartbeat IPC: 1.69 cumulative IPC: 1.687 (Simulation time: 00 hr 35 min 13 sec)
Heartbeat CPU 0 instructions: 410000001 cycles: 174861578 heartbeat IPC: 1.688 cumulative IPC: 1.688 (Simulation time: 00 hr 36 min 17 sec)
Heartbeat CPU 0 instructions: 420000000 cycles: 180823017 heartbeat IPC: 1.677 cumulative IPC: 1.687 (Simulation time: 00 hr 37 min 21 sec)
Heartbeat CPU 0 instructions: 430000003 cycles: 186786351 heartbeat IPC: 1.677 cumulative IPC: 1.687 (Simulation time: 00 hr 38 min 25 sec)
Heartbeat CPU 0 instructions: 440000003 cycles: 192719477 heartbeat IPC: 1.685 cumulative IPC: 1.687 (Simulation time: 00 hr 39 min 29 sec)
Heartbeat CPU 0 instructions: 450000002 cycles: 198642747 heartbeat IPC: 1.688 cumulative IPC: 1.687 (Simulation time: 00 hr 40 min 33 sec)
Heartbeat CPU 0 instructions: 460000003 cycles: 204578457 heartbeat IPC: 1.685 cumulative IPC: 1.687 (Simulation time: 00 hr 41 min 37 sec)
Heartbeat CPU 0 instructions: 470000004 cycles: 210561139 heartbeat IPC: 1.671 cumulative IPC: 1.686 (Simulation time: 00 hr 42 min 41 sec)
Heartbeat CPU 0 instructions: 480000001 cycles: 216512923 heartbeat IPC: 1.68 cumulative IPC: 1.686 (Simulation time: 00 hr 43 min 45 sec)
Heartbeat CPU 0 instructions: 490000000 cycles: 222423752 heartbeat IPC: 1.692 cumulative IPC: 1.686 (Simulation time: 00 hr 44 min 49 sec)
Heartbeat CPU 0 instructions: 500000001 cycles: 228305408 heartbeat IPC: 1.7 cumulative IPC: 1.686 (Simulation time: 00 hr 45 min 53 sec)
Heartbeat CPU 0 instructions: 510000002 cycles: 234250620 heartbeat IPC: 1.682 cumulative IPC: 1.686 (Simulation time: 00 hr 46 min 57 sec)
Heartbeat CPU 0 instructions: 520000004 cycles: 240160848 heartbeat IPC: 1.692 cumulative IPC: 1.686 (Simulation time: 00 hr 48 min 01 sec)
Heartbeat CPU 0 instructions: 530000001 cycles: 246104250 heartbeat IPC: 1.683 cumulative IPC: 1.686 (Simulation time: 00 hr 49 min 05 sec)
Heartbeat CPU 0 instructions: 540000000 cycles: 252027143 heartbeat IPC: 1.688 cumulative IPC: 1.686 (Simulation time: 00 hr 50 min 08 sec)
Heartbeat CPU 0 instructions: 550000000 cycles: 257954373 heartbeat IPC: 1.687 cumulative IPC: 1.686 (Simulation time: 00 hr 51 min 12 sec)
Heartbeat CPU 0 instructions: 560000002 cycles: 263891527 heartbeat IPC: 1.684 cumulative IPC: 1.686 (Simulation time: 00 hr 52 min 16 sec)
Heartbeat CPU 0 instructions: 570000003 cycles: 269798692 heartbeat IPC: 1.693 cumulative IPC: 1.687 (Simulation time: 00 hr 53 min 20 sec)
Heartbeat CPU 0 instructions: 580000002 cycles: 275673729 heartbeat IPC: 1.702 cumulative IPC: 1.687 (Simulation time: 00 hr 54 min 24 sec)
Heartbeat CPU 0 instructions: 590000000 cycles: 281567358 heartbeat IPC: 1.697 cumulative IPC: 1.687 (Simulation time: 00 hr 55 min 27 sec)
Heartbeat CPU 0 instructions: 600000000 cycles: 287457512 heartbeat IPC: 1.698 cumulative IPC: 1.687 (Simulation time: 00 hr 56 min 31 sec)
Heartbeat CPU 0 instructions: 610000001 cycles: 293382602 heartbeat IPC: 1.688 cumulative IPC: 1.687 (Simulation time: 00 hr 57 min 35 sec)
Heartbeat CPU 0 instructions: 620000003 cycles: 299325000 heartbeat IPC: 1.683 cumulative IPC: 1.687 (Simulation time: 00 hr 58 min 39 sec)
Heartbeat CPU 0 instructions: 630000001 cycles: 305282764 heartbeat IPC: 1.678 cumulative IPC: 1.687 (Simulation time: 00 hr 59 min 43 sec)
Heartbeat CPU 0 instructions: 640000001 cycles: 311268516 heartbeat IPC: 1.671 cumulative IPC: 1.687 (Simulation time: 01 hr 00 min 47 sec)
Heartbeat CPU 0 instructions: 650000000 cycles: 317221889 heartbeat IPC: 1.68 cumulative IPC: 1.687 (Simulation time: 01 hr 01 min 51 sec)
Heartbeat CPU 0 instructions: 660000000 cycles: 323138914 heartbeat IPC: 1.69 cumulative IPC: 1.687 (Simulation time: 01 hr 02 min 55 sec)
Heartbeat CPU 0 instructions: 670000003 cycles: 329085175 heartbeat IPC: 1.682 cumulative IPC: 1.687 (Simulation time: 01 hr 03 min 59 sec)
Heartbeat CPU 0 instructions: 680000000 cycles: 335030691 heartbeat IPC: 1.682 cumulative IPC: 1.686 (Simulation time: 01 hr 05 min 03 sec)
Heartbeat CPU 0 instructions: 690000000 cycles: 340956820 heartbeat IPC: 1.687 cumulative IPC: 1.687 (Simulation time: 01 hr 06 min 07 sec)
Heartbeat CPU 0 instructions: 700000003 cycles: 346900723 heartbeat IPC: 1.682 cumulative IPC: 1.686 (Simulation time: 01 hr 07 min 11 sec)
Heartbeat CPU 0 instructions: 710000001 cycles: 352812755 heartbeat IPC: 1.691 cumulative IPC: 1.687 (Simulation time: 01 hr 08 min 15 sec)
Heartbeat CPU 0 instructions: 720000004 cycles: 358786017 heartbeat IPC: 1.674 cumulative IPC: 1.686 (Simulation time: 01 hr 09 min 19 sec)
Heartbeat CPU 0 instructions: 730000000 cycles: 364733846 heartbeat IPC: 1.681 cumulative IPC: 1.686 (Simulation time: 01 hr 10 min 23 sec)
Heartbeat CPU 0 instructions: 740000001 cycles: 370674398 heartbeat IPC: 1.683 cumulative IPC: 1.686 (Simulation time: 01 hr 11 min 27 sec)
Heartbeat CPU 0 instructions: 750000001 cycles: 376628076 heartbeat IPC: 1.68 cumulative IPC: 1.686 (Simulation time: 01 hr 12 min 31 sec)
Heartbeat CPU 0 instructions: 760000002 cycles: 382573653 heartbeat IPC: 1.682 cumulative IPC: 1.686 (Simulation time: 01 hr 13 min 35 sec)
Heartbeat CPU 0 instructions: 770000000 cycles: 388476630 heartbeat IPC: 1.694 cumulative IPC: 1.686 (Simulation time: 01 hr 14 min 39 sec)
Heartbeat CPU 0 instructions: 780000001 cycles: 394456623 heartbeat IPC: 1.672 cumulative IPC: 1.686 (Simulation time: 01 hr 15 min 43 sec)
Heartbeat CPU 0 instructions: 790000000 cycles: 400352989 heartbeat IPC: 1.696 cumulative IPC: 1.686 (Simulation time: 01 hr 16 min 47 sec)
Heartbeat CPU 0 instructions: 800000001 cycles: 406299512 heartbeat IPC: 1.682 cumulative IPC: 1.686 (Simulation time: 01 hr 17 min 51 sec)
Heartbeat CPU 0 instructions: 810000004 cycles: 412210473 heartbeat IPC: 1.692 cumulative IPC: 1.686 (Simulation time: 01 hr 18 min 55 sec)
Heartbeat CPU 0 instructions: 820000001 cycles: 418162372 heartbeat IPC: 1.68 cumulative IPC: 1.686 (Simulation time: 01 hr 19 min 59 sec)
Heartbeat CPU 0 instructions: 830000003 cycles: 424077408 heartbeat IPC: 1.691 cumulative IPC: 1.686 (Simulation time: 01 hr 21 min 03 sec)
Heartbeat CPU 0 instructions: 840000001 cycles: 429961876 heartbeat IPC: 1.699 cumulative IPC: 1.686 (Simulation time: 01 hr 22 min 06 sec)
Heartbeat CPU 0 instructions: 850000003 cycles: 435906400 heartbeat IPC: 1.682 cumulative IPC: 1.686 (Simulation time: 01 hr 23 min 10 sec)
Heartbeat CPU 0 instructions: 860000003 cycles: 441839692 heartbeat IPC: 1.685 cumulative IPC: 1.686 (Simulation time: 01 hr 24 min 14 sec)
Heartbeat CPU 0 instructions: 870000001 cycles: 447793687 heartbeat IPC: 1.68 cumulative IPC: 1.686 (Simulation time: 01 hr 25 min 18 sec)
Heartbeat CPU 0 instructions: 880000001 cycles: 453758515 heartbeat IPC: 1.676 cumulative IPC: 1.686 (Simulation time: 01 hr 26 min 23 sec)
Heartbeat CPU 0 instructions: 890000002 cycles: 459646931 heartbeat IPC: 1.698 cumulative IPC: 1.686 (Simulation time: 01 hr 27 min 26 sec)
Heartbeat CPU 0 instructions: 900000001 cycles: 465535380 heartbeat IPC: 1.698 cumulative IPC: 1.686 (Simulation time: 01 hr 28 min 30 sec)
Heartbeat CPU 0 instructions: 910000000 cycles: 471391195 heartbeat IPC: 1.708 cumulative IPC: 1.687 (Simulation time: 01 hr 29 min 33 sec)
Heartbeat CPU 0 instructions: 920000001 cycles: 477291093 heartbeat IPC: 1.695 cumulative IPC: 1.687 (Simulation time: 01 hr 30 min 37 sec)
Heartbeat CPU 0 instructions: 930000002 cycles: 483244164 heartbeat IPC: 1.68 cumulative IPC: 1.687 (Simulation time: 01 hr 31 min 41 sec)
Heartbeat CPU 0 instructions: 940000002 cycles: 489115390 heartbeat IPC: 1.703 cumulative IPC: 1.687 (Simulation time: 01 hr 32 min 45 sec)
Heartbeat CPU 0 instructions: 950000000 cycles: 495083607 heartbeat IPC: 1.676 cumulative IPC: 1.687 (Simulation time: 01 hr 33 min 49 sec)
Heartbeat CPU 0 instructions: 960000000 cycles: 503996584 heartbeat IPC: 1.122 cumulative IPC: 1.676 (Simulation time: 01 hr 35 min 13 sec)
Heartbeat CPU 0 instructions: 970000002 cycles: 509970900 heartbeat IPC: 1.674 cumulative IPC: 1.676 (Simulation time: 01 hr 36 min 17 sec)
Heartbeat CPU 0 instructions: 980000000 cycles: 515884002 heartbeat IPC: 1.691 cumulative IPC: 1.676 (Simulation time: 01 hr 37 min 21 sec)
Heartbeat CPU 0 instructions: 990000000 cycles: 521831799 heartbeat IPC: 1.681 cumulative IPC: 1.676 (Simulation time: 01 hr 38 min 25 sec)
Heartbeat CPU 0 instructions: 1000000000 cycles: 527815453 heartbeat IPC: 1.671 cumulative IPC: 1.676 (Simulation time: 01 hr 39 min 30 sec)
Heartbeat CPU 0 instructions: 1010000000 cycles: 533759026 heartbeat IPC: 1.682 cumulative IPC: 1.676 (Simulation time: 01 hr 40 min 33 sec)
Heartbeat CPU 0 instructions: 1020000001 cycles: 539658325 heartbeat IPC: 1.695 cumulative IPC: 1.676 (Simulation time: 01 hr 41 min 37 sec)
Heartbeat CPU 0 instructions: 1030000000 cycles: 545625094 heartbeat IPC: 1.676 cumulative IPC: 1.676 (Simulation time: 01 hr 42 min 41 sec)
Heartbeat CPU 0 instructions: 1040000004 cycles: 551518293 heartbeat IPC: 1.697 cumulative IPC: 1.676 (Simulation time: 01 hr 43 min 45 sec)
Heartbeat CPU 0 instructions: 1050000002 cycles: 557457449 heartbeat IPC: 1.684 cumulative IPC: 1.676 (Simulation time: 01 hr 44 min 49 sec)
Heartbeat CPU 0 instructions: 1060000003 cycles: 563388862 heartbeat IPC: 1.686 cumulative IPC: 1.677 (Simulation time: 01 hr 45 min 53 sec)
Heartbeat CPU 0 instructions: 1070000002 cycles: 569273894 heartbeat IPC: 1.699 cumulative IPC: 1.677 (Simulation time: 01 hr 46 min 57 sec)
Heartbeat CPU 0 instructions: 1080000003 cycles: 575224059 heartbeat IPC: 1.681 cumulative IPC: 1.677 (Simulation time: 01 hr 48 min 00 sec)
Heartbeat CPU 0 instructions: 1090000000 cycles: 581166814 heartbeat IPC: 1.683 cumulative IPC: 1.677 (Simulation time: 01 hr 49 min 05 sec)
Heartbeat CPU 0 instructions: 1100000000 cycles: 587073949 heartbeat IPC: 1.693 cumulative IPC: 1.677 (Simulation time: 01 hr 50 min 08 sec)
Heartbeat CPU 0 instructions: 1110000004 cycles: 593045087 heartbeat IPC: 1.675 cumulative IPC: 1.677 (Simulation time: 01 hr 51 min 12 sec)
Heartbeat CPU 0 instructions: 1120000004 cycles: 598972046 heartbeat IPC: 1.687 cumulative IPC: 1.677 (Simulation time: 01 hr 52 min 16 sec)
Heartbeat CPU 0 instructions: 1130000004 cycles: 604918855 heartbeat IPC: 1.682 cumulative IPC: 1.677 (Simulation time: 01 hr 53 min 20 sec)
Heartbeat CPU 0 instructions: 1140000000 cycles: 610836431 heartbeat IPC: 1.69 cumulative IPC: 1.677 (Simulation time: 01 hr 54 min 24 sec)
Heartbeat CPU 0 instructions: 1150000000 cycles: 616729425 heartbeat IPC: 1.697 cumulative IPC: 1.678 (Simulation time: 01 hr 55 min 28 sec)
Heartbeat CPU 0 instructions: 1160000000 cycles: 622747293 heartbeat IPC: 1.662 cumulative IPC: 1.677 (Simulation time: 01 hr 56 min 33 sec)
Heartbeat CPU 0 instructions: 1170000002 cycles: 628653320 heartbeat IPC: 1.693 cumulative IPC: 1.678 (Simulation time: 01 hr 57 min 36 sec)
Heartbeat CPU 0 instructions: 1180000001 cycles: 634619925 heartbeat IPC: 1.676 cumulative IPC: 1.678 (Simulation time: 01 hr 58 min 41 sec)
Heartbeat CPU 0 instructions: 1190000001 cycles: 640581669 heartbeat IPC: 1.677 cumulative IPC: 1.677 (Simulation time: 01 hr 59 min 45 sec)
Heartbeat CPU 0 instructions: 1200000004 cycles: 646519100 heartbeat IPC: 1.684 cumulative IPC: 1.678 (Simulation time: 02 hr 00 min 48 sec)
Simulation finished CPU 0 instructions: 1000000004 cycles: 596101550 cumulative IPC: 1.678 (Simulation time: 02 hr 00 min 48 sec)
Simulation complete CPU 0 instructions: 1000000004 cycles: 596101550 cumulative IPC: 1.678 (Simulation time: 02 hr 00 min 48 sec)

ChampSim completed all CPUs

=== Simulation ===
CPU 0 runs /home/faculty/p/pgratz/dpc3_traces/641.leela_s-800B.champsimtrace.xz
Region of Interest Statistics

CPU 0 cumulative IPC: 1.678 instructions: 1000000004 cycles: 596101550
CPU 0 Branch Prediction Accuracy: 89.15% MPKI: 17.74 Average ROB Occupancy at Mispredict: 22.42
Branch type MPKI
BRANCH_DIRECT_JUMP: 0.0743
BRANCH_INDIRECT: 0.000567
BRANCH_CONDITIONAL: 17.6
BRANCH_DIRECT_CALL: 3e-06
BRANCH_INDIRECT_CALL: 8e-06
BRANCH_RETURN: 0.0264

LLC TOTAL        ACCESS:     121647 HIT:      60963 MISS:      60684
LLC LOAD         ACCESS:      45817 HIT:      15901 MISS:      29916
LLC RFO          ACCESS:      36118 HIT:       5616 MISS:      30502
LLC PREFETCH     ACCESS:          0 HIT:          0 MISS:          0
LLC WRITE        ACCESS:      39349 HIT:      39333 MISS:         16
LLC TRANSLATION  ACCESS:        363 HIT:        113 MISS:        250
LLC PREFETCH REQUESTED:          0 ISSUED:          0 USEFUL:          0 USELESS:          0
LLC AVERAGE MISS LATENCY: 625.8 cycles
cpu0_DTLB TOTAL        ACCESS:  198078173 HIT:  197598341 MISS:     479832
cpu0_DTLB LOAD         ACCESS:  198078173 HIT:  197598341 MISS:     479832
cpu0_DTLB RFO          ACCESS:          0 HIT:          0 MISS:          0
cpu0_DTLB PREFETCH     ACCESS:          0 HIT:          0 MISS:          0
cpu0_DTLB WRITE        ACCESS:          0 HIT:          0 MISS:          0
cpu0_DTLB TRANSLATION  ACCESS:          0 HIT:          0 MISS:          0
cpu0_DTLB PREFETCH REQUESTED:          0 ISSUED:          0 USEFUL:          0 USELESS:          0
cpu0_DTLB AVERAGE MISS LATENCY: 6.367 cycles
cpu0_ITLB TOTAL        ACCESS:   42157893 HIT:   42157830 MISS:         63
cpu0_ITLB LOAD         ACCESS:   42157893 HIT:   42157830 MISS:         63
cpu0_ITLB RFO          ACCESS:          0 HIT:          0 MISS:          0
cpu0_ITLB PREFETCH     ACCESS:          0 HIT:          0 MISS:          0
cpu0_ITLB WRITE        ACCESS:          0 HIT:          0 MISS:          0
cpu0_ITLB TRANSLATION  ACCESS:          0 HIT:          0 MISS:          0
cpu0_ITLB PREFETCH REQUESTED:          0 ISSUED:          0 USEFUL:          0 USELESS:          0
cpu0_ITLB AVERAGE MISS LATENCY: 72.24 cycles
cpu0_L1D TOTAL        ACCESS:  268220953 HIT:  264569682 MISS:    3651271
cpu0_L1D LOAD         ACCESS:  155711020 HIT:  153277799 MISS:    2433221
cpu0_L1D RFO          ACCESS:          0 HIT:          0 MISS:          0
cpu0_L1D PREFETCH     ACCESS:          0 HIT:          0 MISS:          0
cpu0_L1D WRITE        ACCESS:  112509077 HIT:  111291600 MISS:    1217477
cpu0_L1D TRANSLATION  ACCESS:        856 HIT:        283 MISS:        573
cpu0_L1D PREFETCH REQUESTED:          0 ISSUED:          0 USEFUL:          0 USELESS:          0
cpu0_L1D AVERAGE MISS LATENCY: 15.83 cycles
cpu0_L1I TOTAL        ACCESS:   48192816 HIT:   48104318 MISS:      88498
cpu0_L1I LOAD         ACCESS:   48192816 HIT:   48104318 MISS:      88498
cpu0_L1I RFO          ACCESS:          0 HIT:          0 MISS:          0
cpu0_L1I PREFETCH     ACCESS:          0 HIT:          0 MISS:          0
cpu0_L1I WRITE        ACCESS:          0 HIT:          0 MISS:          0
cpu0_L1I TRANSLATION  ACCESS:          0 HIT:          0 MISS:          0
cpu0_L1I PREFETCH REQUESTED:          0 ISSUED:          0 USEFUL:          0 USELESS:          0
cpu0_L1I AVERAGE MISS LATENCY: 7.476 cycles
cpu0_L2C TOTAL        ACCESS:    2741875 HIT:    2659568 MISS:      82307
cpu0_L2C LOAD         ACCESS:    2049284 HIT:    2003467 MISS:      45817
cpu0_L2C RFO          ACCESS:     248874 HIT:     212756 MISS:      36118
cpu0_L2C PREFETCH     ACCESS:          0 HIT:          0 MISS:          0
cpu0_L2C WRITE        ACCESS:     443144 HIT:     443135 MISS:          9
cpu0_L2C TRANSLATION  ACCESS:        573 HIT:        210 MISS:        363
cpu0_L2C PREFETCH REQUESTED:          0 ISSUED:          0 USEFUL:          0 USELESS:          0
cpu0_L2C AVERAGE MISS LATENCY: 482.1 cycles
cpu0_STLB TOTAL        ACCESS:     402032 HIT:     401176 MISS:        856
cpu0_STLB LOAD         ACCESS:     402032 HIT:     401176 MISS:        856
cpu0_STLB RFO          ACCESS:          0 HIT:          0 MISS:          0
cpu0_STLB PREFETCH     ACCESS:          0 HIT:          0 MISS:          0
cpu0_STLB WRITE        ACCESS:          0 HIT:          0 MISS:          0
cpu0_STLB TRANSLATION  ACCESS:          0 HIT:          0 MISS:          0
cpu0_STLB PREFETCH REQUESTED:          0 ISSUED:          0 USEFUL:          0 USELESS:          0
cpu0_STLB AVERAGE MISS LATENCY: 176 cycles

DRAM Statistics

Channel 0 RQ ROW_BUFFER_HIT:      20318
  ROW_BUFFER_MISS:      40217
 AVG DBUS CONGESTED CYCLE: 3.983
WQ ROW_BUFFER_HIT: Channel 0 
  ROW_BUFFER_MISS:       2714
  FULL:      32177
