WARNING: physical memory size is smaller than virtual memory size.
WARNING: option --warmup_instructions is deprecated. Use --warmup-instructions instead.
WARNING: option --simulation_instructions is deprecated. Use --simulation-instructions instead.

*** ChampSim Multicore Out-of-Order Simulator ***
Warmup Instructions: 200000000
Simulation Instructions: 1000000000
Number of CPUs: 1
Page size: 4096

Off-chip DRAM Size: 4 GiB Channels: 1 Width: 64-bit Data Race: 3200 MT/s
Heartbeat CPU 0 instructions: 10000001 cycles: 2500058 heartbeat IPC: 4 cumulative IPC: 4 (Simulation time: 00 hr 00 min 39 sec)
Heartbeat CPU 0 instructions: 20000001 cycles: 5000058 heartbeat IPC: 4 cumulative IPC: 4 (Simulation time: 00 hr 01 min 20 sec)
Heartbeat CPU 0 instructions: 30000001 cycles: 7500058 heartbeat IPC: 4 cumulative IPC: 4 (Simulation time: 00 hr 02 min 00 sec)
Heartbeat CPU 0 instructions: 40000001 cycles: 10000058 heartbeat IPC: 4 cumulative IPC: 4 (Simulation time: 00 hr 02 min 40 sec)
Heartbeat CPU 0 instructions: 50000001 cycles: 12500058 heartbeat IPC: 4 cumulative IPC: 4 (Simulation time: 00 hr 03 min 20 sec)
Heartbeat CPU 0 instructions: 60000001 cycles: 15000058 heartbeat IPC: 4 cumulative IPC: 4 (Simulation time: 00 hr 04 min 00 sec)
Heartbeat CPU 0 instructions: 70000001 cycles: 17500058 heartbeat IPC: 4 cumulative IPC: 4 (Simulation time: 00 hr 04 min 40 sec)
Heartbeat CPU 0 instructions: 80000001 cycles: 20000058 heartbeat IPC: 4 cumulative IPC: 4 (Simulation time: 00 hr 05 min 20 sec)
Heartbeat CPU 0 instructions: 90000001 cycles: 22500058 heartbeat IPC: 4 cumulative IPC: 4 (Simulation time: 00 hr 06 min 00 sec)
Heartbeat CPU 0 instructions: 100000001 cycles: 25000058 heartbeat IPC: 4 cumulative IPC: 4 (Simulation time: 00 hr 06 min 40 sec)
Heartbeat CPU 0 instructions: 110000001 cycles: 27500058 heartbeat IPC: 4 cumulative IPC: 4 (Simulation time: 00 hr 07 min 20 sec)
Heartbeat CPU 0 instructions: 120000001 cycles: 30000058 heartbeat IPC: 4 cumulative IPC: 4 (Simulation time: 00 hr 08 min 00 sec)
Heartbeat CPU 0 instructions: 130000001 cycles: 32500058 heartbeat IPC: 4 cumulative IPC: 4 (Simulation time: 00 hr 08 min 40 sec)
Heartbeat CPU 0 instructions: 140000001 cycles: 35000058 heartbeat IPC: 4 cumulative IPC: 4 (Simulation time: 00 hr 09 min 20 sec)
Heartbeat CPU 0 instructions: 150000001 cycles: 37500058 heartbeat IPC: 4 cumulative IPC: 4 (Simulation time: 00 hr 09 min 59 sec)
Heartbeat CPU 0 instructions: 160000001 cycles: 40000058 heartbeat IPC: 4 cumulative IPC: 4 (Simulation time: 00 hr 10 min 39 sec)
Heartbeat CPU 0 instructions: 170000001 cycles: 42500058 heartbeat IPC: 4 cumulative IPC: 4 (Simulation time: 00 hr 11 min 19 sec)
Heartbeat CPU 0 instructions: 180000001 cycles: 45000058 heartbeat IPC: 4 cumulative IPC: 4 (Simulation time: 00 hr 11 min 58 sec)
Heartbeat CPU 0 instructions: 190000001 cycles: 47500058 heartbeat IPC: 4 cumulative IPC: 4 (Simulation time: 00 hr 12 min 38 sec)
Heartbeat CPU 0 instructions: 200000001 cycles: 50000058 heartbeat IPC: 4 cumulative IPC: 4 (Simulation time: 00 hr 13 min 18 sec)
Warmup finished CPU 0 instructions: 200000001 cycles: 50000059 cumulative IPC: 4 (Simulation time: 00 hr 13 min 18 sec)
Warmup complete CPU 0 instructions: 200000001 cycles: 50000059 cumulative IPC: 4 (Simulation time: 00 hr 13 min 18 sec)
Heartbeat CPU 0 instructions: 210000002 cycles: 54615666 heartbeat IPC: 2.167 cumulative IPC: 2.167 (Simulation time: 00 hr 14 min 17 sec)
Heartbeat CPU 0 instructions: 220000000 cycles: 59145687 heartbeat IPC: 2.207 cumulative IPC: 2.187 (Simulation time: 00 hr 15 min 17 sec)
Heartbeat CPU 0 instructions: 230000002 cycles: 63649466 heartbeat IPC: 2.22 cumulative IPC: 2.198 (Simulation time: 00 hr 16 min 16 sec)
Heartbeat CPU 0 instructions: 240000001 cycles: 68180181 heartbeat IPC: 2.207 cumulative IPC: 2.2 (Simulation time: 00 hr 17 min 16 sec)
Heartbeat CPU 0 instructions: 250000003 cycles: 72654973 heartbeat IPC: 2.235 cumulative IPC: 2.207 (Simulation time: 00 hr 18 min 15 sec)
Heartbeat CPU 0 instructions: 260000003 cycles: 77162362 heartbeat IPC: 2.219 cumulative IPC: 2.209 (Simulation time: 00 hr 19 min 15 sec)
Heartbeat CPU 0 instructions: 270000001 cycles: 81718872 heartbeat IPC: 2.195 cumulative IPC: 2.207 (Simulation time: 00 hr 20 min 14 sec)
Heartbeat CPU 0 instructions: 280000001 cycles: 86150403 heartbeat IPC: 2.257 cumulative IPC: 2.213 (Simulation time: 00 hr 21 min 13 sec)
Heartbeat CPU 0 instructions: 290000000 cycles: 90523004 heartbeat IPC: 2.287 cumulative IPC: 2.221 (Simulation time: 00 hr 22 min 12 sec)
Heartbeat CPU 0 instructions: 300000004 cycles: 94074135 heartbeat IPC: 2.816 cumulative IPC: 2.269 (Simulation time: 00 hr 23 min 10 sec)
Heartbeat CPU 0 instructions: 310000001 cycles: 97693476 heartbeat IPC: 2.763 cumulative IPC: 2.306 (Simulation time: 00 hr 24 min 09 sec)
Heartbeat CPU 0 instructions: 320000000 cycles: 102333478 heartbeat IPC: 2.155 cumulative IPC: 2.293 (Simulation time: 00 hr 25 min 08 sec)
Heartbeat CPU 0 instructions: 330000001 cycles: 107063701 heartbeat IPC: 2.114 cumulative IPC: 2.278 (Simulation time: 00 hr 26 min 09 sec)
Heartbeat CPU 0 instructions: 340000002 cycles: 111713617 heartbeat IPC: 2.151 cumulative IPC: 2.269 (Simulation time: 00 hr 27 min 09 sec)
Heartbeat CPU 0 instructions: 350000002 cycles: 115511787 heartbeat IPC: 2.633 cumulative IPC: 2.29 (Simulation time: 00 hr 28 min 08 sec)
Heartbeat CPU 0 instructions: 360000002 cycles: 119056584 heartbeat IPC: 2.821 cumulative IPC: 2.317 (Simulation time: 00 hr 29 min 06 sec)
Heartbeat CPU 0 instructions: 370000000 cycles: 122636091 heartbeat IPC: 2.794 cumulative IPC: 2.34 (Simulation time: 00 hr 30 min 05 sec)
Heartbeat CPU 0 instructions: 380000004 cycles: 126192267 heartbeat IPC: 2.812 cumulative IPC: 2.362 (Simulation time: 00 hr 31 min 04 sec)
Heartbeat CPU 0 instructions: 390000000 cycles: 129760005 heartbeat IPC: 2.803 cumulative IPC: 2.382 (Simulation time: 00 hr 32 min 03 sec)
Heartbeat CPU 0 instructions: 400000004 cycles: 133308963 heartbeat IPC: 2.818 cumulative IPC: 2.401 (Simulation time: 00 hr 33 min 02 sec)
Heartbeat CPU 0 instructions: 410000002 cycles: 136868025 heartbeat IPC: 2.81 cumulative IPC: 2.417 (Simulation time: 00 hr 34 min 00 sec)
Heartbeat CPU 0 instructions: 420000004 cycles: 140449100 heartbeat IPC: 2.792 cumulative IPC: 2.432 (Simulation time: 00 hr 34 min 59 sec)
Heartbeat CPU 0 instructions: 430000000 cycles: 144019393 heartbeat IPC: 2.801 cumulative IPC: 2.446 (Simulation time: 00 hr 35 min 58 sec)
Heartbeat CPU 0 instructions: 440000001 cycles: 147595883 heartbeat IPC: 2.796 cumulative IPC: 2.459 (Simulation time: 00 hr 36 min 57 sec)
Heartbeat CPU 0 instructions: 450000003 cycles: 151180122 heartbeat IPC: 2.79 cumulative IPC: 2.471 (Simulation time: 00 hr 37 min 56 sec)
Heartbeat CPU 0 instructions: 460000003 cycles: 154775359 heartbeat IPC: 2.781 cumulative IPC: 2.482 (Simulation time: 00 hr 38 min 55 sec)
Heartbeat CPU 0 instructions: 470000002 cycles: 158345272 heartbeat IPC: 2.801 cumulative IPC: 2.492 (Simulation time: 00 hr 39 min 54 sec)
Heartbeat CPU 0 instructions: 480000001 cycles: 161903563 heartbeat IPC: 2.81 cumulative IPC: 2.502 (Simulation time: 00 hr 40 min 53 sec)
Heartbeat CPU 0 instructions: 490000002 cycles: 165463689 heartbeat IPC: 2.809 cumulative IPC: 2.512 (Simulation time: 00 hr 41 min 52 sec)
Heartbeat CPU 0 instructions: 500000002 cycles: 169035841 heartbeat IPC: 2.799 cumulative IPC: 2.52 (Simulation time: 00 hr 42 min 50 sec)
Heartbeat CPU 0 instructions: 510000003 cycles: 172607118 heartbeat IPC: 2.8 cumulative IPC: 2.528 (Simulation time: 00 hr 43 min 49 sec)
Heartbeat CPU 0 instructions: 520000004 cycles: 176203370 heartbeat IPC: 2.781 cumulative IPC: 2.536 (Simulation time: 00 hr 44 min 48 sec)
Heartbeat CPU 0 instructions: 530000002 cycles: 179774850 heartbeat IPC: 2.8 cumulative IPC: 2.543 (Simulation time: 00 hr 45 min 46 sec)
Heartbeat CPU 0 instructions: 540000002 cycles: 183355461 heartbeat IPC: 2.793 cumulative IPC: 2.55 (Simulation time: 00 hr 46 min 45 sec)
Heartbeat CPU 0 instructions: 550000001 cycles: 186939610 heartbeat IPC: 2.79 cumulative IPC: 2.556 (Simulation time: 00 hr 47 min 44 sec)
Heartbeat CPU 0 instructions: 560000002 cycles: 190536900 heartbeat IPC: 2.78 cumulative IPC: 2.562 (Simulation time: 00 hr 48 min 43 sec)
Heartbeat CPU 0 instructions: 570000001 cycles: 194117965 heartbeat IPC: 2.792 cumulative IPC: 2.567 (Simulation time: 00 hr 49 min 42 sec)
Heartbeat CPU 0 instructions: 580000004 cycles: 197692781 heartbeat IPC: 2.797 cumulative IPC: 2.573 (Simulation time: 00 hr 50 min 41 sec)
Heartbeat CPU 0 instructions: 590000000 cycles: 201281614 heartbeat IPC: 2.786 cumulative IPC: 2.578 (Simulation time: 00 hr 51 min 40 sec)
Heartbeat CPU 0 instructions: 600000002 cycles: 204866538 heartbeat IPC: 2.789 cumulative IPC: 2.583 (Simulation time: 00 hr 52 min 38 sec)
Heartbeat CPU 0 instructions: 610000000 cycles: 208454249 heartbeat IPC: 2.787 cumulative IPC: 2.587 (Simulation time: 00 hr 53 min 37 sec)
Heartbeat CPU 0 instructions: 620000002 cycles: 211999250 heartbeat IPC: 2.821 cumulative IPC: 2.593 (Simulation time: 00 hr 54 min 36 sec)
Heartbeat CPU 0 instructions: 630000002 cycles: 215564952 heartbeat IPC: 2.804 cumulative IPC: 2.597 (Simulation time: 00 hr 55 min 35 sec)
Heartbeat CPU 0 instructions: 640000004 cycles: 219124867 heartbeat IPC: 2.809 cumulative IPC: 2.602 (Simulation time: 00 hr 56 min 33 sec)
Heartbeat CPU 0 instructions: 650000002 cycles: 222711411 heartbeat IPC: 2.788 cumulative IPC: 2.606 (Simulation time: 00 hr 57 min 32 sec)
Heartbeat CPU 0 instructions: 660000000 cycles: 226273423 heartbeat IPC: 2.807 cumulative IPC: 2.61 (Simulation time: 00 hr 58 min 31 sec)
Heartbeat CPU 0 instructions: 670000003 cycles: 229875301 heartbeat IPC: 2.776 cumulative IPC: 2.613 (Simulation time: 00 hr 59 min 30 sec)
Heartbeat CPU 0 instructions: 680000002 cycles: 233458252 heartbeat IPC: 2.791 cumulative IPC: 2.616 (Simulation time: 01 hr 00 min 29 sec)
Heartbeat CPU 0 instructions: 690000002 cycles: 237026785 heartbeat IPC: 2.802 cumulative IPC: 2.62 (Simulation time: 01 hr 01 min 28 sec)
Heartbeat CPU 0 instructions: 700000004 cycles: 240619224 heartbeat IPC: 2.784 cumulative IPC: 2.623 (Simulation time: 01 hr 02 min 27 sec)
Heartbeat CPU 0 instructions: 710000001 cycles: 244333120 heartbeat IPC: 2.693 cumulative IPC: 2.624 (Simulation time: 01 hr 03 min 27 sec)
Heartbeat CPU 0 instructions: 720000002 cycles: 247961373 heartbeat IPC: 2.756 cumulative IPC: 2.627 (Simulation time: 01 hr 04 min 26 sec)
Heartbeat CPU 0 instructions: 730000000 cycles: 251551629 heartbeat IPC: 2.785 cumulative IPC: 2.63 (Simulation time: 01 hr 05 min 25 sec)
Heartbeat CPU 0 instructions: 740000001 cycles: 255123366 heartbeat IPC: 2.8 cumulative IPC: 2.633 (Simulation time: 01 hr 06 min 24 sec)
Heartbeat CPU 0 instructions: 750000002 cycles: 258709710 heartbeat IPC: 2.788 cumulative IPC: 2.635 (Simulation time: 01 hr 07 min 23 sec)
Heartbeat CPU 0 instructions: 760000002 cycles: 262284947 heartbeat IPC: 2.797 cumulative IPC: 2.638 (Simulation time: 01 hr 08 min 22 sec)
Heartbeat CPU 0 instructions: 770000004 cycles: 265862467 heartbeat IPC: 2.795 cumulative IPC: 2.641 (Simulation time: 01 hr 09 min 21 sec)
Heartbeat CPU 0 instructions: 780000002 cycles: 269420376 heartbeat IPC: 2.811 cumulative IPC: 2.643 (Simulation time: 01 hr 10 min 20 sec)
Heartbeat CPU 0 instructions: 790000000 cycles: 272973654 heartbeat IPC: 2.814 cumulative IPC: 2.646 (Simulation time: 01 hr 11 min 18 sec)
Heartbeat CPU 0 instructions: 800000000 cycles: 276547732 heartbeat IPC: 2.798 cumulative IPC: 2.648 (Simulation time: 01 hr 12 min 17 sec)
Heartbeat CPU 0 instructions: 810000003 cycles: 280117664 heartbeat IPC: 2.801 cumulative IPC: 2.651 (Simulation time: 01 hr 13 min 16 sec)
Heartbeat CPU 0 instructions: 820000000 cycles: 283689279 heartbeat IPC: 2.8 cumulative IPC: 2.653 (Simulation time: 01 hr 14 min 15 sec)
Heartbeat CPU 0 instructions: 830000001 cycles: 287255476 heartbeat IPC: 2.804 cumulative IPC: 2.655 (Simulation time: 01 hr 15 min 14 sec)
Heartbeat CPU 0 instructions: 840000000 cycles: 290785562 heartbeat IPC: 2.833 cumulative IPC: 2.658 (Simulation time: 01 hr 16 min 12 sec)
Heartbeat CPU 0 instructions: 850000002 cycles: 294325918 heartbeat IPC: 2.825 cumulative IPC: 2.66 (Simulation time: 01 hr 17 min 11 sec)
Heartbeat CPU 0 instructions: 860000004 cycles: 297888871 heartbeat IPC: 2.807 cumulative IPC: 2.662 (Simulation time: 01 hr 18 min 10 sec)
Heartbeat CPU 0 instructions: 870000002 cycles: 301450571 heartbeat IPC: 2.808 cumulative IPC: 2.665 (Simulation time: 01 hr 19 min 09 sec)
Heartbeat CPU 0 instructions: 880000000 cycles: 305017346 heartbeat IPC: 2.804 cumulative IPC: 2.666 (Simulation time: 01 hr 20 min 08 sec)
Heartbeat CPU 0 instructions: 890000003 cycles: 308577008 heartbeat IPC: 2.809 cumulative IPC: 2.668 (Simulation time: 01 hr 21 min 07 sec)
Heartbeat CPU 0 instructions: 900000000 cycles: 312137843 heartbeat IPC: 2.808 cumulative IPC: 2.67 (Simulation time: 01 hr 22 min 05 sec)
Heartbeat CPU 0 instructions: 910000000 cycles: 315725547 heartbeat IPC: 2.787 cumulative IPC: 2.672 (Simulation time: 01 hr 23 min 04 sec)
Heartbeat CPU 0 instructions: 920000004 cycles: 319367304 heartbeat IPC: 2.746 cumulative IPC: 2.673 (Simulation time: 01 hr 24 min 03 sec)
Heartbeat CPU 0 instructions: 930000002 cycles: 322982698 heartbeat IPC: 2.766 cumulative IPC: 2.674 (Simulation time: 01 hr 25 min 02 sec)
Heartbeat CPU 0 instructions: 940000000 cycles: 326585391 heartbeat IPC: 2.776 cumulative IPC: 2.675 (Simulation time: 01 hr 26 min 01 sec)
Heartbeat CPU 0 instructions: 950000000 cycles: 330158542 heartbeat IPC: 2.799 cumulative IPC: 2.677 (Simulation time: 01 hr 27 min 01 sec)
Heartbeat CPU 0 instructions: 960000002 cycles: 333765487 heartbeat IPC: 2.772 cumulative IPC: 2.678 (Simulation time: 01 hr 28 min 00 sec)
Heartbeat CPU 0 instructions: 970000002 cycles: 337370628 heartbeat IPC: 2.774 cumulative IPC: 2.679 (Simulation time: 01 hr 29 min 00 sec)
Heartbeat CPU 0 instructions: 980000001 cycles: 340978400 heartbeat IPC: 2.772 cumulative IPC: 2.681 (Simulation time: 01 hr 30 min 00 sec)
Heartbeat CPU 0 instructions: 990000003 cycles: 344586171 heartbeat IPC: 2.772 cumulative IPC: 2.682 (Simulation time: 01 hr 31 min 00 sec)
Heartbeat CPU 0 instructions: 1000000004 cycles: 348201731 heartbeat IPC: 2.766 cumulative IPC: 2.683 (Simulation time: 01 hr 31 min 59 sec)
Heartbeat CPU 0 instructions: 1010000001 cycles: 351837460 heartbeat IPC: 2.75 cumulative IPC: 2.684 (Simulation time: 01 hr 32 min 59 sec)
Heartbeat CPU 0 instructions: 1020000003 cycles: 355464201 heartbeat IPC: 2.757 cumulative IPC: 2.684 (Simulation time: 01 hr 33 min 59 sec)
Heartbeat CPU 0 instructions: 1030000001 cycles: 359086655 heartbeat IPC: 2.761 cumulative IPC: 2.685 (Simulation time: 01 hr 34 min 58 sec)
Heartbeat CPU 0 instructions: 1040000001 cycles: 362721993 heartbeat IPC: 2.751 cumulative IPC: 2.686 (Simulation time: 01 hr 35 min 58 sec)
Heartbeat CPU 0 instructions: 1050000001 cycles: 366397582 heartbeat IPC: 2.721 cumulative IPC: 2.686 (Simulation time: 01 hr 36 min 57 sec)
Heartbeat CPU 0 instructions: 1060000001 cycles: 370059941 heartbeat IPC: 2.73 cumulative IPC: 2.687 (Simulation time: 01 hr 37 min 57 sec)
Heartbeat CPU 0 instructions: 1070000001 cycles: 373722636 heartbeat IPC: 2.73 cumulative IPC: 2.687 (Simulation time: 01 hr 38 min 57 sec)
Heartbeat CPU 0 instructions: 1080000003 cycles: 377392681 heartbeat IPC: 2.725 cumulative IPC: 2.688 (Simulation time: 01 hr 39 min 57 sec)
Heartbeat CPU 0 instructions: 1090000001 cycles: 381088400 heartbeat IPC: 2.706 cumulative IPC: 2.688 (Simulation time: 01 hr 40 min 57 sec)
Heartbeat CPU 0 instructions: 1100000003 cycles: 384785513 heartbeat IPC: 2.705 cumulative IPC: 2.688 (Simulation time: 01 hr 41 min 57 sec)
Heartbeat CPU 0 instructions: 1110000003 cycles: 388483434 heartbeat IPC: 2.704 cumulative IPC: 2.688 (Simulation time: 01 hr 42 min 57 sec)
Heartbeat CPU 0 instructions: 1120000002 cycles: 392225076 heartbeat IPC: 2.673 cumulative IPC: 2.688 (Simulation time: 01 hr 43 min 57 sec)
Heartbeat CPU 0 instructions: 1130000002 cycles: 395823339 heartbeat IPC: 2.779 cumulative IPC: 2.689 (Simulation time: 01 hr 44 min 56 sec)
Heartbeat CPU 0 instructions: 1140000000 cycles: 399418608 heartbeat IPC: 2.781 cumulative IPC: 2.69 (Simulation time: 01 hr 45 min 55 sec)
Heartbeat CPU 0 instructions: 1150000000 cycles: 403006896 heartbeat IPC: 2.787 cumulative IPC: 2.691 (Simulation time: 01 hr 46 min 54 sec)
Heartbeat CPU 0 instructions: 1160000000 cycles: 406582522 heartbeat IPC: 2.797 cumulative IPC: 2.692 (Simulation time: 01 hr 47 min 52 sec)
Heartbeat CPU 0 instructions: 1170000000 cycles: 410277754 heartbeat IPC: 2.706 cumulative IPC: 2.692 (Simulation time: 01 hr 48 min 52 sec)
Heartbeat CPU 0 instructions: 1180000004 cycles: 414051102 heartbeat IPC: 2.65 cumulative IPC: 2.692 (Simulation time: 01 hr 49 min 53 sec)
Heartbeat CPU 0 instructions: 1190000001 cycles: 417687491 heartbeat IPC: 2.75 cumulative IPC: 2.693 (Simulation time: 01 hr 50 min 53 sec)
Heartbeat CPU 0 instructions: 1200000001 cycles: 421314512 heartbeat IPC: 2.757 cumulative IPC: 2.693 (Simulation time: 01 hr 51 min 52 sec)
Simulation finished CPU 0 instructions: 1000000000 cycles: 371314454 cumulative IPC: 2.693 (Simulation time: 01 hr 51 min 52 sec)
Simulation complete CPU 0 instructions: 1000000000 cycles: 371314454 cumulative IPC: 2.693 (Simulation time: 01 hr 51 min 52 sec)

ChampSim completed all CPUs

=== Simulation ===
CPU 0 runs /home/faculty/p/pgratz/dpc3_traces/644.nab_s-5853B.champsimtrace.xz
Region of Interest Statistics

CPU 0 cumulative IPC: 2.693 instructions: 1000000000 cycles: 371314454
CPU 0 Branch Prediction Accuracy: 88.21% MPKI: 11.41 Average ROB Occupancy at Mispredict: 204.4
Branch type MPKI
BRANCH_DIRECT_JUMP: 0.000119
BRANCH_INDIRECT: 0
BRANCH_CONDITIONAL: 5.88
BRANCH_DIRECT_CALL: 1e-06
BRANCH_INDIRECT_CALL: 0
BRANCH_RETURN: 5.53

LLC TOTAL        ACCESS:     211423 HIT:      12515 MISS:     198908
LLC LOAD         ACCESS:     200339 HIT:       5797 MISS:     194542
LLC RFO          ACCESS:        536 HIT:        525 MISS:         11
LLC PREFETCH     ACCESS:          0 HIT:          0 MISS:          0
LLC WRITE        ACCESS:       7363 HIT:       5445 MISS:       1918
LLC TRANSLATION  ACCESS:       3185 HIT:        748 MISS:       2437
LLC PREFETCH REQUESTED:          0 ISSUED:          0 USEFUL:          0 USELESS:          0
LLC AVERAGE MISS LATENCY: 83.55 cycles
cpu0_DTLB TOTAL        ACCESS:  177489359 HIT:  175458399 MISS:    2030960
cpu0_DTLB LOAD         ACCESS:  177489359 HIT:  175458399 MISS:    2030960
cpu0_DTLB RFO          ACCESS:          0 HIT:          0 MISS:          0
cpu0_DTLB PREFETCH     ACCESS:          0 HIT:          0 MISS:          0
cpu0_DTLB WRITE        ACCESS:          0 HIT:          0 MISS:          0
cpu0_DTLB TRANSLATION  ACCESS:          0 HIT:          0 MISS:          0
cpu0_DTLB PREFETCH REQUESTED:          0 ISSUED:          0 USEFUL:          0 USELESS:          0
cpu0_DTLB AVERAGE MISS LATENCY: 8.507 cycles
cpu0_ITLB TOTAL        ACCESS:       9417 HIT:       9417 MISS:          0
cpu0_ITLB LOAD         ACCESS:       9417 HIT:       9417 MISS:          0
cpu0_ITLB RFO          ACCESS:          0 HIT:          0 MISS:          0
cpu0_ITLB PREFETCH     ACCESS:          0 HIT:          0 MISS:          0
cpu0_ITLB WRITE        ACCESS:          0 HIT:          0 MISS:          0
cpu0_ITLB TRANSLATION  ACCESS:          0 HIT:          0 MISS:          0
cpu0_ITLB PREFETCH REQUESTED:          0 ISSUED:          0 USEFUL:          0 USELESS:          0
cpu0_ITLB AVERAGE MISS LATENCY: -nan cycles
cpu0_L1D TOTAL        ACCESS:  235092041 HIT:  231117932 MISS:    3974109
cpu0_L1D LOAD         ACCESS:  127683459 HIT:  123769410 MISS:    3914049
cpu0_L1D RFO          ACCESS:          0 HIT:          0 MISS:          0
cpu0_L1D PREFETCH     ACCESS:          0 HIT:          0 MISS:          0
cpu0_L1D WRITE        ACCESS:  107400579 HIT:  107348262 MISS:      52317
cpu0_L1D TRANSLATION  ACCESS:       8003 HIT:        260 MISS:       7743
cpu0_L1D PREFETCH REQUESTED:          0 ISSUED:          0 USEFUL:          0 USELESS:          0
cpu0_L1D AVERAGE MISS LATENCY: 15.18 cycles
cpu0_L1I TOTAL        ACCESS:      11347 HIT:      11345 MISS:          2
cpu0_L1I LOAD         ACCESS:      11347 HIT:      11345 MISS:          2
cpu0_L1I RFO          ACCESS:          0 HIT:          0 MISS:          0
cpu0_L1I PREFETCH     ACCESS:          0 HIT:          0 MISS:          0
cpu0_L1I WRITE        ACCESS:          0 HIT:          0 MISS:          0
cpu0_L1I TRANSLATION  ACCESS:          0 HIT:          0 MISS:          0
cpu0_L1I PREFETCH REQUESTED:          0 ISSUED:          0 USEFUL:          0 USELESS:          0
cpu0_L1I AVERAGE MISS LATENCY: 197 cycles
cpu0_L2C TOTAL        ACCESS:    5278106 HIT:    5074042 MISS:     204064
cpu0_L2C LOAD         ACCESS:    3908678 HIT:    3708339 MISS:     200339
cpu0_L2C RFO          ACCESS:      13741 HIT:      13205 MISS:        536
cpu0_L2C PREFETCH     ACCESS:          0 HIT:          0 MISS:          0
cpu0_L2C WRITE        ACCESS:    1347944 HIT:    1347940 MISS:          4
cpu0_L2C TRANSLATION  ACCESS:       7743 HIT:       4558 MISS:       3185
cpu0_L2C PREFETCH REQUESTED:          0 ISSUED:          0 USEFUL:          0 USELESS:          0
cpu0_L2C AVERAGE MISS LATENCY: 102.4 cycles
cpu0_STLB TOTAL        ACCESS:    1929011 HIT:    1921223 MISS:       7788
cpu0_STLB LOAD         ACCESS:    1929011 HIT:    1921223 MISS:       7788
cpu0_STLB RFO          ACCESS:          0 HIT:          0 MISS:          0
cpu0_STLB PREFETCH     ACCESS:          0 HIT:          0 MISS:          0
cpu0_STLB WRITE        ACCESS:          0 HIT:          0 MISS:          0
cpu0_STLB TRANSLATION  ACCESS:          0 HIT:          0 MISS:          0
cpu0_STLB PREFETCH REQUESTED:          0 ISSUED:          0 USEFUL:          0 USELESS:          0
cpu0_STLB AVERAGE MISS LATENCY: 283.3 cycles

DRAM Statistics

Channel 0 RQ ROW_BUFFER_HIT:     158121
  ROW_BUFFER_MISS:      38869
 AVG DBUS CONGESTED CYCLE: 3.586
WQ ROW_BUFFER_HIT: Channel 0 
  ROW_BUFFER_MISS:        101
  FULL:       4642
