WARNING: physical memory size is smaller than virtual memory size.
WARNING: option --warmup_instructions is deprecated. Use --warmup-instructions instead.
WARNING: option --simulation_instructions is deprecated. Use --simulation-instructions instead.

*** ChampSim Multicore Out-of-Order Simulator ***
Warmup Instructions: 200000000
Simulation Instructions: 1000000000
Number of CPUs: 1
Page size: 4096

Off-chip DRAM Size: 4 GiB Channels: 1 Width: 64-bit Data Race: 3200 MT/s
Heartbeat CPU 0 instructions: 10000003 cycles: 2500045 heartbeat IPC: 4 cumulative IPC: 4 (Simulation time: 00 hr 00 min 39 sec)
Heartbeat CPU 0 instructions: 20000003 cycles: 5000045 heartbeat IPC: 4 cumulative IPC: 4 (Simulation time: 00 hr 01 min 19 sec)
Heartbeat CPU 0 instructions: 30000003 cycles: 7500045 heartbeat IPC: 4 cumulative IPC: 4 (Simulation time: 00 hr 01 min 58 sec)
Heartbeat CPU 0 instructions: 40000003 cycles: 10000045 heartbeat IPC: 4 cumulative IPC: 4 (Simulation time: 00 hr 02 min 38 sec)
Heartbeat CPU 0 instructions: 50000003 cycles: 12500045 heartbeat IPC: 4 cumulative IPC: 4 (Simulation time: 00 hr 03 min 17 sec)
Heartbeat CPU 0 instructions: 60000003 cycles: 15000045 heartbeat IPC: 4 cumulative IPC: 4 (Simulation time: 00 hr 03 min 57 sec)
Heartbeat CPU 0 instructions: 70000003 cycles: 17500045 heartbeat IPC: 4 cumulative IPC: 4 (Simulation time: 00 hr 04 min 36 sec)
Heartbeat CPU 0 instructions: 80000003 cycles: 20000045 heartbeat IPC: 4 cumulative IPC: 4 (Simulation time: 00 hr 05 min 15 sec)
Heartbeat CPU 0 instructions: 90000003 cycles: 22500045 heartbeat IPC: 4 cumulative IPC: 4 (Simulation time: 00 hr 05 min 55 sec)
Heartbeat CPU 0 instructions: 100000003 cycles: 25000045 heartbeat IPC: 4 cumulative IPC: 4 (Simulation time: 00 hr 06 min 34 sec)
Heartbeat CPU 0 instructions: 110000003 cycles: 27500045 heartbeat IPC: 4 cumulative IPC: 4 (Simulation time: 00 hr 07 min 13 sec)
Heartbeat CPU 0 instructions: 120000003 cycles: 30000045 heartbeat IPC: 4 cumulative IPC: 4 (Simulation time: 00 hr 07 min 53 sec)
Heartbeat CPU 0 instructions: 130000003 cycles: 32500045 heartbeat IPC: 4 cumulative IPC: 4 (Simulation time: 00 hr 08 min 32 sec)
Heartbeat CPU 0 instructions: 140000003 cycles: 35000045 heartbeat IPC: 4 cumulative IPC: 4 (Simulation time: 00 hr 09 min 11 sec)
Heartbeat CPU 0 instructions: 150000003 cycles: 37500045 heartbeat IPC: 4 cumulative IPC: 4 (Simulation time: 00 hr 09 min 51 sec)
Heartbeat CPU 0 instructions: 160000003 cycles: 40000045 heartbeat IPC: 4 cumulative IPC: 4 (Simulation time: 00 hr 10 min 30 sec)
Heartbeat CPU 0 instructions: 170000003 cycles: 42500045 heartbeat IPC: 4 cumulative IPC: 4 (Simulation time: 00 hr 11 min 10 sec)
Heartbeat CPU 0 instructions: 180000003 cycles: 45000045 heartbeat IPC: 4 cumulative IPC: 4 (Simulation time: 00 hr 11 min 49 sec)
Heartbeat CPU 0 instructions: 190000003 cycles: 47500045 heartbeat IPC: 4 cumulative IPC: 4 (Simulation time: 00 hr 12 min 28 sec)
Heartbeat CPU 0 instructions: 200000003 cycles: 50000045 heartbeat IPC: 4 cumulative IPC: 4 (Simulation time: 00 hr 13 min 08 sec)
Warmup finished CPU 0 instructions: 200000003 cycles: 50000046 cumulative IPC: 4 (Simulation time: 00 hr 13 min 08 sec)
Warmup complete CPU 0 instructions: 200000003 cycles: 50000046 cumulative IPC: 4 (Simulation time: 00 hr 13 min 08 sec)
Heartbeat CPU 0 instructions: 210000003 cycles: 58301252 heartbeat IPC: 1.205 cumulative IPC: 1.205 (Simulation time: 00 hr 14 min 52 sec)
Heartbeat CPU 0 instructions: 220000001 cycles: 66555711 heartbeat IPC: 1.211 cumulative IPC: 1.208 (Simulation time: 00 hr 16 min 36 sec)
Heartbeat CPU 0 instructions: 230000000 cycles: 74839231 heartbeat IPC: 1.207 cumulative IPC: 1.208 (Simulation time: 00 hr 18 min 20 sec)
Heartbeat CPU 0 instructions: 240000004 cycles: 83121422 heartbeat IPC: 1.207 cumulative IPC: 1.208 (Simulation time: 00 hr 20 min 03 sec)
Heartbeat CPU 0 instructions: 250000000 cycles: 91409725 heartbeat IPC: 1.207 cumulative IPC: 1.207 (Simulation time: 00 hr 21 min 46 sec)
Heartbeat CPU 0 instructions: 260000002 cycles: 99677054 heartbeat IPC: 1.21 cumulative IPC: 1.208 (Simulation time: 00 hr 23 min 29 sec)
Heartbeat CPU 0 instructions: 270000003 cycles: 107392566 heartbeat IPC: 1.296 cumulative IPC: 1.22 (Simulation time: 00 hr 25 min 06 sec)
Heartbeat CPU 0 instructions: 280000002 cycles: 114821049 heartbeat IPC: 1.346 cumulative IPC: 1.234 (Simulation time: 00 hr 26 min 39 sec)
Heartbeat CPU 0 instructions: 290000004 cycles: 123088463 heartbeat IPC: 1.21 cumulative IPC: 1.231 (Simulation time: 00 hr 28 min 22 sec)
Heartbeat CPU 0 instructions: 300000003 cycles: 131368898 heartbeat IPC: 1.208 cumulative IPC: 1.229 (Simulation time: 00 hr 30 min 05 sec)
Heartbeat CPU 0 instructions: 310000002 cycles: 139639363 heartbeat IPC: 1.209 cumulative IPC: 1.227 (Simulation time: 00 hr 31 min 48 sec)
Heartbeat CPU 0 instructions: 320000000 cycles: 147912737 heartbeat IPC: 1.209 cumulative IPC: 1.226 (Simulation time: 00 hr 33 min 32 sec)
Heartbeat CPU 0 instructions: 330000002 cycles: 156173151 heartbeat IPC: 1.211 cumulative IPC: 1.224 (Simulation time: 00 hr 35 min 14 sec)
Heartbeat CPU 0 instructions: 340000004 cycles: 164452760 heartbeat IPC: 1.208 cumulative IPC: 1.223 (Simulation time: 00 hr 36 min 57 sec)
Heartbeat CPU 0 instructions: 350000002 cycles: 172726018 heartbeat IPC: 1.209 cumulative IPC: 1.222 (Simulation time: 00 hr 38 min 40 sec)
Heartbeat CPU 0 instructions: 360000001 cycles: 180986969 heartbeat IPC: 1.211 cumulative IPC: 1.221 (Simulation time: 00 hr 40 min 23 sec)
Heartbeat CPU 0 instructions: 370000002 cycles: 189266301 heartbeat IPC: 1.208 cumulative IPC: 1.221 (Simulation time: 00 hr 42 min 07 sec)
Heartbeat CPU 0 instructions: 380000001 cycles: 197526608 heartbeat IPC: 1.211 cumulative IPC: 1.22 (Simulation time: 00 hr 43 min 50 sec)
Heartbeat CPU 0 instructions: 390000001 cycles: 205804057 heartbeat IPC: 1.208 cumulative IPC: 1.219 (Simulation time: 00 hr 45 min 34 sec)
Heartbeat CPU 0 instructions: 400000002 cycles: 214078408 heartbeat IPC: 1.209 cumulative IPC: 1.219 (Simulation time: 00 hr 47 min 17 sec)
Heartbeat CPU 0 instructions: 410000001 cycles: 222372157 heartbeat IPC: 1.206 cumulative IPC: 1.218 (Simulation time: 00 hr 49 min 01 sec)
Heartbeat CPU 0 instructions: 420000001 cycles: 230645479 heartbeat IPC: 1.209 cumulative IPC: 1.218 (Simulation time: 00 hr 50 min 44 sec)
Heartbeat CPU 0 instructions: 430000001 cycles: 238934181 heartbeat IPC: 1.206 cumulative IPC: 1.217 (Simulation time: 00 hr 52 min 27 sec)
Heartbeat CPU 0 instructions: 440000000 cycles: 247197040 heartbeat IPC: 1.21 cumulative IPC: 1.217 (Simulation time: 00 hr 54 min 10 sec)
Heartbeat CPU 0 instructions: 450000001 cycles: 255476199 heartbeat IPC: 1.208 cumulative IPC: 1.217 (Simulation time: 00 hr 55 min 54 sec)
Heartbeat CPU 0 instructions: 460000004 cycles: 263745590 heartbeat IPC: 1.209 cumulative IPC: 1.216 (Simulation time: 00 hr 57 min 38 sec)
Heartbeat CPU 0 instructions: 470000004 cycles: 272009009 heartbeat IPC: 1.21 cumulative IPC: 1.216 (Simulation time: 00 hr 59 min 22 sec)
Heartbeat CPU 0 instructions: 480000001 cycles: 280299535 heartbeat IPC: 1.206 cumulative IPC: 1.216 (Simulation time: 01 hr 01 min 05 sec)
Heartbeat CPU 0 instructions: 490000001 cycles: 288573556 heartbeat IPC: 1.209 cumulative IPC: 1.216 (Simulation time: 01 hr 02 min 49 sec)
Heartbeat CPU 0 instructions: 500000002 cycles: 296858447 heartbeat IPC: 1.207 cumulative IPC: 1.215 (Simulation time: 01 hr 04 min 32 sec)
Heartbeat CPU 0 instructions: 510000002 cycles: 305128494 heartbeat IPC: 1.209 cumulative IPC: 1.215 (Simulation time: 01 hr 06 min 16 sec)
Heartbeat CPU 0 instructions: 520000001 cycles: 313414978 heartbeat IPC: 1.207 cumulative IPC: 1.215 (Simulation time: 01 hr 08 min 00 sec)
Heartbeat CPU 0 instructions: 530000000 cycles: 321681866 heartbeat IPC: 1.21 cumulative IPC: 1.215 (Simulation time: 01 hr 09 min 43 sec)
Heartbeat CPU 0 instructions: 540000002 cycles: 329959741 heartbeat IPC: 1.208 cumulative IPC: 1.214 (Simulation time: 01 hr 11 min 27 sec)
Heartbeat CPU 0 instructions: 550000003 cycles: 338236282 heartbeat IPC: 1.208 cumulative IPC: 1.214 (Simulation time: 01 hr 13 min 10 sec)
Heartbeat CPU 0 instructions: 560000004 cycles: 346507679 heartbeat IPC: 1.209 cumulative IPC: 1.214 (Simulation time: 01 hr 14 min 54 sec)
Heartbeat CPU 0 instructions: 570000001 cycles: 354792782 heartbeat IPC: 1.207 cumulative IPC: 1.214 (Simulation time: 01 hr 16 min 37 sec)
Heartbeat CPU 0 instructions: 580000002 cycles: 363059222 heartbeat IPC: 1.21 cumulative IPC: 1.214 (Simulation time: 01 hr 18 min 20 sec)
Heartbeat CPU 0 instructions: 590000004 cycles: 371336917 heartbeat IPC: 1.208 cumulative IPC: 1.214 (Simulation time: 01 hr 20 min 04 sec)
Heartbeat CPU 0 instructions: 600000000 cycles: 379606490 heartbeat IPC: 1.209 cumulative IPC: 1.214 (Simulation time: 01 hr 21 min 48 sec)
Heartbeat CPU 0 instructions: 610000004 cycles: 387894486 heartbeat IPC: 1.207 cumulative IPC: 1.213 (Simulation time: 01 hr 23 min 31 sec)
Heartbeat CPU 0 instructions: 620000004 cycles: 396164559 heartbeat IPC: 1.209 cumulative IPC: 1.213 (Simulation time: 01 hr 25 min 14 sec)
Heartbeat CPU 0 instructions: 630000002 cycles: 404448849 heartbeat IPC: 1.207 cumulative IPC: 1.213 (Simulation time: 01 hr 26 min 58 sec)
Heartbeat CPU 0 instructions: 640000002 cycles: 412718459 heartbeat IPC: 1.209 cumulative IPC: 1.213 (Simulation time: 01 hr 28 min 41 sec)
Heartbeat CPU 0 instructions: 650000002 cycles: 420996190 heartbeat IPC: 1.208 cumulative IPC: 1.213 (Simulation time: 01 hr 30 min 25 sec)
Heartbeat CPU 0 instructions: 660000001 cycles: 429270365 heartbeat IPC: 1.209 cumulative IPC: 1.213 (Simulation time: 01 hr 32 min 09 sec)
Heartbeat CPU 0 instructions: 670000001 cycles: 437548915 heartbeat IPC: 1.208 cumulative IPC: 1.213 (Simulation time: 01 hr 33 min 53 sec)
Heartbeat CPU 0 instructions: 680000000 cycles: 445815809 heartbeat IPC: 1.21 cumulative IPC: 1.213 (Simulation time: 01 hr 35 min 37 sec)
Heartbeat CPU 0 instructions: 690000000 cycles: 454096606 heartbeat IPC: 1.208 cumulative IPC: 1.213 (Simulation time: 01 hr 37 min 21 sec)
Heartbeat CPU 0 instructions: 700000002 cycles: 462373298 heartbeat IPC: 1.208 cumulative IPC: 1.212 (Simulation time: 01 hr 39 min 05 sec)
Heartbeat CPU 0 instructions: 710000003 cycles: 470646983 heartbeat IPC: 1.209 cumulative IPC: 1.212 (Simulation time: 01 hr 40 min 49 sec)
Heartbeat CPU 0 instructions: 720000004 cycles: 478926313 heartbeat IPC: 1.208 cumulative IPC: 1.212 (Simulation time: 01 hr 42 min 33 sec)
Heartbeat CPU 0 instructions: 730000001 cycles: 487188814 heartbeat IPC: 1.21 cumulative IPC: 1.212 (Simulation time: 01 hr 44 min 17 sec)
Heartbeat CPU 0 instructions: 740000004 cycles: 495455785 heartbeat IPC: 1.21 cumulative IPC: 1.212 (Simulation time: 01 hr 46 min 01 sec)
Heartbeat CPU 0 instructions: 750000004 cycles: 503732497 heartbeat IPC: 1.208 cumulative IPC: 1.212 (Simulation time: 01 hr 47 min 46 sec)
Heartbeat CPU 0 instructions: 760000003 cycles: 512018706 heartbeat IPC: 1.207 cumulative IPC: 1.212 (Simulation time: 01 hr 49 min 30 sec)
Heartbeat CPU 0 instructions: 770000004 cycles: 520281690 heartbeat IPC: 1.21 cumulative IPC: 1.212 (Simulation time: 01 hr 51 min 14 sec)
Heartbeat CPU 0 instructions: 780000001 cycles: 528577773 heartbeat IPC: 1.205 cumulative IPC: 1.212 (Simulation time: 01 hr 52 min 58 sec)
Heartbeat CPU 0 instructions: 790000002 cycles: 536841119 heartbeat IPC: 1.21 cumulative IPC: 1.212 (Simulation time: 01 hr 54 min 42 sec)
Heartbeat CPU 0 instructions: 800000003 cycles: 545107036 heartbeat IPC: 1.21 cumulative IPC: 1.212 (Simulation time: 01 hr 56 min 25 sec)
Heartbeat CPU 0 instructions: 810000004 cycles: 553388063 heartbeat IPC: 1.208 cumulative IPC: 1.212 (Simulation time: 01 hr 58 min 09 sec)
Heartbeat CPU 0 instructions: 820000004 cycles: 561663830 heartbeat IPC: 1.208 cumulative IPC: 1.212 (Simulation time: 01 hr 59 min 53 sec)
Heartbeat CPU 0 instructions: 830000003 cycles: 569946446 heartbeat IPC: 1.207 cumulative IPC: 1.212 (Simulation time: 02 hr 01 min 36 sec)
Heartbeat CPU 0 instructions: 840000000 cycles: 578219967 heartbeat IPC: 1.209 cumulative IPC: 1.212 (Simulation time: 02 hr 03 min 19 sec)
Heartbeat CPU 0 instructions: 850000001 cycles: 586496099 heartbeat IPC: 1.208 cumulative IPC: 1.212 (Simulation time: 02 hr 05 min 04 sec)
Heartbeat CPU 0 instructions: 860000003 cycles: 594767081 heartbeat IPC: 1.209 cumulative IPC: 1.212 (Simulation time: 02 hr 06 min 47 sec)
Heartbeat CPU 0 instructions: 870000001 cycles: 603057850 heartbeat IPC: 1.206 cumulative IPC: 1.211 (Simulation time: 02 hr 08 min 31 sec)
Heartbeat CPU 0 instructions: 880000003 cycles: 611328926 heartbeat IPC: 1.209 cumulative IPC: 1.211 (Simulation time: 02 hr 10 min 15 sec)
Heartbeat CPU 0 instructions: 890000001 cycles: 619617709 heartbeat IPC: 1.206 cumulative IPC: 1.211 (Simulation time: 02 hr 11 min 59 sec)
Heartbeat CPU 0 instructions: 900000003 cycles: 627896733 heartbeat IPC: 1.208 cumulative IPC: 1.211 (Simulation time: 02 hr 13 min 42 sec)
Heartbeat CPU 0 instructions: 910000001 cycles: 636166096 heartbeat IPC: 1.209 cumulative IPC: 1.211 (Simulation time: 02 hr 15 min 26 sec)
Heartbeat CPU 0 instructions: 920000002 cycles: 644438921 heartbeat IPC: 1.209 cumulative IPC: 1.211 (Simulation time: 02 hr 17 min 10 sec)
Heartbeat CPU 0 instructions: 930000004 cycles: 652710193 heartbeat IPC: 1.209 cumulative IPC: 1.211 (Simulation time: 02 hr 18 min 54 sec)
Heartbeat CPU 0 instructions: 940000002 cycles: 660986826 heartbeat IPC: 1.208 cumulative IPC: 1.211 (Simulation time: 02 hr 20 min 37 sec)
Heartbeat CPU 0 instructions: 950000004 cycles: 669268890 heartbeat IPC: 1.207 cumulative IPC: 1.211 (Simulation time: 02 hr 22 min 21 sec)
Heartbeat CPU 0 instructions: 960000001 cycles: 677562547 heartbeat IPC: 1.206 cumulative IPC: 1.211 (Simulation time: 02 hr 24 min 04 sec)
Heartbeat CPU 0 instructions: 970000003 cycles: 685828346 heartbeat IPC: 1.21 cumulative IPC: 1.211 (Simulation time: 02 hr 25 min 48 sec)
Heartbeat CPU 0 instructions: 980000003 cycles: 694114419 heartbeat IPC: 1.207 cumulative IPC: 1.211 (Simulation time: 02 hr 27 min 31 sec)
Heartbeat CPU 0 instructions: 990000002 cycles: 702382964 heartbeat IPC: 1.209 cumulative IPC: 1.211 (Simulation time: 02 hr 29 min 14 sec)
Heartbeat CPU 0 instructions: 1000000002 cycles: 710664733 heartbeat IPC: 1.207 cumulative IPC: 1.211 (Simulation time: 02 hr 30 min 58 sec)
Heartbeat CPU 0 instructions: 1010000002 cycles: 718944721 heartbeat IPC: 1.208 cumulative IPC: 1.211 (Simulation time: 02 hr 32 min 41 sec)
Heartbeat CPU 0 instructions: 1020000000 cycles: 727228432 heartbeat IPC: 1.207 cumulative IPC: 1.211 (Simulation time: 02 hr 34 min 24 sec)
Heartbeat CPU 0 instructions: 1030000001 cycles: 735496926 heartbeat IPC: 1.209 cumulative IPC: 1.211 (Simulation time: 02 hr 36 min 07 sec)
Heartbeat CPU 0 instructions: 1040000002 cycles: 743778247 heartbeat IPC: 1.208 cumulative IPC: 1.211 (Simulation time: 02 hr 37 min 51 sec)
Heartbeat CPU 0 instructions: 1050000004 cycles: 752054761 heartbeat IPC: 1.208 cumulative IPC: 1.211 (Simulation time: 02 hr 39 min 35 sec)
Heartbeat CPU 0 instructions: 1060000003 cycles: 760309017 heartbeat IPC: 1.211 cumulative IPC: 1.211 (Simulation time: 02 hr 41 min 18 sec)
Heartbeat CPU 0 instructions: 1070000004 cycles: 768580864 heartbeat IPC: 1.209 cumulative IPC: 1.211 (Simulation time: 02 hr 43 min 01 sec)
Heartbeat CPU 0 instructions: 1080000001 cycles: 776861725 heartbeat IPC: 1.208 cumulative IPC: 1.211 (Simulation time: 02 hr 44 min 44 sec)
Heartbeat CPU 0 instructions: 1090000004 cycles: 785147938 heartbeat IPC: 1.207 cumulative IPC: 1.211 (Simulation time: 02 hr 46 min 27 sec)
Heartbeat CPU 0 instructions: 1100000001 cycles: 793418853 heartbeat IPC: 1.209 cumulative IPC: 1.211 (Simulation time: 02 hr 48 min 10 sec)
Heartbeat CPU 0 instructions: 1110000004 cycles: 801709362 heartbeat IPC: 1.206 cumulative IPC: 1.211 (Simulation time: 02 hr 49 min 53 sec)
Heartbeat CPU 0 instructions: 1120000001 cycles: 809971830 heartbeat IPC: 1.21 cumulative IPC: 1.211 (Simulation time: 02 hr 51 min 37 sec)
Heartbeat CPU 0 instructions: 1130000000 cycles: 818242044 heartbeat IPC: 1.209 cumulative IPC: 1.211 (Simulation time: 02 hr 53 min 20 sec)
Heartbeat CPU 0 instructions: 1140000000 cycles: 826520751 heartbeat IPC: 1.208 cumulative IPC: 1.211 (Simulation time: 02 hr 55 min 04 sec)
Heartbeat CPU 0 instructions: 1150000004 cycles: 834805714 heartbeat IPC: 1.207 cumulative IPC: 1.21 (Simulation time: 02 hr 56 min 48 sec)
Heartbeat CPU 0 instructions: 1160000001 cycles: 843075601 heartbeat IPC: 1.209 cumulative IPC: 1.21 (Simulation time: 02 hr 58 min 33 sec)
Heartbeat CPU 0 instructions: 1170000001 cycles: 851339309 heartbeat IPC: 1.21 cumulative IPC: 1.21 (Simulation time: 03 hr 00 min 17 sec)
Heartbeat CPU 0 instructions: 1180000002 cycles: 859617816 heartbeat IPC: 1.208 cumulative IPC: 1.21 (Simulation time: 03 hr 02 min 01 sec)
Heartbeat CPU 0 instructions: 1190000004 cycles: 867897073 heartbeat IPC: 1.208 cumulative IPC: 1.21 (Simulation time: 03 hr 03 min 45 sec)
Heartbeat CPU 0 instructions: 1200000004 cycles: 876181097 heartbeat IPC: 1.207 cumulative IPC: 1.21 (Simulation time: 03 hr 05 min 28 sec)
Simulation finished CPU 0 instructions: 1000000001 cycles: 826181052 cumulative IPC: 1.21 (Simulation time: 03 hr 05 min 28 sec)
Simulation complete CPU 0 instructions: 1000000001 cycles: 826181052 cumulative IPC: 1.21 (Simulation time: 03 hr 05 min 28 sec)

ChampSim completed all CPUs

=== Simulation ===
CPU 0 runs /home/faculty/p/pgratz/dpc3_traces/649.fotonik3d_s-1176B.champsimtrace.xz
Region of Interest Statistics

CPU 0 cumulative IPC: 1.21 instructions: 1000000001 cycles: 826181052
CPU 0 Branch Prediction Accuracy: 99.8% MPKI: 0.03623 Average ROB Occupancy at Mispredict: 101.5
Branch type MPKI
BRANCH_DIRECT_JUMP: 8.9e-05
BRANCH_INDIRECT: 0
BRANCH_CONDITIONAL: 0.0281
BRANCH_DIRECT_CALL: 1.6e-05
BRANCH_INDIRECT_CALL: 0
BRANCH_RETURN: 0.00802

LLC TOTAL        ACCESS:   17476877 HIT:    8735721 MISS:    8741156
LLC LOAD         ACCESS:    8740421 HIT:        578 MISS:    8739843
LLC RFO          ACCESS:         19 HIT:         13 MISS:          6
LLC PREFETCH     ACCESS:          0 HIT:          0 MISS:          0
LLC WRITE        ACCESS:    8735239 HIT:    8734999 MISS:        240
LLC TRANSLATION  ACCESS:       1198 HIT:        131 MISS:       1067
LLC PREFETCH REQUESTED:          0 ISSUED:          0 USEFUL:          0 USELESS:          0
LLC AVERAGE MISS LATENCY: 277.5 cycles
cpu0_DTLB TOTAL        ACCESS:  110333057 HIT:  109580707 MISS:     752350
cpu0_DTLB LOAD         ACCESS:  110333057 HIT:  109580707 MISS:     752350
cpu0_DTLB RFO          ACCESS:          0 HIT:          0 MISS:          0
cpu0_DTLB PREFETCH     ACCESS:          0 HIT:          0 MISS:          0
cpu0_DTLB WRITE        ACCESS:          0 HIT:          0 MISS:          0
cpu0_DTLB TRANSLATION  ACCESS:          0 HIT:          0 MISS:          0
cpu0_DTLB PREFETCH REQUESTED:          0 ISSUED:          0 USEFUL:          0 USELESS:          0
cpu0_DTLB AVERAGE MISS LATENCY: 32.38 cycles
cpu0_ITLB TOTAL        ACCESS:       2846 HIT:       2823 MISS:         23
cpu0_ITLB LOAD         ACCESS:       2846 HIT:       2823 MISS:         23
cpu0_ITLB RFO          ACCESS:          0 HIT:          0 MISS:          0
cpu0_ITLB PREFETCH     ACCESS:          0 HIT:          0 MISS:          0
cpu0_ITLB WRITE        ACCESS:          0 HIT:          0 MISS:          0
cpu0_ITLB TRANSLATION  ACCESS:          0 HIT:          0 MISS:          0
cpu0_ITLB PREFETCH REQUESTED:          0 ISSUED:          0 USEFUL:          0 USELESS:          0
cpu0_ITLB AVERAGE MISS LATENCY: 226 cycles
cpu0_L1D TOTAL        ACCESS:  163225058 HIT:  140312773 MISS:   22912285
cpu0_L1D LOAD         ACCESS:   92795217 HIT:   69948147 MISS:   22847070
cpu0_L1D RFO          ACCESS:          0 HIT:          0 MISS:          0
cpu0_L1D PREFETCH     ACCESS:          0 HIT:          0 MISS:          0
cpu0_L1D WRITE        ACCESS:   70292516 HIT:   70232755 MISS:      59761
cpu0_L1D TRANSLATION  ACCESS:     137325 HIT:     131871 MISS:       5454
cpu0_L1D PREFETCH REQUESTED:          0 ISSUED:          0 USEFUL:          0 USELESS:          0
cpu0_L1D AVERAGE MISS LATENCY: 90.29 cycles
cpu0_L1I TOTAL        ACCESS:       3242 HIT:       2893 MISS:        349
cpu0_L1I LOAD         ACCESS:       3242 HIT:       2893 MISS:        349
cpu0_L1I RFO          ACCESS:          0 HIT:          0 MISS:          0
cpu0_L1I PREFETCH     ACCESS:          0 HIT:          0 MISS:          0
cpu0_L1I WRITE        ACCESS:          0 HIT:          0 MISS:          0
cpu0_L1I TRANSLATION  ACCESS:          0 HIT:          0 MISS:          0
cpu0_L1I PREFETCH REQUESTED:          0 ISSUED:          0 USEFUL:          0 USELESS:          0
cpu0_L1I AVERAGE MISS LATENCY: 162.2 cycles
cpu0_L2C TOTAL        ACCESS:   21953541 HIT:   13211903 MISS:    8741638
cpu0_L2C LOAD         ACCESS:   13174183 HIT:    4433762 MISS:    8740421
cpu0_L2C RFO          ACCESS:      17294 HIT:      17275 MISS:         19
cpu0_L2C PREFETCH     ACCESS:          0 HIT:          0 MISS:          0
cpu0_L2C WRITE        ACCESS:    8756645 HIT:    8756645 MISS:          0
cpu0_L2C TRANSLATION  ACCESS:       5419 HIT:       4221 MISS:       1198
cpu0_L2C PREFETCH REQUESTED:          0 ISSUED:          0 USEFUL:          0 USELESS:          0
cpu0_L2C AVERAGE MISS LATENCY: 298.5 cycles
cpu0_STLB TOTAL        ACCESS:     233094 HIT:      96283 MISS:     136811
cpu0_STLB LOAD         ACCESS:     233094 HIT:      96283 MISS:     136811
cpu0_STLB RFO          ACCESS:          0 HIT:          0 MISS:          0
cpu0_STLB PREFETCH     ACCESS:          0 HIT:          0 MISS:          0
cpu0_STLB WRITE        ACCESS:          0 HIT:          0 MISS:          0
cpu0_STLB TRANSLATION  ACCESS:          0 HIT:          0 MISS:          0
cpu0_STLB PREFETCH REQUESTED:          0 ISSUED:          0 USEFUL:          0 USELESS:          0
cpu0_STLB AVERAGE MISS LATENCY: 210.2 cycles

DRAM Statistics

Channel 0 RQ ROW_BUFFER_HIT:     338836
  ROW_BUFFER_MISS:    8402079
 AVG DBUS CONGESTED CYCLE: 3.975
WQ ROW_BUFFER_HIT: Channel 0 
  ROW_BUFFER_MISS:    2755137
  FULL:    5980051
