WARNING: physical memory size is smaller than virtual memory size.
WARNING: option --warmup_instructions is deprecated. Use --warmup-instructions instead.
WARNING: option --simulation_instructions is deprecated. Use --simulation-instructions instead.

*** ChampSim Multicore Out-of-Order Simulator ***
Warmup Instructions: 200000000
Simulation Instructions: 1000000000
Number of CPUs: 1
Page size: 4096

Off-chip DRAM Size: 4 GiB Channels: 1 Width: 64-bit Data Race: 3200 MT/s
Heartbeat CPU 0 instructions: 10000001 cycles: 2500052 heartbeat IPC: 4 cumulative IPC: 4 (Simulation time: 00 hr 00 min 35 sec)
Heartbeat CPU 0 instructions: 20000001 cycles: 5000052 heartbeat IPC: 4 cumulative IPC: 4 (Simulation time: 00 hr 01 min 10 sec)
Heartbeat CPU 0 instructions: 30000001 cycles: 7500052 heartbeat IPC: 4 cumulative IPC: 4 (Simulation time: 00 hr 01 min 45 sec)
Heartbeat CPU 0 instructions: 40000001 cycles: 10000052 heartbeat IPC: 4 cumulative IPC: 4 (Simulation time: 00 hr 02 min 20 sec)
Heartbeat CPU 0 instructions: 50000001 cycles: 12500052 heartbeat IPC: 4 cumulative IPC: 4 (Simulation time: 00 hr 02 min 56 sec)
Heartbeat CPU 0 instructions: 60000001 cycles: 15000052 heartbeat IPC: 4 cumulative IPC: 4 (Simulation time: 00 hr 03 min 31 sec)
Heartbeat CPU 0 instructions: 70000001 cycles: 17500052 heartbeat IPC: 4 cumulative IPC: 4 (Simulation time: 00 hr 04 min 06 sec)
Heartbeat CPU 0 instructions: 80000001 cycles: 20000052 heartbeat IPC: 4 cumulative IPC: 4 (Simulation time: 00 hr 04 min 41 sec)
Heartbeat CPU 0 instructions: 90000001 cycles: 22500052 heartbeat IPC: 4 cumulative IPC: 4 (Simulation time: 00 hr 05 min 16 sec)
Heartbeat CPU 0 instructions: 100000001 cycles: 25000052 heartbeat IPC: 4 cumulative IPC: 4 (Simulation time: 00 hr 05 min 51 sec)
Heartbeat CPU 0 instructions: 110000001 cycles: 27500052 heartbeat IPC: 4 cumulative IPC: 4 (Simulation time: 00 hr 06 min 26 sec)
Heartbeat CPU 0 instructions: 120000001 cycles: 30000052 heartbeat IPC: 4 cumulative IPC: 4 (Simulation time: 00 hr 07 min 01 sec)
Heartbeat CPU 0 instructions: 130000001 cycles: 32500052 heartbeat IPC: 4 cumulative IPC: 4 (Simulation time: 00 hr 07 min 36 sec)
Heartbeat CPU 0 instructions: 140000001 cycles: 35000052 heartbeat IPC: 4 cumulative IPC: 4 (Simulation time: 00 hr 08 min 11 sec)
Heartbeat CPU 0 instructions: 150000001 cycles: 37500052 heartbeat IPC: 4 cumulative IPC: 4 (Simulation time: 00 hr 08 min 46 sec)
Heartbeat CPU 0 instructions: 160000001 cycles: 40000052 heartbeat IPC: 4 cumulative IPC: 4 (Simulation time: 00 hr 09 min 21 sec)
Heartbeat CPU 0 instructions: 170000001 cycles: 42500052 heartbeat IPC: 4 cumulative IPC: 4 (Simulation time: 00 hr 09 min 56 sec)
Heartbeat CPU 0 instructions: 180000001 cycles: 45000052 heartbeat IPC: 4 cumulative IPC: 4 (Simulation time: 00 hr 10 min 31 sec)
Heartbeat CPU 0 instructions: 190000001 cycles: 47500052 heartbeat IPC: 4 cumulative IPC: 4 (Simulation time: 00 hr 11 min 06 sec)
Heartbeat CPU 0 instructions: 200000001 cycles: 50000052 heartbeat IPC: 4 cumulative IPC: 4 (Simulation time: 00 hr 11 min 41 sec)
Warmup finished CPU 0 instructions: 200000001 cycles: 50000053 cumulative IPC: 4 (Simulation time: 00 hr 11 min 41 sec)
Warmup complete CPU 0 instructions: 200000001 cycles: 50000053 cumulative IPC: 4 (Simulation time: 00 hr 11 min 41 sec)
Heartbeat CPU 0 instructions: 210000003 cycles: 53477723 heartbeat IPC: 2.875 cumulative IPC: 2.875 (Simulation time: 00 hr 12 min 27 sec)
Heartbeat CPU 0 instructions: 220000001 cycles: 56934455 heartbeat IPC: 2.893 cumulative IPC: 2.884 (Simulation time: 00 hr 13 min 15 sec)
Heartbeat CPU 0 instructions: 230000000 cycles: 60372295 heartbeat IPC: 2.909 cumulative IPC: 2.892 (Simulation time: 00 hr 14 min 01 sec)
Heartbeat CPU 0 instructions: 240000002 cycles: 63832415 heartbeat IPC: 2.89 cumulative IPC: 2.892 (Simulation time: 00 hr 14 min 48 sec)
Heartbeat CPU 0 instructions: 250000004 cycles: 67268723 heartbeat IPC: 2.91 cumulative IPC: 2.895 (Simulation time: 00 hr 15 min 35 sec)
Heartbeat CPU 0 instructions: 260000002 cycles: 70686220 heartbeat IPC: 2.926 cumulative IPC: 2.9 (Simulation time: 00 hr 16 min 22 sec)
Heartbeat CPU 0 instructions: 270000004 cycles: 74084454 heartbeat IPC: 2.943 cumulative IPC: 2.906 (Simulation time: 00 hr 17 min 09 sec)
Heartbeat CPU 0 instructions: 280000004 cycles: 77464818 heartbeat IPC: 2.958 cumulative IPC: 2.913 (Simulation time: 00 hr 17 min 55 sec)
Heartbeat CPU 0 instructions: 290000003 cycles: 80872889 heartbeat IPC: 2.934 cumulative IPC: 2.915 (Simulation time: 00 hr 18 min 41 sec)
Heartbeat CPU 0 instructions: 300000000 cycles: 84285918 heartbeat IPC: 2.93 cumulative IPC: 2.917 (Simulation time: 00 hr 19 min 27 sec)
Heartbeat CPU 0 instructions: 310000002 cycles: 87691516 heartbeat IPC: 2.936 cumulative IPC: 2.918 (Simulation time: 00 hr 20 min 12 sec)
Heartbeat CPU 0 instructions: 320000001 cycles: 91094597 heartbeat IPC: 2.939 cumulative IPC: 2.92 (Simulation time: 00 hr 20 min 58 sec)
Heartbeat CPU 0 instructions: 330000001 cycles: 94496478 heartbeat IPC: 2.94 cumulative IPC: 2.922 (Simulation time: 00 hr 21 min 43 sec)
Heartbeat CPU 0 instructions: 340000002 cycles: 97899051 heartbeat IPC: 2.939 cumulative IPC: 2.923 (Simulation time: 00 hr 22 min 30 sec)
Heartbeat CPU 0 instructions: 350000001 cycles: 101321021 heartbeat IPC: 2.922 cumulative IPC: 2.923 (Simulation time: 00 hr 23 min 15 sec)
Heartbeat CPU 0 instructions: 360000000 cycles: 104725919 heartbeat IPC: 2.937 cumulative IPC: 2.924 (Simulation time: 00 hr 24 min 01 sec)
Heartbeat CPU 0 instructions: 370000001 cycles: 108117416 heartbeat IPC: 2.949 cumulative IPC: 2.925 (Simulation time: 00 hr 24 min 47 sec)
Heartbeat CPU 0 instructions: 380000001 cycles: 111487011 heartbeat IPC: 2.968 cumulative IPC: 2.927 (Simulation time: 00 hr 25 min 37 sec)
Heartbeat CPU 0 instructions: 390000000 cycles: 114908864 heartbeat IPC: 2.922 cumulative IPC: 2.927 (Simulation time: 00 hr 26 min 24 sec)
Heartbeat CPU 0 instructions: 400000002 cycles: 118228469 heartbeat IPC: 3.012 cumulative IPC: 2.931 (Simulation time: 00 hr 27 min 09 sec)
Heartbeat CPU 0 instructions: 410000004 cycles: 121714018 heartbeat IPC: 2.869 cumulative IPC: 2.928 (Simulation time: 00 hr 27 min 56 sec)
Heartbeat CPU 0 instructions: 420000001 cycles: 125088638 heartbeat IPC: 2.963 cumulative IPC: 2.93 (Simulation time: 00 hr 28 min 41 sec)
Heartbeat CPU 0 instructions: 430000003 cycles: 128785810 heartbeat IPC: 2.705 cumulative IPC: 2.919 (Simulation time: 00 hr 29 min 30 sec)
Heartbeat CPU 0 instructions: 440000000 cycles: 132340253 heartbeat IPC: 2.813 cumulative IPC: 2.915 (Simulation time: 00 hr 30 min 17 sec)
Heartbeat CPU 0 instructions: 450000001 cycles: 136629943 heartbeat IPC: 2.331 cumulative IPC: 2.886 (Simulation time: 00 hr 31 min 11 sec)
Heartbeat CPU 0 instructions: 460000000 cycles: 139983649 heartbeat IPC: 2.982 cumulative IPC: 2.889 (Simulation time: 00 hr 31 min 56 sec)
Heartbeat CPU 0 instructions: 470000002 cycles: 143364976 heartbeat IPC: 2.957 cumulative IPC: 2.892 (Simulation time: 00 hr 32 min 42 sec)
Heartbeat CPU 0 instructions: 480000002 cycles: 146768666 heartbeat IPC: 2.938 cumulative IPC: 2.894 (Simulation time: 00 hr 33 min 29 sec)
Heartbeat CPU 0 instructions: 490000001 cycles: 157922957 heartbeat IPC: 0.8965 cumulative IPC: 2.687 (Simulation time: 00 hr 35 min 25 sec)
Heartbeat CPU 0 instructions: 500000002 cycles: 162229471 heartbeat IPC: 2.322 cumulative IPC: 2.673 (Simulation time: 00 hr 36 min 24 sec)
Heartbeat CPU 0 instructions: 510000004 cycles: 166197404 heartbeat IPC: 2.52 cumulative IPC: 2.668 (Simulation time: 00 hr 37 min 19 sec)
Heartbeat CPU 0 instructions: 520000001 cycles: 170251165 heartbeat IPC: 2.467 cumulative IPC: 2.661 (Simulation time: 00 hr 38 min 16 sec)
Heartbeat CPU 0 instructions: 530000000 cycles: 174450536 heartbeat IPC: 2.381 cumulative IPC: 2.652 (Simulation time: 00 hr 39 min 14 sec)
Heartbeat CPU 0 instructions: 540000004 cycles: 178552226 heartbeat IPC: 2.438 cumulative IPC: 2.645 (Simulation time: 00 hr 40 min 11 sec)
Heartbeat CPU 0 instructions: 550000001 cycles: 182669009 heartbeat IPC: 2.429 cumulative IPC: 2.638 (Simulation time: 00 hr 41 min 08 sec)
Heartbeat CPU 0 instructions: 560000000 cycles: 188234193 heartbeat IPC: 1.797 cumulative IPC: 2.604 (Simulation time: 00 hr 42 min 14 sec)
Heartbeat CPU 0 instructions: 570000001 cycles: 199172593 heartbeat IPC: 0.9142 cumulative IPC: 2.48 (Simulation time: 00 hr 44 min 11 sec)
Heartbeat CPU 0 instructions: 580000000 cycles: 203248215 heartbeat IPC: 2.454 cumulative IPC: 2.48 (Simulation time: 00 hr 45 min 08 sec)
Heartbeat CPU 0 instructions: 590000002 cycles: 207273843 heartbeat IPC: 2.484 cumulative IPC: 2.48 (Simulation time: 00 hr 46 min 05 sec)
Heartbeat CPU 0 instructions: 600000004 cycles: 211370253 heartbeat IPC: 2.441 cumulative IPC: 2.479 (Simulation time: 00 hr 47 min 02 sec)
Heartbeat CPU 0 instructions: 610000000 cycles: 215569684 heartbeat IPC: 2.381 cumulative IPC: 2.476 (Simulation time: 00 hr 48 min 00 sec)
Heartbeat CPU 0 instructions: 620000002 cycles: 219637846 heartbeat IPC: 2.458 cumulative IPC: 2.476 (Simulation time: 00 hr 48 min 57 sec)
Heartbeat CPU 0 instructions: 630000004 cycles: 223873937 heartbeat IPC: 2.361 cumulative IPC: 2.473 (Simulation time: 00 hr 49 min 55 sec)
Heartbeat CPU 0 instructions: 640000002 cycles: 238108280 heartbeat IPC: 0.7025 cumulative IPC: 2.339 (Simulation time: 00 hr 52 min 19 sec)
Heartbeat CPU 0 instructions: 650000001 cycles: 242355234 heartbeat IPC: 2.355 cumulative IPC: 2.339 (Simulation time: 00 hr 53 min 17 sec)
Heartbeat CPU 0 instructions: 660000003 cycles: 246339168 heartbeat IPC: 2.51 cumulative IPC: 2.343 (Simulation time: 00 hr 54 min 13 sec)
Heartbeat CPU 0 instructions: 670000000 cycles: 250391746 heartbeat IPC: 2.468 cumulative IPC: 2.345 (Simulation time: 00 hr 55 min 10 sec)
Heartbeat CPU 0 instructions: 680000002 cycles: 254614568 heartbeat IPC: 2.368 cumulative IPC: 2.346 (Simulation time: 00 hr 56 min 09 sec)
Heartbeat CPU 0 instructions: 690000001 cycles: 258699293 heartbeat IPC: 2.448 cumulative IPC: 2.348 (Simulation time: 00 hr 57 min 06 sec)
Heartbeat CPU 0 instructions: 700000000 cycles: 262845228 heartbeat IPC: 2.412 cumulative IPC: 2.349 (Simulation time: 00 hr 58 min 03 sec)
Heartbeat CPU 0 instructions: 710000002 cycles: 275043000 heartbeat IPC: 0.8198 cumulative IPC: 2.266 (Simulation time: 01 hr 00 min 07 sec)
Heartbeat CPU 0 instructions: 720000000 cycles: 281832565 heartbeat IPC: 1.473 cumulative IPC: 2.243 (Simulation time: 01 hr 01 min 30 sec)
Heartbeat CPU 0 instructions: 730000002 cycles: 285845940 heartbeat IPC: 2.492 cumulative IPC: 2.247 (Simulation time: 01 hr 02 min 26 sec)
Heartbeat CPU 0 instructions: 740000001 cycles: 289874372 heartbeat IPC: 2.482 cumulative IPC: 2.251 (Simulation time: 01 hr 03 min 22 sec)
Heartbeat CPU 0 instructions: 750000003 cycles: 294020132 heartbeat IPC: 2.412 cumulative IPC: 2.254 (Simulation time: 01 hr 04 min 20 sec)
Heartbeat CPU 0 instructions: 760000000 cycles: 298183636 heartbeat IPC: 2.402 cumulative IPC: 2.256 (Simulation time: 01 hr 05 min 17 sec)
Heartbeat CPU 0 instructions: 770000004 cycles: 302252227 heartbeat IPC: 2.458 cumulative IPC: 2.26 (Simulation time: 01 hr 06 min 14 sec)
Heartbeat CPU 0 instructions: 780000003 cycles: 306505651 heartbeat IPC: 2.351 cumulative IPC: 2.261 (Simulation time: 01 hr 07 min 13 sec)
Heartbeat CPU 0 instructions: 790000003 cycles: 318244439 heartbeat IPC: 0.8519 cumulative IPC: 2.199 (Simulation time: 01 hr 09 min 14 sec)
Heartbeat CPU 0 instructions: 800000003 cycles: 322371939 heartbeat IPC: 2.423 cumulative IPC: 2.203 (Simulation time: 01 hr 10 min 11 sec)
Heartbeat CPU 0 instructions: 810000004 cycles: 326289786 heartbeat IPC: 2.552 cumulative IPC: 2.208 (Simulation time: 01 hr 11 min 07 sec)
Heartbeat CPU 0 instructions: 820000004 cycles: 330271461 heartbeat IPC: 2.512 cumulative IPC: 2.212 (Simulation time: 01 hr 12 min 04 sec)
Heartbeat CPU 0 instructions: 830000003 cycles: 334413131 heartbeat IPC: 2.414 cumulative IPC: 2.215 (Simulation time: 01 hr 13 min 01 sec)
Heartbeat CPU 0 instructions: 840000003 cycles: 338429665 heartbeat IPC: 2.49 cumulative IPC: 2.219 (Simulation time: 01 hr 13 min 58 sec)
Heartbeat CPU 0 instructions: 850000002 cycles: 342523291 heartbeat IPC: 2.443 cumulative IPC: 2.222 (Simulation time: 01 hr 14 min 55 sec)
Heartbeat CPU 0 instructions: 860000002 cycles: 355635138 heartbeat IPC: 0.7627 cumulative IPC: 2.159 (Simulation time: 01 hr 17 min 09 sec)
Heartbeat CPU 0 instructions: 870000001 cycles: 359967147 heartbeat IPC: 2.308 cumulative IPC: 2.162 (Simulation time: 01 hr 18 min 07 sec)
Heartbeat CPU 0 instructions: 880000000 cycles: 363934015 heartbeat IPC: 2.521 cumulative IPC: 2.166 (Simulation time: 01 hr 19 min 03 sec)
Heartbeat CPU 0 instructions: 890000003 cycles: 367981492 heartbeat IPC: 2.471 cumulative IPC: 2.17 (Simulation time: 01 hr 20 min 00 sec)
Heartbeat CPU 0 instructions: 900000002 cycles: 372158768 heartbeat IPC: 2.394 cumulative IPC: 2.173 (Simulation time: 01 hr 20 min 58 sec)
Heartbeat CPU 0 instructions: 910000004 cycles: 376289231 heartbeat IPC: 2.421 cumulative IPC: 2.176 (Simulation time: 01 hr 21 min 55 sec)
Heartbeat CPU 0 instructions: 920000003 cycles: 380375169 heartbeat IPC: 2.447 cumulative IPC: 2.179 (Simulation time: 01 hr 22 min 52 sec)
Heartbeat CPU 0 instructions: 930000000 cycles: 384620302 heartbeat IPC: 2.356 cumulative IPC: 2.182 (Simulation time: 01 hr 23 min 50 sec)
Heartbeat CPU 0 instructions: 940000000 cycles: 398155259 heartbeat IPC: 0.7388 cumulative IPC: 2.125 (Simulation time: 01 hr 26 min 06 sec)
Heartbeat CPU 0 instructions: 950000002 cycles: 402272858 heartbeat IPC: 2.429 cumulative IPC: 2.129 (Simulation time: 01 hr 27 min 04 sec)
Heartbeat CPU 0 instructions: 960000000 cycles: 406283186 heartbeat IPC: 2.494 cumulative IPC: 2.133 (Simulation time: 01 hr 28 min 00 sec)
Heartbeat CPU 0 instructions: 970000001 cycles: 410362255 heartbeat IPC: 2.452 cumulative IPC: 2.137 (Simulation time: 01 hr 28 min 57 sec)
Heartbeat CPU 0 instructions: 980000000 cycles: 414561961 heartbeat IPC: 2.381 cumulative IPC: 2.14 (Simulation time: 01 hr 29 min 54 sec)
Heartbeat CPU 0 instructions: 990000002 cycles: 418648486 heartbeat IPC: 2.447 cumulative IPC: 2.143 (Simulation time: 01 hr 30 min 51 sec)
Heartbeat CPU 0 instructions: 1000000003 cycles: 422858898 heartbeat IPC: 2.375 cumulative IPC: 2.146 (Simulation time: 01 hr 31 min 49 sec)
Heartbeat CPU 0 instructions: 1010000002 cycles: 434921561 heartbeat IPC: 0.829 cumulative IPC: 2.104 (Simulation time: 01 hr 33 min 54 sec)
Heartbeat CPU 0 instructions: 1020000003 cycles: 439203384 heartbeat IPC: 2.335 cumulative IPC: 2.107 (Simulation time: 01 hr 34 min 52 sec)
Heartbeat CPU 0 instructions: 1030000000 cycles: 443168999 heartbeat IPC: 2.522 cumulative IPC: 2.111 (Simulation time: 01 hr 35 min 48 sec)
Heartbeat CPU 0 instructions: 1040000001 cycles: 447231250 heartbeat IPC: 2.462 cumulative IPC: 2.115 (Simulation time: 01 hr 36 min 45 sec)
Heartbeat CPU 0 instructions: 1050000001 cycles: 451437568 heartbeat IPC: 2.377 cumulative IPC: 2.117 (Simulation time: 01 hr 37 min 43 sec)
Heartbeat CPU 0 instructions: 1060000003 cycles: 455532125 heartbeat IPC: 2.442 cumulative IPC: 2.121 (Simulation time: 01 hr 38 min 40 sec)
Heartbeat CPU 0 instructions: 1070000000 cycles: 459657065 heartbeat IPC: 2.424 cumulative IPC: 2.124 (Simulation time: 01 hr 39 min 37 sec)
Heartbeat CPU 0 instructions: 1080000002 cycles: 467785526 heartbeat IPC: 1.23 cumulative IPC: 2.106 (Simulation time: 01 hr 41 min 02 sec)
Heartbeat CPU 0 instructions: 1090000000 cycles: 476060224 heartbeat IPC: 1.209 cumulative IPC: 2.089 (Simulation time: 01 hr 42 min 40 sec)
Heartbeat CPU 0 instructions: 1100000001 cycles: 480114242 heartbeat IPC: 2.467 cumulative IPC: 2.092 (Simulation time: 01 hr 43 min 37 sec)
Heartbeat CPU 0 instructions: 1110000000 cycles: 484141243 heartbeat IPC: 2.483 cumulative IPC: 2.096 (Simulation time: 01 hr 44 min 34 sec)
Heartbeat CPU 0 instructions: 1120000000 cycles: 488254286 heartbeat IPC: 2.431 cumulative IPC: 2.099 (Simulation time: 01 hr 45 min 32 sec)
Heartbeat CPU 0 instructions: 1130000001 cycles: 492441868 heartbeat IPC: 2.388 cumulative IPC: 2.102 (Simulation time: 01 hr 46 min 30 sec)
Heartbeat CPU 0 instructions: 1140000001 cycles: 496507754 heartbeat IPC: 2.459 cumulative IPC: 2.105 (Simulation time: 01 hr 47 min 27 sec)
Heartbeat CPU 0 instructions: 1150000001 cycles: 500753207 heartbeat IPC: 2.355 cumulative IPC: 2.108 (Simulation time: 01 hr 48 min 26 sec)
Heartbeat CPU 0 instructions: 1160000000 cycles: 514867964 heartbeat IPC: 0.7085 cumulative IPC: 2.065 (Simulation time: 01 hr 50 min 50 sec)
Heartbeat CPU 0 instructions: 1170000004 cycles: 519058744 heartbeat IPC: 2.386 cumulative IPC: 2.068 (Simulation time: 01 hr 51 min 48 sec)
Heartbeat CPU 0 instructions: 1180000002 cycles: 522978785 heartbeat IPC: 2.551 cumulative IPC: 2.072 (Simulation time: 01 hr 52 min 44 sec)
Heartbeat CPU 0 instructions: 1190000000 cycles: 526953842 heartbeat IPC: 2.516 cumulative IPC: 2.076 (Simulation time: 01 hr 53 min 41 sec)
Heartbeat CPU 0 instructions: 1200000000 cycles: 531099959 heartbeat IPC: 2.412 cumulative IPC: 2.079 (Simulation time: 01 hr 54 min 38 sec)
Simulation finished CPU 0 instructions: 1000000000 cycles: 481099908 cumulative IPC: 2.079 (Simulation time: 01 hr 54 min 38 sec)
Simulation complete CPU 0 instructions: 1000000000 cycles: 481099908 cumulative IPC: 2.079 (Simulation time: 01 hr 54 min 38 sec)

ChampSim completed all CPUs

=== Simulation ===
CPU 0 runs /home/faculty/p/pgratz/dpc3_traces/654.roms_s-842B.champsimtrace.xz
Region of Interest Statistics

CPU 0 cumulative IPC: 2.079 instructions: 1000000000 cycles: 481099908
CPU 0 Branch Prediction Accuracy: 89.66% MPKI: 12.44 Average ROB Occupancy at Mispredict: 130.1
Branch type MPKI
BRANCH_DIRECT_JUMP: 0.0445
BRANCH_INDIRECT: 0
BRANCH_CONDITIONAL: 7.02
BRANCH_DIRECT_CALL: 8e-06
BRANCH_INDIRECT_CALL: 0
BRANCH_RETURN: 5.37

LLC TOTAL        ACCESS:    3511565 HIT:    1000004 MISS:    2511561
LLC LOAD         ACCESS:    1502674 HIT:          8 MISS:    1502666
LLC RFO          ACCESS:     999267 HIT:         44 MISS:     999223
LLC PREFETCH     ACCESS:          0 HIT:          0 MISS:          0
LLC WRITE        ACCESS:     999621 HIT:     997566 MISS:       2055
LLC TRANSLATION  ACCESS:      10003 HIT:       2386 MISS:       7617
LLC PREFETCH REQUESTED:          0 ISSUED:          0 USEFUL:          0 USELESS:          0
LLC AVERAGE MISS LATENCY: 554.8 cycles
cpu0_DTLB TOTAL        ACCESS:  148204656 HIT:  147908251 MISS:     296405
cpu0_DTLB LOAD         ACCESS:  148204656 HIT:  147908251 MISS:     296405
cpu0_DTLB RFO          ACCESS:          0 HIT:          0 MISS:          0
cpu0_DTLB PREFETCH     ACCESS:          0 HIT:          0 MISS:          0
cpu0_DTLB WRITE        ACCESS:          0 HIT:          0 MISS:          0
cpu0_DTLB TRANSLATION  ACCESS:          0 HIT:          0 MISS:          0
cpu0_DTLB PREFETCH REQUESTED:          0 ISSUED:          0 USEFUL:          0 USELESS:          0
cpu0_DTLB AVERAGE MISS LATENCY: 16.16 cycles
cpu0_ITLB TOTAL        ACCESS:    2843211 HIT:    2843202 MISS:          9
cpu0_ITLB LOAD         ACCESS:    2843211 HIT:    2843202 MISS:          9
cpu0_ITLB RFO          ACCESS:          0 HIT:          0 MISS:          0
cpu0_ITLB PREFETCH     ACCESS:          0 HIT:          0 MISS:          0
cpu0_ITLB WRITE        ACCESS:          0 HIT:          0 MISS:          0
cpu0_ITLB TRANSLATION  ACCESS:          0 HIT:          0 MISS:          0
cpu0_ITLB PREFETCH REQUESTED:          0 ISSUED:          0 USEFUL:          0 USELESS:          0
cpu0_ITLB AVERAGE MISS LATENCY: 306 cycles
cpu0_L1D TOTAL        ACCESS:  192906874 HIT:  184204158 MISS:    8702716
cpu0_L1D LOAD         ACCESS:  102130528 HIT:   99160996 MISS:    2969532
cpu0_L1D RFO          ACCESS:          0 HIT:          0 MISS:          0
cpu0_L1D PREFETCH     ACCESS:          0 HIT:          0 MISS:          0
cpu0_L1D WRITE        ACCESS:   90725877 HIT:   85003057 MISS:    5722820
cpu0_L1D TRANSLATION  ACCESS:      50469 HIT:      40105 MISS:      10364
cpu0_L1D PREFETCH REQUESTED:          0 ISSUED:          0 USEFUL:          0 USELESS:          0
cpu0_L1D AVERAGE MISS LATENCY: 146.9 cycles
cpu0_L1I TOTAL        ACCESS:    3318234 HIT:    3318154 MISS:         80
cpu0_L1I LOAD         ACCESS:    3318234 HIT:    3318154 MISS:         80
cpu0_L1I RFO          ACCESS:          0 HIT:          0 MISS:          0
cpu0_L1I PREFETCH     ACCESS:          0 HIT:          0 MISS:          0
cpu0_L1I WRITE        ACCESS:          0 HIT:          0 MISS:          0
cpu0_L1I TRANSLATION  ACCESS:          0 HIT:          0 MISS:          0
cpu0_L1I PREFETCH REQUESTED:          0 ISSUED:          0 USEFUL:          0 USELESS:          0
cpu0_L1I AVERAGE MISS LATENCY: 202.9 cycles
cpu0_L2C TOTAL        ACCESS:    3515726 HIT:    1001772 MISS:    2513954
cpu0_L2C LOAD         ACCESS:    1502831 HIT:        157 MISS:    1502674
cpu0_L2C RFO          ACCESS:    1001209 HIT:       1942 MISS:     999267
cpu0_L2C PREFETCH     ACCESS:          0 HIT:          0 MISS:          0
cpu0_L2C WRITE        ACCESS:    1001322 HIT:     999312 MISS:       2010
cpu0_L2C TRANSLATION  ACCESS:      10364 HIT:        361 MISS:      10003
cpu0_L2C PREFETCH REQUESTED:          0 ISSUED:          0 USEFUL:          0 USELESS:          0
cpu0_L2C AVERAGE MISS LATENCY: 575.3 cycles
cpu0_STLB TOTAL        ACCESS:      54985 HIT:       4587 MISS:      50398
cpu0_STLB LOAD         ACCESS:      54985 HIT:       4587 MISS:      50398
cpu0_STLB RFO          ACCESS:          0 HIT:          0 MISS:          0
cpu0_STLB PREFETCH     ACCESS:          0 HIT:          0 MISS:          0
cpu0_STLB WRITE        ACCESS:          0 HIT:          0 MISS:          0
cpu0_STLB TRANSLATION  ACCESS:          0 HIT:          0 MISS:          0
cpu0_STLB PREFETCH REQUESTED:          0 ISSUED:          0 USEFUL:          0 USELESS:          0
cpu0_STLB AVERAGE MISS LATENCY: 195.2 cycles

DRAM Statistics

Channel 0 RQ ROW_BUFFER_HIT:     566661
  ROW_BUFFER_MISS:    1942844
 AVG DBUS CONGESTED CYCLE: 3.982
WQ ROW_BUFFER_HIT: Channel 0 
  ROW_BUFFER_MISS:     179982
  FULL:     817932
