WARNING: physical memory size is smaller than virtual memory size.
WARNING: option --warmup_instructions is deprecated. Use --warmup-instructions instead.
WARNING: option --simulation_instructions is deprecated. Use --simulation-instructions instead.

*** ChampSim Multicore Out-of-Order Simulator ***
Warmup Instructions: 200000000
Simulation Instructions: 1000000000
Number of CPUs: 1
Page size: 4096

Off-chip DRAM Size: 4 GiB Channels: 1 Width: 64-bit Data Race: 3200 MT/s
Heartbeat CPU 0 instructions: 10000003 cycles: 2503589 heartbeat IPC: 3.994 cumulative IPC: 3.994 (Simulation time: 00 hr 00 min 37 sec)
Heartbeat CPU 0 instructions: 20000002 cycles: 5008893 heartbeat IPC: 3.992 cumulative IPC: 3.993 (Simulation time: 00 hr 01 min 16 sec)
Heartbeat CPU 0 instructions: 30000003 cycles: 7512420 heartbeat IPC: 3.994 cumulative IPC: 3.993 (Simulation time: 00 hr 01 min 54 sec)
Heartbeat CPU 0 instructions: 40000003 cycles: 10015957 heartbeat IPC: 3.994 cumulative IPC: 3.994 (Simulation time: 00 hr 02 min 32 sec)
Heartbeat CPU 0 instructions: 50000000 cycles: 12519482 heartbeat IPC: 3.994 cumulative IPC: 3.994 (Simulation time: 00 hr 03 min 10 sec)
Heartbeat CPU 0 instructions: 60000001 cycles: 15024785 heartbeat IPC: 3.992 cumulative IPC: 3.993 (Simulation time: 00 hr 03 min 47 sec)
Heartbeat CPU 0 instructions: 70000003 cycles: 17528317 heartbeat IPC: 3.994 cumulative IPC: 3.994 (Simulation time: 00 hr 04 min 25 sec)
Heartbeat CPU 0 instructions: 80000000 cycles: 20033601 heartbeat IPC: 3.992 cumulative IPC: 3.993 (Simulation time: 00 hr 05 min 02 sec)
Heartbeat CPU 0 instructions: 90000002 cycles: 22537132 heartbeat IPC: 3.994 cumulative IPC: 3.993 (Simulation time: 00 hr 05 min 40 sec)
Heartbeat CPU 0 instructions: 100000000 cycles: 25042442 heartbeat IPC: 3.992 cumulative IPC: 3.993 (Simulation time: 00 hr 06 min 18 sec)
Heartbeat CPU 0 instructions: 110000000 cycles: 27547729 heartbeat IPC: 3.992 cumulative IPC: 3.993 (Simulation time: 00 hr 06 min 56 sec)
Heartbeat CPU 0 instructions: 120000003 cycles: 30053024 heartbeat IPC: 3.992 cumulative IPC: 3.993 (Simulation time: 00 hr 07 min 34 sec)
Heartbeat CPU 0 instructions: 130000001 cycles: 32558308 heartbeat IPC: 3.992 cumulative IPC: 3.993 (Simulation time: 00 hr 08 min 11 sec)
Heartbeat CPU 0 instructions: 140000000 cycles: 35063597 heartbeat IPC: 3.992 cumulative IPC: 3.993 (Simulation time: 00 hr 08 min 49 sec)
Heartbeat CPU 0 instructions: 150000000 cycles: 37568885 heartbeat IPC: 3.992 cumulative IPC: 3.993 (Simulation time: 00 hr 09 min 27 sec)
Heartbeat CPU 0 instructions: 160000002 cycles: 40074173 heartbeat IPC: 3.992 cumulative IPC: 3.993 (Simulation time: 00 hr 10 min 04 sec)
Heartbeat CPU 0 instructions: 170000000 cycles: 42579457 heartbeat IPC: 3.992 cumulative IPC: 3.993 (Simulation time: 00 hr 10 min 42 sec)
Heartbeat CPU 0 instructions: 180000001 cycles: 45082993 heartbeat IPC: 3.994 cumulative IPC: 3.993 (Simulation time: 00 hr 11 min 20 sec)
Heartbeat CPU 0 instructions: 190000001 cycles: 47586518 heartbeat IPC: 3.994 cumulative IPC: 3.993 (Simulation time: 00 hr 11 min 58 sec)
Heartbeat CPU 0 instructions: 200000002 cycles: 50088291 heartbeat IPC: 3.997 cumulative IPC: 3.993 (Simulation time: 00 hr 12 min 37 sec)
Warmup finished CPU 0 instructions: 200000002 cycles: 50088292 cumulative IPC: 3.993 (Simulation time: 00 hr 12 min 37 sec)
Warmup complete CPU 0 instructions: 200000002 cycles: 50088292 cumulative IPC: 3.993 (Simulation time: 00 hr 12 min 37 sec)
Heartbeat CPU 0 instructions: 210000000 cycles: 57557330 heartbeat IPC: 1.339 cumulative IPC: 1.339 (Simulation time: 00 hr 13 min 47 sec)
Heartbeat CPU 0 instructions: 220000003 cycles: 64171230 heartbeat IPC: 1.512 cumulative IPC: 1.42 (Simulation time: 00 hr 14 min 53 sec)
Heartbeat CPU 0 instructions: 230000000 cycles: 70121739 heartbeat IPC: 1.681 cumulative IPC: 1.497 (Simulation time: 00 hr 15 min 55 sec)
Heartbeat CPU 0 instructions: 240000001 cycles: 76066570 heartbeat IPC: 1.682 cumulative IPC: 1.54 (Simulation time: 00 hr 16 min 57 sec)
Heartbeat CPU 0 instructions: 250000003 cycles: 81498319 heartbeat IPC: 1.841 cumulative IPC: 1.592 (Simulation time: 00 hr 17 min 57 sec)
Heartbeat CPU 0 instructions: 260000004 cycles: 86230418 heartbeat IPC: 2.113 cumulative IPC: 1.66 (Simulation time: 00 hr 18 min 53 sec)
Heartbeat CPU 0 instructions: 270000004 cycles: 90763039 heartbeat IPC: 2.206 cumulative IPC: 1.721 (Simulation time: 00 hr 19 min 47 sec)
Heartbeat CPU 0 instructions: 280000003 cycles: 97897895 heartbeat IPC: 1.402 cumulative IPC: 1.673 (Simulation time: 00 hr 20 min 56 sec)
Heartbeat CPU 0 instructions: 290000000 cycles: 103849242 heartbeat IPC: 1.68 cumulative IPC: 1.674 (Simulation time: 00 hr 21 min 58 sec)
Heartbeat CPU 0 instructions: 300000002 cycles: 108870236 heartbeat IPC: 1.992 cumulative IPC: 1.701 (Simulation time: 00 hr 22 min 55 sec)
Heartbeat CPU 0 instructions: 310000003 cycles: 114022255 heartbeat IPC: 1.941 cumulative IPC: 1.721 (Simulation time: 00 hr 23 min 53 sec)
Heartbeat CPU 0 instructions: 320000003 cycles: 120002057 heartbeat IPC: 1.672 cumulative IPC: 1.716 (Simulation time: 00 hr 24 min 55 sec)
Heartbeat CPU 0 instructions: 330000003 cycles: 125034549 heartbeat IPC: 1.987 cumulative IPC: 1.735 (Simulation time: 00 hr 25 min 52 sec)
Heartbeat CPU 0 instructions: 340000001 cycles: 131233102 heartbeat IPC: 1.613 cumulative IPC: 1.725 (Simulation time: 00 hr 26 min 55 sec)
Heartbeat CPU 0 instructions: 350000001 cycles: 137835183 heartbeat IPC: 1.515 cumulative IPC: 1.709 (Simulation time: 00 hr 28 min 01 sec)
Heartbeat CPU 0 instructions: 360000001 cycles: 144465683 heartbeat IPC: 1.508 cumulative IPC: 1.695 (Simulation time: 00 hr 29 min 07 sec)
Heartbeat CPU 0 instructions: 370000001 cycles: 150337093 heartbeat IPC: 1.703 cumulative IPC: 1.696 (Simulation time: 00 hr 30 min 08 sec)
Heartbeat CPU 0 instructions: 380000001 cycles: 155906529 heartbeat IPC: 1.796 cumulative IPC: 1.701 (Simulation time: 00 hr 31 min 08 sec)
Heartbeat CPU 0 instructions: 390000004 cycles: 162736388 heartbeat IPC: 1.464 cumulative IPC: 1.687 (Simulation time: 00 hr 32 min 15 sec)
Heartbeat CPU 0 instructions: 400000000 cycles: 169219448 heartbeat IPC: 1.542 cumulative IPC: 1.679 (Simulation time: 00 hr 33 min 20 sec)
Heartbeat CPU 0 instructions: 410000003 cycles: 175967040 heartbeat IPC: 1.482 cumulative IPC: 1.668 (Simulation time: 00 hr 34 min 27 sec)
Heartbeat CPU 0 instructions: 420000004 cycles: 182890283 heartbeat IPC: 1.444 cumulative IPC: 1.657 (Simulation time: 00 hr 35 min 34 sec)
Heartbeat CPU 0 instructions: 430000003 cycles: 188999558 heartbeat IPC: 1.637 cumulative IPC: 1.656 (Simulation time: 00 hr 36 min 38 sec)
Heartbeat CPU 0 instructions: 440000001 cycles: 195116722 heartbeat IPC: 1.635 cumulative IPC: 1.655 (Simulation time: 00 hr 37 min 41 sec)
Heartbeat CPU 0 instructions: 450000003 cycles: 201124810 heartbeat IPC: 1.664 cumulative IPC: 1.655 (Simulation time: 00 hr 38 min 44 sec)
Heartbeat CPU 0 instructions: 460000003 cycles: 207001072 heartbeat IPC: 1.702 cumulative IPC: 1.657 (Simulation time: 00 hr 39 min 47 sec)
Heartbeat CPU 0 instructions: 470000004 cycles: 213087522 heartbeat IPC: 1.643 cumulative IPC: 1.656 (Simulation time: 00 hr 40 min 50 sec)
Heartbeat CPU 0 instructions: 480000002 cycles: 218585483 heartbeat IPC: 1.819 cumulative IPC: 1.662 (Simulation time: 00 hr 41 min 49 sec)
Heartbeat CPU 0 instructions: 490000000 cycles: 223964432 heartbeat IPC: 1.859 cumulative IPC: 1.668 (Simulation time: 00 hr 42 min 48 sec)
Heartbeat CPU 0 instructions: 500000002 cycles: 229781125 heartbeat IPC: 1.719 cumulative IPC: 1.67 (Simulation time: 00 hr 43 min 50 sec)
Heartbeat CPU 0 instructions: 510000003 cycles: 242639131 heartbeat IPC: 0.7777 cumulative IPC: 1.61 (Simulation time: 00 hr 45 min 50 sec)
Heartbeat CPU 0 instructions: 520000003 cycles: 248820657 heartbeat IPC: 1.618 cumulative IPC: 1.61 (Simulation time: 00 hr 46 min 54 sec)
Heartbeat CPU 0 instructions: 530000004 cycles: 254516384 heartbeat IPC: 1.756 cumulative IPC: 1.614 (Simulation time: 00 hr 47 min 55 sec)
Heartbeat CPU 0 instructions: 540000001 cycles: 260047639 heartbeat IPC: 1.808 cumulative IPC: 1.619 (Simulation time: 00 hr 48 min 55 sec)
Heartbeat CPU 0 instructions: 550000000 cycles: 267637938 heartbeat IPC: 1.317 cumulative IPC: 1.609 (Simulation time: 00 hr 50 min 07 sec)
Heartbeat CPU 0 instructions: 560000003 cycles: 273495359 heartbeat IPC: 1.707 cumulative IPC: 1.611 (Simulation time: 00 hr 51 min 09 sec)
Heartbeat CPU 0 instructions: 570000004 cycles: 279473966 heartbeat IPC: 1.673 cumulative IPC: 1.613 (Simulation time: 00 hr 52 min 11 sec)
Heartbeat CPU 0 instructions: 580000000 cycles: 285357143 heartbeat IPC: 1.7 cumulative IPC: 1.615 (Simulation time: 00 hr 53 min 14 sec)
Heartbeat CPU 0 instructions: 590000002 cycles: 291296193 heartbeat IPC: 1.684 cumulative IPC: 1.617 (Simulation time: 00 hr 54 min 16 sec)
Heartbeat CPU 0 instructions: 600000004 cycles: 297506510 heartbeat IPC: 1.61 cumulative IPC: 1.617 (Simulation time: 00 hr 55 min 20 sec)
Heartbeat CPU 0 instructions: 610000003 cycles: 303676625 heartbeat IPC: 1.621 cumulative IPC: 1.617 (Simulation time: 00 hr 56 min 24 sec)
Heartbeat CPU 0 instructions: 620000002 cycles: 309465553 heartbeat IPC: 1.727 cumulative IPC: 1.619 (Simulation time: 00 hr 57 min 25 sec)
Heartbeat CPU 0 instructions: 630000001 cycles: 315477792 heartbeat IPC: 1.663 cumulative IPC: 1.62 (Simulation time: 00 hr 58 min 28 sec)
Heartbeat CPU 0 instructions: 640000000 cycles: 321470081 heartbeat IPC: 1.669 cumulative IPC: 1.621 (Simulation time: 00 hr 59 min 31 sec)
Heartbeat CPU 0 instructions: 650000000 cycles: 326729921 heartbeat IPC: 1.901 cumulative IPC: 1.627 (Simulation time: 01 hr 00 min 29 sec)
Heartbeat CPU 0 instructions: 660000004 cycles: 332635657 heartbeat IPC: 1.693 cumulative IPC: 1.628 (Simulation time: 01 hr 01 min 31 sec)
Heartbeat CPU 0 instructions: 670000002 cycles: 338607897 heartbeat IPC: 1.674 cumulative IPC: 1.629 (Simulation time: 01 hr 02 min 33 sec)
Heartbeat CPU 0 instructions: 680000004 cycles: 343903937 heartbeat IPC: 1.888 cumulative IPC: 1.634 (Simulation time: 01 hr 03 min 32 sec)
Heartbeat CPU 0 instructions: 690000003 cycles: 350391360 heartbeat IPC: 1.541 cumulative IPC: 1.632 (Simulation time: 01 hr 04 min 37 sec)
Heartbeat CPU 0 instructions: 700000003 cycles: 356127071 heartbeat IPC: 1.743 cumulative IPC: 1.634 (Simulation time: 01 hr 05 min 39 sec)
Heartbeat CPU 0 instructions: 710000000 cycles: 361963052 heartbeat IPC: 1.714 cumulative IPC: 1.635 (Simulation time: 01 hr 06 min 41 sec)
Heartbeat CPU 0 instructions: 720000000 cycles: 367838630 heartbeat IPC: 1.702 cumulative IPC: 1.637 (Simulation time: 01 hr 07 min 44 sec)
Heartbeat CPU 0 instructions: 730000004 cycles: 373380645 heartbeat IPC: 1.804 cumulative IPC: 1.639 (Simulation time: 01 hr 08 min 44 sec)
Heartbeat CPU 0 instructions: 740000001 cycles: 379246471 heartbeat IPC: 1.705 cumulative IPC: 1.641 (Simulation time: 01 hr 09 min 46 sec)
Heartbeat CPU 0 instructions: 750000000 cycles: 384021273 heartbeat IPC: 2.094 cumulative IPC: 1.647 (Simulation time: 01 hr 10 min 42 sec)
Heartbeat CPU 0 instructions: 760000000 cycles: 388548050 heartbeat IPC: 2.209 cumulative IPC: 1.655 (Simulation time: 01 hr 11 min 37 sec)
Heartbeat CPU 0 instructions: 770000002 cycles: 393160770 heartbeat IPC: 2.168 cumulative IPC: 1.661 (Simulation time: 01 hr 12 min 31 sec)
Heartbeat CPU 0 instructions: 780000004 cycles: 397647857 heartbeat IPC: 2.229 cumulative IPC: 1.669 (Simulation time: 01 hr 13 min 26 sec)
Heartbeat CPU 0 instructions: 790000004 cycles: 402241741 heartbeat IPC: 2.177 cumulative IPC: 1.675 (Simulation time: 01 hr 14 min 20 sec)
Heartbeat CPU 0 instructions: 800000001 cycles: 406894944 heartbeat IPC: 2.149 cumulative IPC: 1.682 (Simulation time: 01 hr 15 min 16 sec)
Heartbeat CPU 0 instructions: 810000001 cycles: 411551474 heartbeat IPC: 2.148 cumulative IPC: 1.688 (Simulation time: 01 hr 16 min 11 sec)
Heartbeat CPU 0 instructions: 820000001 cycles: 416159104 heartbeat IPC: 2.17 cumulative IPC: 1.694 (Simulation time: 01 hr 17 min 06 sec)
Heartbeat CPU 0 instructions: 830000000 cycles: 420949936 heartbeat IPC: 2.087 cumulative IPC: 1.699 (Simulation time: 01 hr 18 min 02 sec)
Heartbeat CPU 0 instructions: 840000002 cycles: 425443490 heartbeat IPC: 2.225 cumulative IPC: 1.705 (Simulation time: 01 hr 18 min 56 sec)
Heartbeat CPU 0 instructions: 850000000 cycles: 430187954 heartbeat IPC: 2.108 cumulative IPC: 1.71 (Simulation time: 01 hr 19 min 51 sec)
Heartbeat CPU 0 instructions: 860000003 cycles: 434837232 heartbeat IPC: 2.151 cumulative IPC: 1.715 (Simulation time: 01 hr 20 min 47 sec)
Heartbeat CPU 0 instructions: 870000004 cycles: 439567447 heartbeat IPC: 2.114 cumulative IPC: 1.72 (Simulation time: 01 hr 21 min 42 sec)
Heartbeat CPU 0 instructions: 880000002 cycles: 444132834 heartbeat IPC: 2.19 cumulative IPC: 1.726 (Simulation time: 01 hr 22 min 37 sec)
Heartbeat CPU 0 instructions: 890000002 cycles: 448672356 heartbeat IPC: 2.203 cumulative IPC: 1.731 (Simulation time: 01 hr 23 min 31 sec)
Heartbeat CPU 0 instructions: 900000003 cycles: 453259100 heartbeat IPC: 2.18 cumulative IPC: 1.736 (Simulation time: 01 hr 24 min 26 sec)
Heartbeat CPU 0 instructions: 910000003 cycles: 457881421 heartbeat IPC: 2.163 cumulative IPC: 1.741 (Simulation time: 01 hr 25 min 21 sec)
Heartbeat CPU 0 instructions: 920000001 cycles: 462556423 heartbeat IPC: 2.139 cumulative IPC: 1.746 (Simulation time: 01 hr 26 min 16 sec)
Heartbeat CPU 0 instructions: 930000001 cycles: 468241148 heartbeat IPC: 1.759 cumulative IPC: 1.746 (Simulation time: 01 hr 27 min 17 sec)
Heartbeat CPU 0 instructions: 940000004 cycles: 474378452 heartbeat IPC: 1.629 cumulative IPC: 1.744 (Simulation time: 01 hr 28 min 21 sec)
Heartbeat CPU 0 instructions: 950000002 cycles: 481186455 heartbeat IPC: 1.469 cumulative IPC: 1.74 (Simulation time: 01 hr 29 min 28 sec)
Heartbeat CPU 0 instructions: 960000004 cycles: 486055309 heartbeat IPC: 2.054 cumulative IPC: 1.743 (Simulation time: 01 hr 30 min 25 sec)
Heartbeat CPU 0 instructions: 970000002 cycles: 491614520 heartbeat IPC: 1.799 cumulative IPC: 1.744 (Simulation time: 01 hr 31 min 24 sec)
Heartbeat CPU 0 instructions: 980000000 cycles: 499159265 heartbeat IPC: 1.325 cumulative IPC: 1.737 (Simulation time: 01 hr 32 min 36 sec)
Heartbeat CPU 0 instructions: 990000003 cycles: 506894633 heartbeat IPC: 1.293 cumulative IPC: 1.729 (Simulation time: 01 hr 33 min 48 sec)
Heartbeat CPU 0 instructions: 1000000000 cycles: 513181255 heartbeat IPC: 1.591 cumulative IPC: 1.728 (Simulation time: 01 hr 34 min 53 sec)
Heartbeat CPU 0 instructions: 1010000003 cycles: 518847371 heartbeat IPC: 1.765 cumulative IPC: 1.728 (Simulation time: 01 hr 35 min 53 sec)
Heartbeat CPU 0 instructions: 1020000000 cycles: 527122309 heartbeat IPC: 1.208 cumulative IPC: 1.719 (Simulation time: 01 hr 37 min 08 sec)
Heartbeat CPU 0 instructions: 1030000002 cycles: 536227940 heartbeat IPC: 1.098 cumulative IPC: 1.707 (Simulation time: 01 hr 38 min 28 sec)
Heartbeat CPU 0 instructions: 1040000002 cycles: 546063096 heartbeat IPC: 1.017 cumulative IPC: 1.694 (Simulation time: 01 hr 39 min 52 sec)
Heartbeat CPU 0 instructions: 1050000004 cycles: 555168268 heartbeat IPC: 1.098 cumulative IPC: 1.683 (Simulation time: 01 hr 41 min 11 sec)
Heartbeat CPU 0 instructions: 1060000002 cycles: 562841862 heartbeat IPC: 1.303 cumulative IPC: 1.677 (Simulation time: 01 hr 42 min 24 sec)
Heartbeat CPU 0 instructions: 1070000000 cycles: 568305245 heartbeat IPC: 1.83 cumulative IPC: 1.679 (Simulation time: 01 hr 43 min 23 sec)
Heartbeat CPU 0 instructions: 1080000000 cycles: 573274241 heartbeat IPC: 2.012 cumulative IPC: 1.682 (Simulation time: 01 hr 44 min 20 sec)
Heartbeat CPU 0 instructions: 1090000001 cycles: 580639900 heartbeat IPC: 1.358 cumulative IPC: 1.677 (Simulation time: 01 hr 45 min 30 sec)
Heartbeat CPU 0 instructions: 1100000002 cycles: 587710904 heartbeat IPC: 1.414 cumulative IPC: 1.674 (Simulation time: 01 hr 46 min 39 sec)
Heartbeat CPU 0 instructions: 1110000001 cycles: 596234945 heartbeat IPC: 1.173 cumulative IPC: 1.666 (Simulation time: 01 hr 47 min 56 sec)
Heartbeat CPU 0 instructions: 1120000003 cycles: 603982230 heartbeat IPC: 1.291 cumulative IPC: 1.661 (Simulation time: 01 hr 49 min 09 sec)
Heartbeat CPU 0 instructions: 1130000000 cycles: 609674843 heartbeat IPC: 1.757 cumulative IPC: 1.662 (Simulation time: 01 hr 50 min 09 sec)
Heartbeat CPU 0 instructions: 1140000001 cycles: 615854087 heartbeat IPC: 1.618 cumulative IPC: 1.661 (Simulation time: 01 hr 51 min 13 sec)
Heartbeat CPU 0 instructions: 1150000003 cycles: 621077087 heartbeat IPC: 1.915 cumulative IPC: 1.664 (Simulation time: 01 hr 52 min 12 sec)
Heartbeat CPU 0 instructions: 1160000000 cycles: 626280971 heartbeat IPC: 1.922 cumulative IPC: 1.666 (Simulation time: 01 hr 53 min 11 sec)
Heartbeat CPU 0 instructions: 1170000000 cycles: 631328139 heartbeat IPC: 1.981 cumulative IPC: 1.669 (Simulation time: 01 hr 54 min 09 sec)
Heartbeat CPU 0 instructions: 1180000000 cycles: 636393445 heartbeat IPC: 1.974 cumulative IPC: 1.671 (Simulation time: 01 hr 55 min 07 sec)
Heartbeat CPU 0 instructions: 1190000004 cycles: 641665680 heartbeat IPC: 1.897 cumulative IPC: 1.673 (Simulation time: 01 hr 56 min 06 sec)
Heartbeat CPU 0 instructions: 1200000003 cycles: 648343149 heartbeat IPC: 1.498 cumulative IPC: 1.672 (Simulation time: 01 hr 57 min 13 sec)
Simulation finished CPU 0 instructions: 1000000001 cycles: 598254858 cumulative IPC: 1.672 (Simulation time: 01 hr 57 min 13 sec)
Simulation complete CPU 0 instructions: 1000000001 cycles: 598254858 cumulative IPC: 1.672 (Simulation time: 01 hr 57 min 13 sec)

ChampSim completed all CPUs

=== Simulation ===
CPU 0 runs /home/faculty/p/pgratz/dpc3_traces/657.xz_s-3167B.champsimtrace.xz
Region of Interest Statistics

CPU 0 cumulative IPC: 1.672 instructions: 1000000001 cycles: 598254858
CPU 0 Branch Prediction Accuracy: 92.75% MPKI: 10.91 Average ROB Occupancy at Mispredict: 52.87
Branch type MPKI
BRANCH_DIRECT_JUMP: 0.0664
BRANCH_INDIRECT: 0.731
BRANCH_CONDITIONAL: 10.1
BRANCH_DIRECT_CALL: 5e-06
BRANCH_INDIRECT_CALL: 0.00188
BRANCH_RETURN: 5e-06

LLC TOTAL        ACCESS:    3410074 HIT:    2191230 MISS:    1218844
LLC LOAD         ACCESS:    1464806 HIT:     654987 MISS:     809819
LLC RFO          ACCESS:     456286 HIT:      71400 MISS:     384886
LLC PREFETCH     ACCESS:          0 HIT:          0 MISS:          0
LLC WRITE        ACCESS:    1355066 HIT:    1346266 MISS:       8800
LLC TRANSLATION  ACCESS:     133916 HIT:     118577 MISS:      15339
LLC PREFETCH REQUESTED:          0 ISSUED:          0 USEFUL:          0 USELESS:          0
LLC AVERAGE MISS LATENCY: 341.6 cycles
cpu0_DTLB TOTAL        ACCESS:  153341327 HIT:  147885016 MISS:    5456311
cpu0_DTLB LOAD         ACCESS:  153341327 HIT:  147885016 MISS:    5456311
cpu0_DTLB RFO          ACCESS:          0 HIT:          0 MISS:          0
cpu0_DTLB PREFETCH     ACCESS:          0 HIT:          0 MISS:          0
cpu0_DTLB WRITE        ACCESS:          0 HIT:          0 MISS:          0
cpu0_DTLB TRANSLATION  ACCESS:          0 HIT:          0 MISS:          0
cpu0_DTLB PREFETCH REQUESTED:          0 ISSUED:          0 USEFUL:          0 USELESS:          0
cpu0_DTLB AVERAGE MISS LATENCY: 9.384 cycles
cpu0_ITLB TOTAL        ACCESS:    6412604 HIT:    6412600 MISS:          4
cpu0_ITLB LOAD         ACCESS:    6412604 HIT:    6412600 MISS:          4
cpu0_ITLB RFO          ACCESS:          0 HIT:          0 MISS:          0
cpu0_ITLB PREFETCH     ACCESS:          0 HIT:          0 MISS:          0
cpu0_ITLB WRITE        ACCESS:          0 HIT:          0 MISS:          0
cpu0_ITLB TRANSLATION  ACCESS:          0 HIT:          0 MISS:          0
cpu0_ITLB PREFETCH REQUESTED:          0 ISSUED:          0 USEFUL:          0 USELESS:          0
cpu0_ITLB AVERAGE MISS LATENCY: 308.8 cycles
cpu0_L1D TOTAL        ACCESS:  200579390 HIT:  192422467 MISS:    8156923
cpu0_L1D LOAD         ACCESS:  135858351 HIT:  130843299 MISS:    5015052
cpu0_L1D RFO          ACCESS:          0 HIT:          0 MISS:          0
cpu0_L1D PREFETCH     ACCESS:          0 HIT:          0 MISS:          0
cpu0_L1D WRITE        ACCESS:   64249770 HIT:   61535478 MISS:    2714292
cpu0_L1D TRANSLATION  ACCESS:     471269 HIT:      43690 MISS:     427579
cpu0_L1D PREFETCH REQUESTED:          0 ISSUED:          0 USEFUL:          0 USELESS:          0
cpu0_L1D AVERAGE MISS LATENCY: 55.27 cycles
cpu0_L1I TOTAL        ACCESS:    7542274 HIT:    7536641 MISS:       5633
cpu0_L1I LOAD         ACCESS:    7542274 HIT:    7536641 MISS:       5633
cpu0_L1I RFO          ACCESS:          0 HIT:          0 MISS:          0
cpu0_L1I PREFETCH     ACCESS:          0 HIT:          0 MISS:          0
cpu0_L1I WRITE        ACCESS:          0 HIT:          0 MISS:          0
cpu0_L1I TRANSLATION  ACCESS:          0 HIT:          0 MISS:          0
cpu0_L1I PREFETCH REQUESTED:          0 ISSUED:          0 USEFUL:          0 USELESS:          0
cpu0_L1I AVERAGE MISS LATENCY: 29.95 cycles
cpu0_L2C TOTAL        ACCESS:    9841135 HIT:    7782990 MISS:    2058145
cpu0_L2C LOAD         ACCESS:    3819107 HIT:    2354300 MISS:    1464807
cpu0_L2C RFO          ACCESS:    1566170 HIT:    1109884 MISS:     456286
cpu0_L2C PREFETCH     ACCESS:          0 HIT:          0 MISS:          0
cpu0_L2C WRITE        ACCESS:    4028384 HIT:    4025248 MISS:       3136
cpu0_L2C TRANSLATION  ACCESS:     427474 HIT:     293558 MISS:     133916
cpu0_L2C PREFETCH REQUESTED:          0 ISSUED:          0 USEFUL:          0 USELESS:          0
cpu0_L2C AVERAGE MISS LATENCY: 222.8 cycles
cpu0_STLB TOTAL        ACCESS:    4972173 HIT:    4500914 MISS:     471259
cpu0_STLB LOAD         ACCESS:    4972173 HIT:    4500914 MISS:     471259
cpu0_STLB RFO          ACCESS:          0 HIT:          0 MISS:          0
cpu0_STLB PREFETCH     ACCESS:          0 HIT:          0 MISS:          0
cpu0_STLB WRITE        ACCESS:          0 HIT:          0 MISS:          0
cpu0_STLB TRANSLATION  ACCESS:          0 HIT:          0 MISS:          0
cpu0_STLB PREFETCH REQUESTED:          0 ISSUED:          0 USEFUL:          0 USELESS:          0
cpu0_STLB AVERAGE MISS LATENCY: 29.87 cycles

DRAM Statistics

Channel 0 RQ ROW_BUFFER_HIT:      90337
  ROW_BUFFER_MISS:    1119669
 AVG DBUS CONGESTED CYCLE: 3.921
WQ ROW_BUFFER_HIT: Channel 0 
  ROW_BUFFER_MISS:     185503
  FULL:     707705
