WARNING: physical memory size is smaller than virtual memory size.
WARNING: option --warmup_instructions is deprecated. Use --warmup-instructions instead.
WARNING: option --simulation_instructions is deprecated. Use --simulation-instructions instead.

*** ChampSim Multicore Out-of-Order Simulator ***
Warmup Instructions: 50000000
Simulation Instructions: 150000000
Number of CPUs: 4
Page size: 4096

Off-chip DRAM Size: 4 GiB Channels: 1 Width: 64-bit Data Race: 3200 MT/s
Heartbeat CPU 1 instructions: 10000004 cycles: 2640626 heartbeat IPC: 3.787 cumulative IPC: 3.787 (Simulation time: 00 hr 02 min 33 sec)
Heartbeat CPU 3 instructions: 10000004 cycles: 2962290 heartbeat IPC: 3.376 cumulative IPC: 3.376 (Simulation time: 00 hr 02 min 50 sec)
Heartbeat CPU 2 instructions: 10000001 cycles: 4382809 heartbeat IPC: 2.282 cumulative IPC: 2.282 (Simulation time: 00 hr 04 min 13 sec)
Heartbeat CPU 0 instructions: 10000000 cycles: 4762106 heartbeat IPC: 2.1 cumulative IPC: 2.1 (Simulation time: 00 hr 04 min 37 sec)
Heartbeat CPU 1 instructions: 20000004 cycles: 5299834 heartbeat IPC: 3.761 cumulative IPC: 3.774 (Simulation time: 00 hr 05 min 10 sec)
Heartbeat CPU 3 instructions: 20000001 cycles: 5992270 heartbeat IPC: 3.3 cumulative IPC: 3.338 (Simulation time: 00 hr 05 min 52 sec)
Heartbeat CPU 1 instructions: 30000002 cycles: 7948699 heartbeat IPC: 3.775 cumulative IPC: 3.774 (Simulation time: 00 hr 07 min 56 sec)
Heartbeat CPU 2 instructions: 20000003 cycles: 8760452 heartbeat IPC: 2.284 cumulative IPC: 2.283 (Simulation time: 00 hr 08 min 45 sec)
Heartbeat CPU 3 instructions: 30000002 cycles: 8917754 heartbeat IPC: 3.418 cumulative IPC: 3.364 (Simulation time: 00 hr 08 min 54 sec)
Heartbeat CPU 0 instructions: 20000003 cycles: 9524257 heartbeat IPC: 2.1 cumulative IPC: 2.1 (Simulation time: 00 hr 09 min 30 sec)
Heartbeat CPU 1 instructions: 40000000 cycles: 10632319 heartbeat IPC: 3.726 cumulative IPC: 3.762 (Simulation time: 00 hr 10 min 42 sec)
Heartbeat CPU 3 instructions: 40000000 cycles: 11875661 heartbeat IPC: 3.381 cumulative IPC: 3.368 (Simulation time: 00 hr 11 min 55 sec)
Heartbeat CPU 2 instructions: 30000003 cycles: 13138944 heartbeat IPC: 2.284 cumulative IPC: 2.283 (Simulation time: 00 hr 13 min 13 sec)
Heartbeat CPU 1 instructions: 50000002 cycles: 13509944 heartbeat IPC: 3.475 cumulative IPC: 3.701 (Simulation time: 00 hr 13 min 38 sec)
Warmup finished CPU 1 instructions: 50000002 cycles: 13509945 cumulative IPC: 3.701 (Simulation time: 00 hr 13 min 38 sec)
Heartbeat CPU 0 instructions: 30000000 cycles: 14281103 heartbeat IPC: 2.102 cumulative IPC: 2.101 (Simulation time: 00 hr 14 min 33 sec)
Heartbeat CPU 3 instructions: 50000002 cycles: 14850646 heartbeat IPC: 3.361 cumulative IPC: 3.367 (Simulation time: 00 hr 15 min 13 sec)
Warmup finished CPU 3 instructions: 50000002 cycles: 14850647 cumulative IPC: 3.367 (Simulation time: 00 hr 15 min 13 sec)
Heartbeat CPU 1 instructions: 60000000 cycles: 16230555 heartbeat IPC: 3.676 cumulative IPC: 3.697 (Simulation time: 00 hr 16 min 46 sec)
Heartbeat CPU 2 instructions: 40000002 cycles: 17518148 heartbeat IPC: 2.284 cumulative IPC: 2.283 (Simulation time: 00 hr 18 min 12 sec)
Heartbeat CPU 3 instructions: 60000003 cycles: 17790101 heartbeat IPC: 3.402 cumulative IPC: 3.373 (Simulation time: 00 hr 18 min 31 sec)
Heartbeat CPU 0 instructions: 40000002 cycles: 19041336 heartbeat IPC: 2.101 cumulative IPC: 2.101 (Simulation time: 00 hr 19 min 45 sec)
Heartbeat CPU 1 instructions: 70000000 cycles: 19095416 heartbeat IPC: 3.491 cumulative IPC: 3.666 (Simulation time: 00 hr 19 min 48 sec)
Heartbeat CPU 3 instructions: 70000002 cycles: 20742604 heartbeat IPC: 3.387 cumulative IPC: 3.375 (Simulation time: 00 hr 21 min 29 sec)
Heartbeat CPU 1 instructions: 80000003 cycles: 21848218 heartbeat IPC: 3.633 cumulative IPC: 3.662 (Simulation time: 00 hr 22 min 34 sec)
Heartbeat CPU 2 instructions: 50000002 cycles: 22025201 heartbeat IPC: 2.219 cumulative IPC: 2.27 (Simulation time: 00 hr 22 min 44 sec)
Warmup finished CPU 2 instructions: 50000002 cycles: 22025202 cumulative IPC: 2.27 (Simulation time: 00 hr 22 min 44 sec)
Heartbeat CPU 3 instructions: 80000001 cycles: 23699147 heartbeat IPC: 3.382 cumulative IPC: 3.376 (Simulation time: 00 hr 24 min 26 sec)
Heartbeat CPU 0 instructions: 50000000 cycles: 23927758 heartbeat IPC: 2.046 cumulative IPC: 2.09 (Simulation time: 00 hr 24 min 43 sec)
Warmup finished CPU 0 instructions: 50000000 cycles: 23927759 cumulative IPC: 2.09 (Simulation time: 00 hr 24 min 43 sec)
Warmup complete CPU 0 instructions: 50000000 cycles: 23927759 cumulative IPC: 2.09 (Simulation time: 00 hr 24 min 43 sec)
Warmup complete CPU 1 instructions: 87722701 cycles: 23927759 cumulative IPC: 3.666 (Simulation time: 00 hr 24 min 43 sec)
Warmup complete CPU 2 instructions: 54382927 cycles: 23927759 cumulative IPC: 2.273 (Simulation time: 00 hr 24 min 43 sec)
Warmup complete CPU 3 instructions: 80804541 cycles: 23927759 cumulative IPC: 3.377 (Simulation time: 00 hr 24 min 43 sec)
Heartbeat CPU 1 instructions: 90000001 cycles: 33198583 heartbeat IPC: 0.881 cumulative IPC: 0.2456 (Simulation time: 00 hr 28 min 05 sec)
Heartbeat CPU 2 instructions: 60000001 cycles: 72350573 heartbeat IPC: 0.1987 cumulative IPC: 0.116 (Simulation time: 00 hr 42 min 39 sec)
Heartbeat CPU 0 instructions: 60000001 cycles: 101413028 heartbeat IPC: 0.1291 cumulative IPC: 0.1291 (Simulation time: 00 hr 54 min 03 sec)
Heartbeat CPU 2 instructions: 70000002 cycles: 102943174 heartbeat IPC: 0.3269 cumulative IPC: 0.1976 (Simulation time: 00 hr 54 min 41 sec)
Heartbeat CPU 1 instructions: 100000003 cycles: 104133445 heartbeat IPC: 0.141 cumulative IPC: 0.1531 (Simulation time: 00 hr 55 min 09 sec)
Heartbeat CPU 0 instructions: 70000002 cycles: 124920637 heartbeat IPC: 0.4254 cumulative IPC: 0.198 (Simulation time: 01 hr 03 min 31 sec)
Heartbeat CPU 2 instructions: 80000001 cycles: 126325160 heartbeat IPC: 0.4277 cumulative IPC: 0.2502 (Simulation time: 01 hr 04 min 06 sec)
Heartbeat CPU 0 instructions: 80000004 cycles: 148629340 heartbeat IPC: 0.4218 cumulative IPC: 0.2406 (Simulation time: 01 hr 13 min 17 sec)
Heartbeat CPU 2 instructions: 90000002 cycles: 150201827 heartbeat IPC: 0.4188 cumulative IPC: 0.2821 (Simulation time: 01 hr 13 min 54 sec)
Heartbeat CPU 0 instructions: 90000004 cycles: 179317626 heartbeat IPC: 0.3259 cumulative IPC: 0.2574 (Simulation time: 01 hr 24 min 49 sec)
Heartbeat CPU 2 instructions: 100000001 cycles: 180887953 heartbeat IPC: 0.3259 cumulative IPC: 0.2906 (Simulation time: 01 hr 25 min 23 sec)
Heartbeat CPU 3 instructions: 90000002 cycles: 200372668 heartbeat IPC: 0.0566 cumulative IPC: 0.05212 (Simulation time: 01 hr 32 min 55 sec)
Heartbeat CPU 0 instructions: 100000000 cycles: 205116218 heartbeat IPC: 0.3876 cumulative IPC: 0.276 (Simulation time: 01 hr 34 min 49 sec)
Heartbeat CPU 2 instructions: 110000002 cycles: 206737219 heartbeat IPC: 0.3869 cumulative IPC: 0.3042 (Simulation time: 01 hr 35 min 27 sec)
Heartbeat CPU 0 instructions: 110000003 cycles: 230276150 heartbeat IPC: 0.3975 cumulative IPC: 0.2908 (Simulation time: 01 hr 44 min 52 sec)
Heartbeat CPU 1 instructions: 110000000 cycles: 230309261 heartbeat IPC: 0.07925 cumulative IPC: 0.1079 (Simulation time: 01 hr 44 min 53 sec)
Heartbeat CPU 2 instructions: 120000003 cycles: 231392990 heartbeat IPC: 0.4056 cumulative IPC: 0.3163 (Simulation time: 01 hr 45 min 20 sec)
Heartbeat CPU 0 instructions: 120000002 cycles: 253047241 heartbeat IPC: 0.4392 cumulative IPC: 0.3055 (Simulation time: 01 hr 54 min 18 sec)
Heartbeat CPU 2 instructions: 130000001 cycles: 254315594 heartbeat IPC: 0.4363 cumulative IPC: 0.3282 (Simulation time: 01 hr 54 min 47 sec)
Heartbeat CPU 0 instructions: 130000001 cycles: 284029714 heartbeat IPC: 0.3228 cumulative IPC: 0.3076 (Simulation time: 02 hr 06 min 19 sec)
Heartbeat CPU 2 instructions: 140000002 cycles: 285254518 heartbeat IPC: 0.3232 cumulative IPC: 0.3276 (Simulation time: 02 hr 06 min 49 sec)
Heartbeat CPU 0 instructions: 140000002 cycles: 320277454 heartbeat IPC: 0.2759 cumulative IPC: 0.3037 (Simulation time: 02 hr 20 min 26 sec)
Heartbeat CPU 2 instructions: 150000001 cycles: 321500549 heartbeat IPC: 0.2759 cumulative IPC: 0.3213 (Simulation time: 02 hr 20 min 54 sec)
Heartbeat CPU 1 instructions: 120000004 cycles: 324638134 heartbeat IPC: 0.106 cumulative IPC: 0.1073 (Simulation time: 02 hr 22 min 16 sec)
Heartbeat CPU 0 instructions: 150000001 cycles: 345574718 heartbeat IPC: 0.3953 cumulative IPC: 0.3109 (Simulation time: 02 hr 30 min 37 sec)
Heartbeat CPU 2 instructions: 160000004 cycles: 346026941 heartbeat IPC: 0.4077 cumulative IPC: 0.3279 (Simulation time: 02 hr 30 min 48 sec)
Heartbeat CPU 0 instructions: 160000000 cycles: 370611927 heartbeat IPC: 0.3994 cumulative IPC: 0.3173 (Simulation time: 02 hr 40 min 29 sec)
Heartbeat CPU 2 instructions: 170000000 cycles: 371059792 heartbeat IPC: 0.3995 cumulative IPC: 0.3331 (Simulation time: 02 hr 40 min 41 sec)
Heartbeat CPU 3 instructions: 100000000 cycles: 374909205 heartbeat IPC: 0.05729 cumulative IPC: 0.05469 (Simulation time: 02 hr 42 min 19 sec)
Heartbeat CPU 1 instructions: 130000001 cycles: 376200415 heartbeat IPC: 0.1939 cumulative IPC: 0.12 (Simulation time: 02 hr 42 min 53 sec)
Heartbeat CPU 0 instructions: 170000000 cycles: 392216266 heartbeat IPC: 0.4629 cumulative IPC: 0.3258 (Simulation time: 02 hr 49 min 26 sec)
Heartbeat CPU 2 instructions: 180000002 cycles: 392818312 heartbeat IPC: 0.4596 cumulative IPC: 0.3405 (Simulation time: 02 hr 49 min 42 sec)
Heartbeat CPU 0 instructions: 180000000 cycles: 417322078 heartbeat IPC: 0.3983 cumulative IPC: 0.3305 (Simulation time: 02 hr 59 min 48 sec)
Heartbeat CPU 2 instructions: 190000004 cycles: 418813376 heartbeat IPC: 0.3847 cumulative IPC: 0.3434 (Simulation time: 03 hr 00 min 27 sec)
Heartbeat CPU 0 instructions: 190000004 cycles: 452884139 heartbeat IPC: 0.2812 cumulative IPC: 0.3264 (Simulation time: 03 hr 13 min 37 sec)
Heartbeat CPU 2 instructions: 200000002 cycles: 453831180 heartbeat IPC: 0.2856 cumulative IPC: 0.3387 (Simulation time: 03 hr 13 min 57 sec)
Simulation finished CPU 2 instructions: 150000004 cycles: 440632362 cumulative IPC: 0.3404 (Simulation time: 03 hr 17 min 54 sec)
Heartbeat CPU 2 instructions: 210000002 cycles: 476119164 heartbeat IPC: 0.4487 cumulative IPC: 0.3441 (Simulation time: 03 hr 22 min 21 sec)
Heartbeat CPU 0 instructions: 200000002 cycles: 476197514 heartbeat IPC: 0.4289 cumulative IPC: 0.3317 (Simulation time: 03 hr 22 min 23 sec)
Simulation finished CPU 0 instructions: 150000002 cycles: 452269756 cumulative IPC: 0.3317 (Simulation time: 03 hr 22 min 23 sec)
Heartbeat CPU 1 instructions: 140000001 cycles: 491015666 heartbeat IPC: 0.0871 cumulative IPC: 0.1119 (Simulation time: 03 hr 28 min 12 sec)
Heartbeat CPU 2 instructions: 220000000 cycles: 495975857 heartbeat IPC: 0.5036 cumulative IPC: 0.3508 (Simulation time: 03 hr 30 min 17 sec)
Heartbeat CPU 0 instructions: 210000002 cycles: 496374915 heartbeat IPC: 0.4956 cumulative IPC: 0.3387 (Simulation time: 03 hr 30 min 26 sec)
Heartbeat CPU 2 instructions: 230000002 cycles: 515939047 heartbeat IPC: 0.5009 cumulative IPC: 0.3569 (Simulation time: 03 hr 38 min 05 sec)
Heartbeat CPU 0 instructions: 220000001 cycles: 516075252 heartbeat IPC: 0.5076 cumulative IPC: 0.3454 (Simulation time: 03 hr 38 min 09 sec)
Heartbeat CPU 3 instructions: 110000004 cycles: 537110977 heartbeat IPC: 0.06165 cumulative IPC: 0.05689 (Simulation time: 03 hr 46 min 29 sec)
Heartbeat CPU 2 instructions: 240000000 cycles: 541241657 heartbeat IPC: 0.3952 cumulative IPC: 0.3588 (Simulation time: 03 hr 48 min 11 sec)
Heartbeat CPU 0 instructions: 230000002 cycles: 541346552 heartbeat IPC: 0.3957 cumulative IPC: 0.3479 (Simulation time: 03 hr 48 min 13 sec)
Heartbeat CPU 2 instructions: 250000001 cycles: 568860227 heartbeat IPC: 0.3621 cumulative IPC: 0.359 (Simulation time: 03 hr 58 min 43 sec)
Heartbeat CPU 0 instructions: 240000000 cycles: 569200659 heartbeat IPC: 0.359 cumulative IPC: 0.3484 (Simulation time: 03 hr 58 min 53 sec)
Heartbeat CPU 2 instructions: 260000003 cycles: 589904257 heartbeat IPC: 0.4752 cumulative IPC: 0.3633 (Simulation time: 04 hr 06 min 50 sec)
Heartbeat CPU 0 instructions: 250000004 cycles: 590106026 heartbeat IPC: 0.4783 cumulative IPC: 0.3532 (Simulation time: 04 hr 06 min 55 sec)
Heartbeat CPU 2 instructions: 270000001 cycles: 611542492 heartbeat IPC: 0.4621 cumulative IPC: 0.3669 (Simulation time: 04 hr 15 min 22 sec)
Heartbeat CPU 0 instructions: 260000001 cycles: 611649696 heartbeat IPC: 0.4642 cumulative IPC: 0.3573 (Simulation time: 04 hr 15 min 25 sec)
Heartbeat CPU 2 instructions: 280000002 cycles: 636420980 heartbeat IPC: 0.402 cumulative IPC: 0.3684 (Simulation time: 04 hr 25 min 19 sec)
Heartbeat CPU 0 instructions: 270000001 cycles: 638181153 heartbeat IPC: 0.3769 cumulative IPC: 0.3582 (Simulation time: 04 hr 26 min 02 sec)
Heartbeat CPU 2 instructions: 290000004 cycles: 665804998 heartbeat IPC: 0.3403 cumulative IPC: 0.3671 (Simulation time: 04 hr 37 min 12 sec)
Heartbeat CPU 0 instructions: 280000000 cycles: 667096929 heartbeat IPC: 0.3458 cumulative IPC: 0.3576 (Simulation time: 04 hr 37 min 45 sec)
Heartbeat CPU 1 instructions: 150000002 cycles: 675405729 heartbeat IPC: 0.05423 cumulative IPC: 0.09559 (Simulation time: 04 hr 41 min 11 sec)
Heartbeat CPU 2 instructions: 300000003 cycles: 688034858 heartbeat IPC: 0.4498 cumulative IPC: 0.3698 (Simulation time: 04 hr 46 min 16 sec)
Heartbeat CPU 0 instructions: 290000000 cycles: 688727908 heartbeat IPC: 0.4623 cumulative IPC: 0.361 (Simulation time: 04 hr 46 min 34 sec)
Heartbeat CPU 3 instructions: 120000002 cycles: 706110186 heartbeat IPC: 0.05917 cumulative IPC: 0.05746 (Simulation time: 04 hr 53 min 56 sec)
Heartbeat CPU 2 instructions: 310000004 cycles: 707131189 heartbeat IPC: 0.5237 cumulative IPC: 0.3741 (Simulation time: 04 hr 54 min 20 sec)
Heartbeat CPU 0 instructions: 300000003 cycles: 708075092 heartbeat IPC: 0.5169 cumulative IPC: 0.3654 (Simulation time: 04 hr 54 min 42 sec)
Heartbeat CPU 1 instructions: 160000003 cycles: 715227781 heartbeat IPC: 0.2511 cumulative IPC: 0.1046 (Simulation time: 04 hr 57 min 34 sec)
Heartbeat CPU 0 instructions: 310000004 cycles: 727284470 heartbeat IPC: 0.5206 cumulative IPC: 0.3697 (Simulation time: 05 hr 02 min 40 sec)
Heartbeat CPU 2 instructions: 320000000 cycles: 729858741 heartbeat IPC: 0.44 cumulative IPC: 0.3763 (Simulation time: 05 hr 03 min 45 sec)
Heartbeat CPU 1 instructions: 170000000 cycles: 731913785 heartbeat IPC: 0.5993 cumulative IPC: 0.1162 (Simulation time: 05 hr 04 min 46 sec)
Heartbeat CPU 0 instructions: 320000000 cycles: 752439064 heartbeat IPC: 0.3975 cumulative IPC: 0.3706 (Simulation time: 05 hr 13 min 01 sec)
Heartbeat CPU 2 instructions: 330000001 cycles: 752460807 heartbeat IPC: 0.4424 cumulative IPC: 0.3783 (Simulation time: 05 hr 13 min 01 sec)
Heartbeat CPU 2 instructions: 340000002 cycles: 773965741 heartbeat IPC: 0.465 cumulative IPC: 0.3808 (Simulation time: 05 hr 21 min 20 sec)
Heartbeat CPU 0 instructions: 330000001 cycles: 774292554 heartbeat IPC: 0.4576 cumulative IPC: 0.3732 (Simulation time: 05 hr 21 min 27 sec)
Heartbeat CPU 2 instructions: 350000003 cycles: 801079979 heartbeat IPC: 0.3688 cumulative IPC: 0.3804 (Simulation time: 05 hr 31 min 46 sec)
Heartbeat CPU 0 instructions: 340000004 cycles: 801325151 heartbeat IPC: 0.3699 cumulative IPC: 0.373 (Simulation time: 05 hr 31 min 51 sec)
Heartbeat CPU 2 instructions: 360000002 cycles: 826148853 heartbeat IPC: 0.3989 cumulative IPC: 0.381 (Simulation time: 05 hr 41 min 39 sec)
Heartbeat CPU 0 instructions: 350000003 cycles: 826243388 heartbeat IPC: 0.4013 cumulative IPC: 0.3739 (Simulation time: 05 hr 41 min 41 sec)
Heartbeat CPU 0 instructions: 360000002 cycles: 852934439 heartbeat IPC: 0.3747 cumulative IPC: 0.3739 (Simulation time: 05 hr 51 min 55 sec)
Heartbeat CPU 2 instructions: 370000002 cycles: 852985847 heartbeat IPC: 0.3726 cumulative IPC: 0.3807 (Simulation time: 05 hr 51 min 57 sec)
Heartbeat CPU 3 instructions: 130000000 cycles: 854369310 heartbeat IPC: 0.06745 cumulative IPC: 0.05924 (Simulation time: 05 hr 52 min 32 sec)
Heartbeat CPU 0 instructions: 370000002 cycles: 872745782 heartbeat IPC: 0.5048 cumulative IPC: 0.377 (Simulation time: 05 hr 59 min 52 sec)
Heartbeat CPU 2 instructions: 380000002 cycles: 872816656 heartbeat IPC: 0.5043 cumulative IPC: 0.3836 (Simulation time: 05 hr 59 min 53 sec)
Heartbeat CPU 0 instructions: 380000004 cycles: 893674356 heartbeat IPC: 0.4778 cumulative IPC: 0.3794 (Simulation time: 06 hr 08 min 15 sec)
Heartbeat CPU 2 instructions: 390000003 cycles: 893730458 heartbeat IPC: 0.4782 cumulative IPC: 0.3859 (Simulation time: 06 hr 08 min 17 sec)
Heartbeat CPU 0 instructions: 390000002 cycles: 916363489 heartbeat IPC: 0.4407 cumulative IPC: 0.381 (Simulation time: 06 hr 17 min 10 sec)
Heartbeat CPU 2 instructions: 400000004 cycles: 916378124 heartbeat IPC: 0.4415 cumulative IPC: 0.3873 (Simulation time: 06 hr 17 min 10 sec)
Heartbeat CPU 2 instructions: 410000000 cycles: 942709765 heartbeat IPC: 0.3798 cumulative IPC: 0.3871 (Simulation time: 06 hr 27 min 47 sec)
Heartbeat CPU 0 instructions: 400000003 cycles: 943289728 heartbeat IPC: 0.3714 cumulative IPC: 0.3807 (Simulation time: 06 hr 28 min 01 sec)
Heartbeat CPU 1 instructions: 180000002 cycles: 943880656 heartbeat IPC: 0.04718 cumulative IPC: 0.1003 (Simulation time: 06 hr 28 min 18 sec)
Heartbeat CPU 2 instructions: 420000000 cycles: 963384140 heartbeat IPC: 0.4837 cumulative IPC: 0.3892 (Simulation time: 06 hr 36 min 28 sec)
Heartbeat CPU 0 instructions: 410000002 cycles: 964064972 heartbeat IPC: 0.4813 cumulative IPC: 0.3829 (Simulation time: 06 hr 36 min 45 sec)
Heartbeat CPU 1 instructions: 190000001 cycles: 965568065 heartbeat IPC: 0.4611 cumulative IPC: 0.1086 (Simulation time: 06 hr 37 min 27 sec)
Heartbeat CPU 2 instructions: 430000000 cycles: 981075944 heartbeat IPC: 0.5652 cumulative IPC: 0.3924 (Simulation time: 06 hr 44 min 09 sec)
Heartbeat CPU 0 instructions: 420000000 cycles: 981432635 heartbeat IPC: 0.5758 cumulative IPC: 0.3864 (Simulation time: 06 hr 44 min 17 sec)
Heartbeat CPU 2 instructions: 440000001 cycles: 999880351 heartbeat IPC: 0.5318 cumulative IPC: 0.3951 (Simulation time: 06 hr 51 min 51 sec)
Heartbeat CPU 0 instructions: 430000004 cycles: 1000302011 heartbeat IPC: 0.53 cumulative IPC: 0.3892 (Simulation time: 06 hr 52 min 00 sec)
Heartbeat CPU 1 instructions: 200000004 cycles: 1003203676 heartbeat IPC: 0.2657 cumulative IPC: 0.1147 (Simulation time: 06 hr 53 min 07 sec)
Heartbeat CPU 0 instructions: 440000000 cycles: 1020163246 heartbeat IPC: 0.5035 cumulative IPC: 0.3915 (Simulation time: 07 hr 00 min 01 sec)
Heartbeat CPU 2 instructions: 450000002 cycles: 1023934056 heartbeat IPC: 0.4157 cumulative IPC: 0.3956 (Simulation time: 07 hr 01 min 32 sec)
Heartbeat CPU 3 instructions: 140000004 cycles: 1029743324 heartbeat IPC: 0.05702 cumulative IPC: 0.05885 (Simulation time: 07 hr 03 min 52 sec)
Heartbeat CPU 0 instructions: 450000002 cycles: 1049893317 heartbeat IPC: 0.3364 cumulative IPC: 0.3899 (Simulation time: 07 hr 11 min 46 sec)
Heartbeat CPU 2 instructions: 460000000 cycles: 1051745725 heartbeat IPC: 0.3596 cumulative IPC: 0.3946 (Simulation time: 07 hr 12 min 27 sec)
Heartbeat CPU 0 instructions: 460000002 cycles: 1073903067 heartbeat IPC: 0.4165 cumulative IPC: 0.3905 (Simulation time: 07 hr 21 min 28 sec)
Heartbeat CPU 2 instructions: 470000000 cycles: 1075844661 heartbeat IPC: 0.415 cumulative IPC: 0.3951 (Simulation time: 07 hr 22 min 14 sec)
Heartbeat CPU 1 instructions: 210000000 cycles: 1089898469 heartbeat IPC: 0.1153 cumulative IPC: 0.1147 (Simulation time: 07 hr 28 min 30 sec)
Heartbeat CPU 0 instructions: 470000004 cycles: 1094359555 heartbeat IPC: 0.4888 cumulative IPC: 0.3924 (Simulation time: 07 hr 30 min 21 sec)
Heartbeat CPU 2 instructions: 480000002 cycles: 1096105401 heartbeat IPC: 0.4936 cumulative IPC: 0.397 (Simulation time: 07 hr 31 min 04 sec)
Heartbeat CPU 0 instructions: 480000001 cycles: 1115927921 heartbeat IPC: 0.4636 cumulative IPC: 0.3938 (Simulation time: 07 hr 38 min 55 sec)
Heartbeat CPU 2 instructions: 490000002 cycles: 1117911206 heartbeat IPC: 0.4586 cumulative IPC: 0.3982 (Simulation time: 07 hr 39 min 41 sec)
Heartbeat CPU 0 instructions: 490000002 cycles: 1145127605 heartbeat IPC: 0.3425 cumulative IPC: 0.3924 (Simulation time: 07 hr 50 min 39 sec)
Heartbeat CPU 2 instructions: 500000000 cycles: 1147215957 heartbeat IPC: 0.3412 cumulative IPC: 0.3967 (Simulation time: 07 hr 51 min 27 sec)
Heartbeat CPU 0 instructions: 500000001 cycles: 1166900329 heartbeat IPC: 0.4593 cumulative IPC: 0.3937 (Simulation time: 07 hr 59 min 03 sec)
Heartbeat CPU 2 instructions: 510000001 cycles: 1169824746 heartbeat IPC: 0.4423 cumulative IPC: 0.3976 (Simulation time: 08 hr 00 min 15 sec)
Heartbeat CPU 0 instructions: 510000001 cycles: 1196632954 heartbeat IPC: 0.3363 cumulative IPC: 0.3923 (Simulation time: 08 hr 10 min 54 sec)
Heartbeat CPU 2 instructions: 520000000 cycles: 1198602654 heartbeat IPC: 0.3475 cumulative IPC: 0.3964 (Simulation time: 08 hr 11 min 39 sec)
Heartbeat CPU 3 instructions: 150000002 cycles: 1199465803 heartbeat IPC: 0.05892 cumulative IPC: 0.05886 (Simulation time: 08 hr 12 min 00 sec)
Heartbeat CPU 0 instructions: 520000000 cycles: 1217659431 heartbeat IPC: 0.4756 cumulative IPC: 0.3937 (Simulation time: 08 hr 19 min 15 sec)
Heartbeat CPU 2 instructions: 530000001 cycles: 1219582958 heartbeat IPC: 0.4766 cumulative IPC: 0.3978 (Simulation time: 08 hr 19 min 59 sec)
Heartbeat CPU 0 instructions: 530000001 cycles: 1238556441 heartbeat IPC: 0.4785 cumulative IPC: 0.3952 (Simulation time: 08 hr 27 min 29 sec)
Heartbeat CPU 2 instructions: 540000003 cycles: 1240603514 heartbeat IPC: 0.4757 cumulative IPC: 0.3991 (Simulation time: 08 hr 28 min 18 sec)
Heartbeat CPU 1 instructions: 220000001 cycles: 1243768504 heartbeat IPC: 0.06499 cumulative IPC: 0.1084 (Simulation time: 08 hr 29 min 39 sec)
Heartbeat CPU 0 instructions: 540000003 cycles: 1271347878 heartbeat IPC: 0.305 cumulative IPC: 0.3928 (Simulation time: 08 hr 40 min 47 sec)
Heartbeat CPU 2 instructions: 550000001 cycles: 1275174353 heartbeat IPC: 0.2893 cumulative IPC: 0.3961 (Simulation time: 08 hr 42 min 11 sec)
Heartbeat CPU 0 instructions: 550000001 cycles: 1294266105 heartbeat IPC: 0.4363 cumulative IPC: 0.3936 (Simulation time: 08 hr 49 min 47 sec)
Heartbeat CPU 2 instructions: 560000003 cycles: 1295592060 heartbeat IPC: 0.4898 cumulative IPC: 0.3976 (Simulation time: 08 hr 50 min 21 sec)
Heartbeat CPU 1 instructions: 230000001 cycles: 1304932102 heartbeat IPC: 0.1635 cumulative IPC: 0.1111 (Simulation time: 08 hr 54 min 24 sec)
Heartbeat CPU 0 instructions: 560000000 cycles: 1314237058 heartbeat IPC: 0.5007 cumulative IPC: 0.3953 (Simulation time: 08 hr 58 min 06 sec)
Heartbeat CPU 2 instructions: 570000002 cycles: 1315710023 heartbeat IPC: 0.4971 cumulative IPC: 0.3992 (Simulation time: 08 hr 58 min 42 sec)
Heartbeat CPU 0 instructions: 570000002 cycles: 1341683116 heartbeat IPC: 0.3644 cumulative IPC: 0.3946 (Simulation time: 09 hr 09 min 35 sec)
Heartbeat CPU 2 instructions: 580000002 cycles: 1343244911 heartbeat IPC: 0.3632 cumulative IPC: 0.3984 (Simulation time: 09 hr 10 min 14 sec)
Simulation finished CPU 1 instructions: 150000000 cycles: 1327240985 cumulative IPC: 0.113 (Simulation time: 09 hr 13 min 28 sec)
Heartbeat CPU 0 instructions: 580000002 cycles: 1364309850 heartbeat IPC: 0.442 cumulative IPC: 0.3954 (Simulation time: 09 hr 18 min 43 sec)
Heartbeat CPU 3 instructions: 160000001 cycles: 1366940267 heartbeat IPC: 0.05971 cumulative IPC: 0.05897 (Simulation time: 09 hr 19 min 45 sec)
Heartbeat CPU 2 instructions: 590000003 cycles: 1367815181 heartbeat IPC: 0.407 cumulative IPC: 0.3986 (Simulation time: 09 hr 20 min 08 sec)
Heartbeat CPU 1 instructions: 240000004 cycles: 1376677393 heartbeat IPC: 0.1394 cumulative IPC: 0.1126 (Simulation time: 09 hr 23 min 36 sec)
Heartbeat CPU 0 instructions: 590000003 cycles: 1390407379 heartbeat IPC: 0.3832 cumulative IPC: 0.3952 (Simulation time: 09 hr 29 min 15 sec)
Heartbeat CPU 2 instructions: 600000002 cycles: 1391740349 heartbeat IPC: 0.418 cumulative IPC: 0.3989 (Simulation time: 09 hr 29 min 48 sec)
Heartbeat CPU 1 instructions: 250000004 cycles: 1399800986 heartbeat IPC: 0.4325 cumulative IPC: 0.1179 (Simulation time: 09 hr 33 min 15 sec)
Heartbeat CPU 0 instructions: 600000002 cycles: 1415599038 heartbeat IPC: 0.397 cumulative IPC: 0.3952 (Simulation time: 09 hr 39 min 27 sec)
Heartbeat CPU 2 instructions: 610000003 cycles: 1417298977 heartbeat IPC: 0.3913 cumulative IPC: 0.3988 (Simulation time: 09 hr 40 min 03 sec)
Heartbeat CPU 0 instructions: 610000003 cycles: 1437803442 heartbeat IPC: 0.4504 cumulative IPC: 0.3961 (Simulation time: 09 hr 47 min 53 sec)
Heartbeat CPU 2 instructions: 620000000 cycles: 1439050634 heartbeat IPC: 0.4597 cumulative IPC: 0.3997 (Simulation time: 09 hr 48 min 21 sec)
Heartbeat CPU 0 instructions: 620000000 cycles: 1458059034 heartbeat IPC: 0.4937 cumulative IPC: 0.3975 (Simulation time: 09 hr 55 min 56 sec)
Heartbeat CPU 2 instructions: 630000002 cycles: 1459231654 heartbeat IPC: 0.4955 cumulative IPC: 0.401 (Simulation time: 09 hr 56 min 25 sec)
Heartbeat CPU 0 instructions: 630000000 cycles: 1483947081 heartbeat IPC: 0.3863 cumulative IPC: 0.3973 (Simulation time: 10 hr 06 min 33 sec)
Heartbeat CPU 2 instructions: 640000002 cycles: 1485009251 heartbeat IPC: 0.3879 cumulative IPC: 0.4008 (Simulation time: 10 hr 06 min 58 sec)
Heartbeat CPU 0 instructions: 640000002 cycles: 1505755557 heartbeat IPC: 0.4585 cumulative IPC: 0.3982 (Simulation time: 10 hr 15 min 14 sec)
Heartbeat CPU 2 instructions: 650000004 cycles: 1506411161 heartbeat IPC: 0.4672 cumulative IPC: 0.4018 (Simulation time: 10 hr 15 min 30 sec)
Heartbeat CPU 2 instructions: 660000001 cycles: 1522323019 heartbeat IPC: 0.6285 cumulative IPC: 0.4042 (Simulation time: 10 hr 21 min 47 sec)
Heartbeat CPU 0 instructions: 650000001 cycles: 1527894014 heartbeat IPC: 0.4517 cumulative IPC: 0.3989 (Simulation time: 10 hr 23 min 56 sec)
Heartbeat CPU 3 instructions: 170000002 cycles: 1538669667 heartbeat IPC: 0.05823 cumulative IPC: 0.05888 (Simulation time: 10 hr 27 min 57 sec)
Heartbeat CPU 2 instructions: 670000003 cycles: 1539893958 heartbeat IPC: 0.5691 cumulative IPC: 0.4061 (Simulation time: 10 hr 28 min 28 sec)
Heartbeat CPU 2 instructions: 680000000 cycles: 1558923028 heartbeat IPC: 0.5255 cumulative IPC: 0.4076 (Simulation time: 10 hr 36 min 07 sec)
Heartbeat CPU 0 instructions: 660000001 cycles: 1560185164 heartbeat IPC: 0.3097 cumulative IPC: 0.3971 (Simulation time: 10 hr 36 min 43 sec)
Heartbeat CPU 2 instructions: 690000002 cycles: 1566930901 heartbeat IPC: 1.249 cumulative IPC: 0.4119 (Simulation time: 10 hr 39 min 23 sec)
Heartbeat CPU 0 instructions: 670000000 cycles: 1575891198 heartbeat IPC: 0.6367 cumulative IPC: 0.3995 (Simulation time: 10 hr 42 min 51 sec)
Heartbeat CPU 2 instructions: 700000000 cycles: 1578340781 heartbeat IPC: 0.8764 cumulative IPC: 0.4153 (Simulation time: 10 hr 43 min 46 sec)
Heartbeat CPU 0 instructions: 680000000 cycles: 1589930459 heartbeat IPC: 0.7123 cumulative IPC: 0.4023 (Simulation time: 10 hr 48 min 15 sec)
Heartbeat CPU 0 instructions: 690000002 cycles: 1596568698 heartbeat IPC: 1.506 cumulative IPC: 0.407 (Simulation time: 10 hr 51 min 04 sec)
Heartbeat CPU 0 instructions: 700000000 cycles: 1602256027 heartbeat IPC: 1.758 cumulative IPC: 0.4118 (Simulation time: 10 hr 53 min 32 sec)
Heartbeat CPU 2 instructions: 710000003 cycles: 1602959159 heartbeat IPC: 0.4062 cumulative IPC: 0.4152 (Simulation time: 10 hr 53 min 56 sec)
Heartbeat CPU 0 instructions: 710000003 cycles: 1628734825 heartbeat IPC: 0.3777 cumulative IPC: 0.4113 (Simulation time: 11 hr 03 min 58 sec)
Heartbeat CPU 1 instructions: 260000000 cycles: 1639420714 heartbeat IPC: 0.04173 cumulative IPC: 0.1066 (Simulation time: 11 hr 08 min 14 sec)
Heartbeat CPU 2 instructions: 720000002 cycles: 1642687512 heartbeat IPC: 0.2517 cumulative IPC: 0.4112 (Simulation time: 11 hr 09 min 34 sec)
Heartbeat CPU 0 instructions: 720000002 cycles: 1657772577 heartbeat IPC: 0.3444 cumulative IPC: 0.4101 (Simulation time: 11 hr 15 min 41 sec)
Heartbeat CPU 2 instructions: 730000004 cycles: 1671499379 heartbeat IPC: 0.3471 cumulative IPC: 0.4101 (Simulation time: 11 hr 21 min 18 sec)
Heartbeat CPU 3 instructions: 180000000 cycles: 1679730577 heartbeat IPC: 0.07089 cumulative IPC: 0.05991 (Simulation time: 11 hr 24 min 49 sec)
Heartbeat CPU 2 instructions: 740000004 cycles: 1687601287 heartbeat IPC: 0.621 cumulative IPC: 0.4121 (Simulation time: 11 hr 28 min 08 sec)
Heartbeat CPU 0 instructions: 730000004 cycles: 1691394838 heartbeat IPC: 0.2974 cumulative IPC: 0.4078 (Simulation time: 11 hr 29 min 43 sec)
Heartbeat CPU 2 instructions: 750000002 cycles: 1699394142 heartbeat IPC: 0.848 cumulative IPC: 0.4152 (Simulation time: 11 hr 33 min 59 sec)
Heartbeat CPU 0 instructions: 740000004 cycles: 1702517809 heartbeat IPC: 0.899 cumulative IPC: 0.4111 (Simulation time: 11 hr 35 min 46 sec)
Heartbeat CPU 2 instructions: 760000000 cycles: 1708169347 heartbeat IPC: 1.14 cumulative IPC: 0.419 (Simulation time: 11 hr 38 min 43 sec)
Heartbeat CPU 0 instructions: 750000002 cycles: 1711873725 heartbeat IPC: 1.069 cumulative IPC: 0.4147 (Simulation time: 11 hr 40 min 39 sec)
Heartbeat CPU 2 instructions: 770000002 cycles: 1716274252 heartbeat IPC: 1.234 cumulative IPC: 0.4229 (Simulation time: 11 hr 42 min 59 sec)
Heartbeat CPU 0 instructions: 760000000 cycles: 1720347246 heartbeat IPC: 1.18 cumulative IPC: 0.4185 (Simulation time: 11 hr 45 min 09 sec)
Heartbeat CPU 2 instructions: 780000000 cycles: 1724353875 heartbeat IPC: 1.238 cumulative IPC: 0.4267 (Simulation time: 11 hr 47 min 17 sec)
Heartbeat CPU 0 instructions: 770000003 cycles: 1728256677 heartbeat IPC: 1.264 cumulative IPC: 0.4225 (Simulation time: 11 hr 49 min 20 sec)
Heartbeat CPU 0 instructions: 780000000 cycles: 1742271126 heartbeat IPC: 0.7135 cumulative IPC: 0.4248 (Simulation time: 11 hr 55 min 23 sec)
Heartbeat CPU 2 instructions: 790000001 cycles: 1746454851 heartbeat IPC: 0.4525 cumulative IPC: 0.4271 (Simulation time: 11 hr 57 min 10 sec)
Heartbeat CPU 0 instructions: 790000001 cycles: 1761101128 heartbeat IPC: 0.5311 cumulative IPC: 0.426 (Simulation time: 12 hr 03 min 03 sec)
Heartbeat CPU 2 instructions: 800000001 cycles: 1774159480 heartbeat IPC: 0.361 cumulative IPC: 0.426 (Simulation time: 12 hr 08 min 18 sec)
Heartbeat CPU 3 instructions: 190000000 cycles: 1784505304 heartbeat IPC: 0.09544 cumulative IPC: 0.06202 (Simulation time: 12 hr 12 min 26 sec)
Heartbeat CPU 0 instructions: 800000001 cycles: 1788618955 heartbeat IPC: 0.3634 cumulative IPC: 0.425 (Simulation time: 12 hr 14 min 06 sec)
Heartbeat CPU 2 instructions: 810000003 cycles: 1803144442 heartbeat IPC: 0.345 cumulative IPC: 0.4247 (Simulation time: 12 hr 20 min 03 sec)
Heartbeat CPU 2 instructions: 820000001 cycles: 1817485419 heartbeat IPC: 0.6973 cumulative IPC: 0.4269 (Simulation time: 12 hr 26 min 03 sec)
Heartbeat CPU 0 instructions: 810000003 cycles: 1821254361 heartbeat IPC: 0.3064 cumulative IPC: 0.4229 (Simulation time: 12 hr 27 min 40 sec)
Heartbeat CPU 2 instructions: 830000000 cycles: 1827892995 heartbeat IPC: 0.9608 cumulative IPC: 0.43 (Simulation time: 12 hr 30 min 57 sec)
Heartbeat CPU 0 instructions: 820000001 cycles: 1833775941 heartbeat IPC: 0.7986 cumulative IPC: 0.4255 (Simulation time: 12 hr 33 min 34 sec)
Heartbeat CPU 2 instructions: 840000000 cycles: 1845089800 heartbeat IPC: 0.5815 cumulative IPC: 0.4314 (Simulation time: 12 hr 38 min 38 sec)
Heartbeat CPU 0 instructions: 830000002 cycles: 1850061653 heartbeat IPC: 0.614 cumulative IPC: 0.4271 (Simulation time: 12 hr 40 min 55 sec)
Heartbeat CPU 1 instructions: 270000003 cycles: 1853922492 heartbeat IPC: 0.04662 cumulative IPC: 0.09961 (Simulation time: 12 hr 42 min 44 sec)
Heartbeat CPU 2 instructions: 850000003 cycles: 1856940635 heartbeat IPC: 0.8438 cumulative IPC: 0.434 (Simulation time: 12 hr 44 min 13 sec)
Heartbeat CPU 0 instructions: 840000002 cycles: 1861646923 heartbeat IPC: 0.8632 cumulative IPC: 0.4299 (Simulation time: 12 hr 46 min 54 sec)
Heartbeat CPU 2 instructions: 860000003 cycles: 1866244721 heartbeat IPC: 1.075 cumulative IPC: 0.4373 (Simulation time: 12 hr 49 min 28 sec)
Heartbeat CPU 0 instructions: 850000003 cycles: 1871220110 heartbeat IPC: 1.045 cumulative IPC: 0.4331 (Simulation time: 12 hr 51 min 54 sec)
Heartbeat CPU 0 instructions: 860000003 cycles: 1881435920 heartbeat IPC: 0.9789 cumulative IPC: 0.4361 (Simulation time: 12 hr 56 min 40 sec)
Heartbeat CPU 2 instructions: 870000004 cycles: 1889899467 heartbeat IPC: 0.4227 cumulative IPC: 0.4371 (Simulation time: 13 hr 00 min 39 sec)
Heartbeat CPU 3 instructions: 200000004 cycles: 1895660536 heartbeat IPC: 0.08996 cumulative IPC: 0.06368 (Simulation time: 13 hr 02 min 52 sec)
Heartbeat CPU 1 instructions: 280000000 cycles: 1902804856 heartbeat IPC: 0.2046 cumulative IPC: 0.1023 (Simulation time: 13 hr 05 min 59 sec)
Heartbeat CPU 0 instructions: 870000004 cycles: 1908017328 heartbeat IPC: 0.3762 cumulative IPC: 0.4352 (Simulation time: 13 hr 08 min 20 sec)
Heartbeat CPU 2 instructions: 880000000 cycles: 1921629848 heartbeat IPC: 0.3152 cumulative IPC: 0.4351 (Simulation time: 13 hr 13 min 52 sec)
Heartbeat CPU 0 instructions: 880000000 cycles: 1935651342 heartbeat IPC: 0.3619 cumulative IPC: 0.4342 (Simulation time: 13 hr 19 min 33 sec)
Heartbeat CPU 2 instructions: 890000000 cycles: 1951550165 heartbeat IPC: 0.3342 cumulative IPC: 0.4335 (Simulation time: 13 hr 25 min 47 sec)
Heartbeat CPU 2 instructions: 900000002 cycles: 1964555802 heartbeat IPC: 0.7689 cumulative IPC: 0.4357 (Simulation time: 13 hr 31 min 02 sec)
Heartbeat CPU 0 instructions: 890000000 cycles: 1967695028 heartbeat IPC: 0.3121 cumulative IPC: 0.4322 (Simulation time: 13 hr 32 min 20 sec)
Heartbeat CPU 2 instructions: 910000004 cycles: 1974474776 heartbeat IPC: 1.008 cumulative IPC: 0.4387 (Simulation time: 13 hr 36 min 09 sec)
Heartbeat CPU 1 instructions: 290000000 cycles: 1975637395 heartbeat IPC: 0.1373 cumulative IPC: 0.1036 (Simulation time: 13 hr 36 min 49 sec)
Heartbeat CPU 0 instructions: 900000002 cycles: 1976515925 heartbeat IPC: 1.134 cumulative IPC: 0.4353 (Simulation time: 13 hr 37 min 23 sec)
Heartbeat CPU 2 instructions: 920000001 cycles: 1986463728 heartbeat IPC: 0.8341 cumulative IPC: 0.4411 (Simulation time: 13 hr 42 min 32 sec)
Heartbeat CPU 0 instructions: 910000002 cycles: 1990966819 heartbeat IPC: 0.692 cumulative IPC: 0.4372 (Simulation time: 13 hr 44 min 39 sec)
Heartbeat CPU 2 instructions: 930000003 cycles: 1997921912 heartbeat IPC: 0.8727 cumulative IPC: 0.4436 (Simulation time: 13 hr 47 min 55 sec)
Heartbeat CPU 0 instructions: 920000002 cycles: 2004723320 heartbeat IPC: 0.7269 cumulative IPC: 0.4392 (Simulation time: 13 hr 51 min 11 sec)
Heartbeat CPU 3 instructions: 210000000 cycles: 2005335756 heartbeat IPC: 0.09118 cumulative IPC: 0.0652 (Simulation time: 13 hr 51 min 30 sec)
Heartbeat CPU 2 instructions: 940000004 cycles: 2010836099 heartbeat IPC: 0.7743 cumulative IPC: 0.4457 (Simulation time: 13 hr 54 min 00 sec)
Heartbeat CPU 0 instructions: 930000003 cycles: 2016089619 heartbeat IPC: 0.8798 cumulative IPC: 0.4417 (Simulation time: 13 hr 56 min 15 sec)
Heartbeat CPU 0 instructions: 940000004 cycles: 2027392506 heartbeat IPC: 0.8847 cumulative IPC: 0.4442 (Simulation time: 14 hr 00 min 59 sec)
Heartbeat CPU 2 instructions: 950000002 cycles: 2038398852 heartbeat IPC: 0.3628 cumulative IPC: 0.4446 (Simulation time: 14 hr 05 min 15 sec)
Heartbeat CPU 0 instructions: 950000002 cycles: 2060890507 heartbeat IPC: 0.2985 cumulative IPC: 0.4418 (Simulation time: 14 hr 13 min 42 sec)
Heartbeat CPU 1 instructions: 300000000 cycles: 2065139035 heartbeat IPC: 0.1117 cumulative IPC: 0.104 (Simulation time: 14 hr 15 min 28 sec)
Heartbeat CPU 2 instructions: 960000001 cycles: 2074579957 heartbeat IPC: 0.2764 cumulative IPC: 0.4416 (Simulation time: 14 hr 19 min 26 sec)
Heartbeat CPU 0 instructions: 960000001 cycles: 2095554427 heartbeat IPC: 0.2885 cumulative IPC: 0.4393 (Simulation time: 14 hr 27 min 37 sec)
Heartbeat CPU 2 instructions: 970000004 cycles: 2112728901 heartbeat IPC: 0.2621 cumulative IPC: 0.4383 (Simulation time: 14 hr 34 min 29 sec)
Heartbeat CPU 1 instructions: 310000000 cycles: 2117453092 heartbeat IPC: 0.1912 cumulative IPC: 0.1062 (Simulation time: 14 hr 36 min 41 sec)
Heartbeat CPU 3 instructions: 220000000 cycles: 2122477282 heartbeat IPC: 0.08537 cumulative IPC: 0.06633 (Simulation time: 14 hr 39 min 03 sec)
Heartbeat CPU 2 instructions: 980000000 cycles: 2122545451 heartbeat IPC: 1.019 cumulative IPC: 0.4411 (Simulation time: 14 hr 39 min 05 sec)
Heartbeat CPU 0 instructions: 970000000 cycles: 2123936989 heartbeat IPC: 0.3523 cumulative IPC: 0.4381 (Simulation time: 14 hr 39 min 48 sec)
Heartbeat CPU 2 instructions: 990000000 cycles: 2131914603 heartbeat IPC: 1.067 cumulative IPC: 0.4438 (Simulation time: 14 hr 43 min 45 sec)
Heartbeat CPU 0 instructions: 980000000 cycles: 2133616395 heartbeat IPC: 1.033 cumulative IPC: 0.4408 (Simulation time: 14 hr 44 min 31 sec)
Heartbeat CPU 2 instructions: 1000000002 cycles: 2146004097 heartbeat IPC: 0.7097 cumulative IPC: 0.4456 (Simulation time: 14 hr 49 min 58 sec)
Heartbeat CPU 0 instructions: 990000000 cycles: 2148854087 heartbeat IPC: 0.6563 cumulative IPC: 0.4424 (Simulation time: 14 hr 51 min 20 sec)
Heartbeat CPU 2 instructions: 1010000001 cycles: 2156000809 heartbeat IPC: 1 cumulative IPC: 0.4482 (Simulation time: 14 hr 54 min 44 sec)
Heartbeat CPU 1 instructions: 320000000 cycles: 2156450763 heartbeat IPC: 0.2564 cumulative IPC: 0.1089 (Simulation time: 14 hr 54 min 57 sec)
Heartbeat CPU 0 instructions: 1000000003 cycles: 2158072377 heartbeat IPC: 1.085 cumulative IPC: 0.4451 (Simulation time: 14 hr 55 min 53 sec)
Heartbeat CPU 2 instructions: 1020000004 cycles: 2163246565 heartbeat IPC: 1.38 cumulative IPC: 0.4514 (Simulation time: 14 hr 58 min 43 sec)
Heartbeat CPU 0 instructions: 1010000000 cycles: 2165864584 heartbeat IPC: 1.283 cumulative IPC: 0.4482 (Simulation time: 14 hr 59 min 58 sec)
Heartbeat CPU 0 instructions: 1020000003 cycles: 2178304558 heartbeat IPC: 0.8039 cumulative IPC: 0.4502 (Simulation time: 15 hr 04 min 54 sec)
Heartbeat CPU 2 instructions: 1030000001 cycles: 2185280340 heartbeat IPC: 0.4538 cumulative IPC: 0.4514 (Simulation time: 15 hr 07 min 29 sec)
Heartbeat CPU 0 instructions: 1030000004 cycles: 2221402829 heartbeat IPC: 0.232 cumulative IPC: 0.446 (Simulation time: 15 hr 20 min 22 sec)
Heartbeat CPU 2 instructions: 1040000003 cycles: 2240048880 heartbeat IPC: 0.1826 cumulative IPC: 0.4447 (Simulation time: 15 hr 26 min 49 sec)
Heartbeat CPU 0 instructions: 1040000001 cycles: 2269253149 heartbeat IPC: 0.209 cumulative IPC: 0.4409 (Simulation time: 15 hr 37 min 13 sec)
Heartbeat CPU 2 instructions: 1050000002 cycles: 2286695420 heartbeat IPC: 0.2144 cumulative IPC: 0.44 (Simulation time: 15 hr 43 min 25 sec)
Heartbeat CPU 3 instructions: 230000002 cycles: 2287024329 heartbeat IPC: 0.06077 cumulative IPC: 0.06593 (Simulation time: 15 hr 43 min 32 sec)
Simulation finished CPU 3 instructions: 150000001 cycles: 2283078687 cumulative IPC: 0.0657 (Simulation time: 15 hr 50 min 41 sec)
Simulation complete CPU 0 instructions: 997757262 cycles: 2283078687 cumulative IPC: 0.437 (Simulation time: 15 hr 50 min 41 sec)
Simulation complete CPU 1 instructions: 240359269 cycles: 2283078687 cumulative IPC: 0.1053 (Simulation time: 15 hr 50 min 41 sec)
Simulation complete CPU 2 instructions: 999699180 cycles: 2283078687 cumulative IPC: 0.4379 (Simulation time: 15 hr 50 min 41 sec)
Simulation complete CPU 3 instructions: 150000001 cycles: 2283078687 cumulative IPC: 0.0657 (Simulation time: 15 hr 50 min 41 sec)

ChampSim completed all CPUs

=== Simulation ===
CPU 0 runs /home/das/traces4_champsim/459.GemsFDTD-765B.champsimtrace.xzCPU 1 runs /home/das/traces4_champsim/605.mcf_s-994B.champsimtrace.xzCPU 2 runs /home/das/traces4_champsim/459.GemsFDTD-765B.champsimtrace.xzCPU 3 runs /home/das/traces4_champsim/473.astar-359B.champsimtrace.xz
Total Simulation Statistics (not including warmup)

CPU 0 cumulative IPC: 0.437 instructions: 997757262 cycles: 2283078687
CPU 0 Branch Prediction Accuracy: 99.76% MPKI: 0.02549 Average ROB Occupancy at Mispredict: 322.8
Branch type MPKI
BRANCH_DIRECT_JUMP: 3.11e-05
BRANCH_INDIRECT: 2e-06
BRANCH_CONDITIONAL: 0.0253
BRANCH_DIRECT_CALL: 9.92e-05
BRANCH_INDIRECT_CALL: 0
BRANCH_RETURN: 9.82e-05


CPU 1 cumulative IPC: 0.1053 instructions: 240359269 cycles: 2283078687
CPU 1 Branch Prediction Accuracy: 94.45% MPKI: 14 Average ROB Occupancy at Mispredict: 55.33
Branch type MPKI
BRANCH_DIRECT_JUMP: 0.138
BRANCH_INDIRECT: 0
BRANCH_CONDITIONAL: 13.9
BRANCH_DIRECT_CALL: 0
BRANCH_INDIRECT_CALL: 0.00104
BRANCH_RETURN: 8.32e-06


CPU 2 cumulative IPC: 0.4379 instructions: 999699180 cycles: 2283078687
CPU 2 Branch Prediction Accuracy: 99.76% MPKI: 0.02601 Average ROB Occupancy at Mispredict: 323.4
Branch type MPKI
BRANCH_DIRECT_JUMP: 3.1e-05
BRANCH_INDIRECT: 2e-06
BRANCH_CONDITIONAL: 0.0258
BRANCH_DIRECT_CALL: 9.9e-05
BRANCH_INDIRECT_CALL: 0
BRANCH_RETURN: 9.8e-05


CPU 3 cumulative IPC: 0.0657 instructions: 150000001 cycles: 2283078687
CPU 3 Branch Prediction Accuracy: 93.4% MPKI: 12.88 Average ROB Occupancy at Mispredict: 50.02
Branch type MPKI
BRANCH_DIRECT_JUMP: 2.67e-05
BRANCH_INDIRECT: 0
BRANCH_CONDITIONAL: 12.9
BRANCH_DIRECT_CALL: 0
BRANCH_INDIRECT_CALL: 0.000153
BRANCH_RETURN: 0

LLC TOTAL        ACCESS:   10837023 HIT:    3460394 MISS:    7376629
LLC LOAD         ACCESS:    7302045 HIT:     270589 MISS:    7031456
LLC RFO          ACCESS:     124942 HIT:     104650 MISS:      20292
LLC PREFETCH     ACCESS:          0 HIT:          0 MISS:          0
LLC WRITE        ACCESS:    3089178 HIT:    3070928 MISS:      18250
LLC TRANSLATION  ACCESS:     320858 HIT:      14227 MISS:     306631
LLC PREFETCH REQUESTED:          0 ISSUED:          0 USEFUL:          0 USELESS:          0
LLC AVERAGE MISS LATENCY: 1318 cycles
LLC TOTAL        ACCESS:    8203031 HIT:    2375311 MISS:    5827720
LLC LOAD         ACCESS:    6019016 HIT:    1704640 MISS:    4314376
LLC RFO          ACCESS:       9966 HIT:       7114 MISS:       2852
LLC PREFETCH     ACCESS:          0 HIT:          0 MISS:          0
LLC WRITE        ACCESS:     415239 HIT:     409135 MISS:       6104
LLC TRANSLATION  ACCESS:    1758810 HIT:     254422 MISS:    1504388
LLC PREFETCH REQUESTED:          0 ISSUED:          0 USEFUL:          0 USELESS:          0
LLC AVERAGE MISS LATENCY: 1318 cycles
LLC TOTAL        ACCESS:   10700586 HIT:    3451171 MISS:    7249415
LLC LOAD         ACCESS:    7225425 HIT:     316643 MISS:    6908782
LLC RFO          ACCESS:     125775 HIT:     101989 MISS:      23786
LLC PREFETCH     ACCESS:          0 HIT:          0 MISS:          0
LLC WRITE        ACCESS:    3029679 HIT:    3011890 MISS:      17789
LLC TRANSLATION  ACCESS:     319707 HIT:      20649 MISS:     299058
LLC PREFETCH REQUESTED:          0 ISSUED:          0 USEFUL:          0 USELESS:          0
LLC AVERAGE MISS LATENCY: 1318 cycles
LLC TOTAL        ACCESS:   11400475 HIT:    4556982 MISS:    6843493
LLC LOAD         ACCESS:    3059598 HIT:     204237 MISS:    2855361
LLC RFO          ACCESS:    2878899 HIT:     266368 MISS:    2612531
LLC PREFETCH     ACCESS:          0 HIT:          0 MISS:          0
LLC WRITE        ACCESS:    4036152 HIT:    3998066 MISS:      38086
LLC TRANSLATION  ACCESS:    1425826 HIT:      88311 MISS:    1337515
LLC PREFETCH REQUESTED:          0 ISSUED:          0 USEFUL:          0 USELESS:          0
LLC AVERAGE MISS LATENCY: 1318 cycles
cpu0_DTLB TOTAL        ACCESS:  239827264 HIT:  233178043 MISS:    6649221
cpu0_DTLB LOAD         ACCESS:  239827264 HIT:  233178043 MISS:    6649221
cpu0_DTLB RFO          ACCESS:          0 HIT:          0 MISS:          0
cpu0_DTLB PREFETCH     ACCESS:          0 HIT:          0 MISS:          0
cpu0_DTLB WRITE        ACCESS:          0 HIT:          0 MISS:          0
cpu0_DTLB TRANSLATION  ACCESS:          0 HIT:          0 MISS:          0
cpu0_DTLB PREFETCH REQUESTED:          0 ISSUED:          0 USEFUL:          0 USELESS:          0
cpu0_DTLB AVERAGE MISS LATENCY: 46.44 cycles
cpu0_DTLB TOTAL        ACCESS:          0 HIT:          0 MISS:          0
cpu0_DTLB LOAD         ACCESS:          0 HIT:          0 MISS:          0
cpu0_DTLB RFO          ACCESS:          0 HIT:          0 MISS:          0
cpu0_DTLB PREFETCH     ACCESS:          0 HIT:          0 MISS:          0
cpu0_DTLB WRITE        ACCESS:          0 HIT:          0 MISS:          0
cpu0_DTLB TRANSLATION  ACCESS:          0 HIT:          0 MISS:          0
cpu0_DTLB PREFETCH REQUESTED:          0 ISSUED:          0 USEFUL:          0 USELESS:          0
cpu0_DTLB AVERAGE MISS LATENCY: 46.44 cycles
cpu0_DTLB TOTAL        ACCESS:          0 HIT:          0 MISS:          0
cpu0_DTLB LOAD         ACCESS:          0 HIT:          0 MISS:          0
cpu0_DTLB RFO          ACCESS:          0 HIT:          0 MISS:          0
cpu0_DTLB PREFETCH     ACCESS:          0 HIT:          0 MISS:          0
cpu0_DTLB WRITE        ACCESS:          0 HIT:          0 MISS:          0
cpu0_DTLB TRANSLATION  ACCESS:          0 HIT:          0 MISS:          0
cpu0_DTLB PREFETCH REQUESTED:          0 ISSUED:          0 USEFUL:          0 USELESS:          0
cpu0_DTLB AVERAGE MISS LATENCY: 46.44 cycles
cpu0_DTLB TOTAL        ACCESS:          0 HIT:          0 MISS:          0
cpu0_DTLB LOAD         ACCESS:          0 HIT:          0 MISS:          0
cpu0_DTLB RFO          ACCESS:          0 HIT:          0 MISS:          0
cpu0_DTLB PREFETCH     ACCESS:          0 HIT:          0 MISS:          0
cpu0_DTLB WRITE        ACCESS:          0 HIT:          0 MISS:          0
cpu0_DTLB TRANSLATION  ACCESS:          0 HIT:          0 MISS:          0
cpu0_DTLB PREFETCH REQUESTED:          0 ISSUED:          0 USEFUL:          0 USELESS:          0
cpu0_DTLB AVERAGE MISS LATENCY: 46.44 cycles
cpu0_ITLB TOTAL        ACCESS:       2897 HIT:       2782 MISS:        115
cpu0_ITLB LOAD         ACCESS:       2897 HIT:       2782 MISS:        115
cpu0_ITLB RFO          ACCESS:          0 HIT:          0 MISS:          0
cpu0_ITLB PREFETCH     ACCESS:          0 HIT:          0 MISS:          0
cpu0_ITLB WRITE        ACCESS:          0 HIT:          0 MISS:          0
cpu0_ITLB TRANSLATION  ACCESS:          0 HIT:          0 MISS:          0
cpu0_ITLB PREFETCH REQUESTED:          0 ISSUED:          0 USEFUL:          0 USELESS:          0
cpu0_ITLB AVERAGE MISS LATENCY: 423.7 cycles
cpu0_ITLB TOTAL        ACCESS:          0 HIT:          0 MISS:          0
cpu0_ITLB LOAD         ACCESS:          0 HIT:          0 MISS:          0
cpu0_ITLB RFO          ACCESS:          0 HIT:          0 MISS:          0
cpu0_ITLB PREFETCH     ACCESS:          0 HIT:          0 MISS:          0
cpu0_ITLB WRITE        ACCESS:          0 HIT:          0 MISS:          0
cpu0_ITLB TRANSLATION  ACCESS:          0 HIT:          0 MISS:          0
cpu0_ITLB PREFETCH REQUESTED:          0 ISSUED:          0 USEFUL:          0 USELESS:          0
cpu0_ITLB AVERAGE MISS LATENCY: 423.7 cycles
cpu0_ITLB TOTAL        ACCESS:          0 HIT:          0 MISS:          0
cpu0_ITLB LOAD         ACCESS:          0 HIT:          0 MISS:          0
cpu0_ITLB RFO          ACCESS:          0 HIT:          0 MISS:          0
cpu0_ITLB PREFETCH     ACCESS:          0 HIT:          0 MISS:          0
cpu0_ITLB WRITE        ACCESS:          0 HIT:          0 MISS:          0
cpu0_ITLB TRANSLATION  ACCESS:          0 HIT:          0 MISS:          0
cpu0_ITLB PREFETCH REQUESTED:          0 ISSUED:          0 USEFUL:          0 USELESS:          0
cpu0_ITLB AVERAGE MISS LATENCY: 423.7 cycles
cpu0_ITLB TOTAL        ACCESS:          0 HIT:          0 MISS:          0
cpu0_ITLB LOAD         ACCESS:          0 HIT:          0 MISS:          0
cpu0_ITLB RFO          ACCESS:          0 HIT:          0 MISS:          0
cpu0_ITLB PREFETCH     ACCESS:          0 HIT:          0 MISS:          0
cpu0_ITLB WRITE        ACCESS:          0 HIT:          0 MISS:          0
cpu0_ITLB TRANSLATION  ACCESS:          0 HIT:          0 MISS:          0
cpu0_ITLB PREFETCH REQUESTED:          0 ISSUED:          0 USEFUL:          0 USELESS:          0
cpu0_ITLB AVERAGE MISS LATENCY: 423.7 cycles
cpu0_L1D TOTAL        ACCESS:  276839509 HIT:  251835691 MISS:   25003818
cpu0_L1D LOAD         ACCESS:  222029933 HIT:  198708432 MISS:   23321501
cpu0_L1D RFO          ACCESS:          0 HIT:          0 MISS:          0
cpu0_L1D PREFETCH     ACCESS:          0 HIT:          0 MISS:          0
cpu0_L1D WRITE        ACCESS:   53862271 HIT:   52923033 MISS:     939238
cpu0_L1D TRANSLATION  ACCESS:     947305 HIT:     204226 MISS:     743079
cpu0_L1D PREFETCH REQUESTED:          0 ISSUED:          0 USEFUL:          0 USELESS:          0
cpu0_L1D AVERAGE MISS LATENCY: 297.3 cycles
cpu0_L1D TOTAL        ACCESS:          0 HIT:          0 MISS:          0
cpu0_L1D LOAD         ACCESS:          0 HIT:          0 MISS:          0
cpu0_L1D RFO          ACCESS:          0 HIT:          0 MISS:          0
cpu0_L1D PREFETCH     ACCESS:          0 HIT:          0 MISS:          0
cpu0_L1D WRITE        ACCESS:          0 HIT:          0 MISS:          0
cpu0_L1D TRANSLATION  ACCESS:          0 HIT:          0 MISS:          0
cpu0_L1D PREFETCH REQUESTED:          0 ISSUED:          0 USEFUL:          0 USELESS:          0
cpu0_L1D AVERAGE MISS LATENCY: 297.3 cycles
cpu0_L1D TOTAL        ACCESS:          0 HIT:          0 MISS:          0
cpu0_L1D LOAD         ACCESS:          0 HIT:          0 MISS:          0
cpu0_L1D RFO          ACCESS:          0 HIT:          0 MISS:          0
cpu0_L1D PREFETCH     ACCESS:          0 HIT:          0 MISS:          0
cpu0_L1D WRITE        ACCESS:          0 HIT:          0 MISS:          0
cpu0_L1D TRANSLATION  ACCESS:          0 HIT:          0 MISS:          0
cpu0_L1D PREFETCH REQUESTED:          0 ISSUED:          0 USEFUL:          0 USELESS:          0
cpu0_L1D AVERAGE MISS LATENCY: 297.3 cycles
cpu0_L1D TOTAL        ACCESS:          0 HIT:          0 MISS:          0
cpu0_L1D LOAD         ACCESS:          0 HIT:          0 MISS:          0
cpu0_L1D RFO          ACCESS:          0 HIT:          0 MISS:          0
cpu0_L1D PREFETCH     ACCESS:          0 HIT:          0 MISS:          0
cpu0_L1D WRITE        ACCESS:          0 HIT:          0 MISS:          0
cpu0_L1D TRANSLATION  ACCESS:          0 HIT:          0 MISS:          0
cpu0_L1D PREFETCH REQUESTED:          0 ISSUED:          0 USEFUL:          0 USELESS:          0
cpu0_L1D AVERAGE MISS LATENCY: 297.3 cycles
cpu0_L1I TOTAL        ACCESS:       3438 HIT:       2046 MISS:       1392
cpu0_L1I LOAD         ACCESS:       3438 HIT:       2046 MISS:       1392
cpu0_L1I RFO          ACCESS:          0 HIT:          0 MISS:          0
cpu0_L1I PREFETCH     ACCESS:          0 HIT:          0 MISS:          0
cpu0_L1I WRITE        ACCESS:          0 HIT:          0 MISS:          0
cpu0_L1I TRANSLATION  ACCESS:          0 HIT:          0 MISS:          0
cpu0_L1I PREFETCH REQUESTED:          0 ISSUED:          0 USEFUL:          0 USELESS:          0
cpu0_L1I AVERAGE MISS LATENCY: 820.6 cycles
cpu0_L1I TOTAL        ACCESS:          0 HIT:          0 MISS:          0
cpu0_L1I LOAD         ACCESS:          0 HIT:          0 MISS:          0
cpu0_L1I RFO          ACCESS:          0 HIT:          0 MISS:          0
cpu0_L1I PREFETCH     ACCESS:          0 HIT:          0 MISS:          0
cpu0_L1I WRITE        ACCESS:          0 HIT:          0 MISS:          0
cpu0_L1I TRANSLATION  ACCESS:          0 HIT:          0 MISS:          0
cpu0_L1I PREFETCH REQUESTED:          0 ISSUED:          0 USEFUL:          0 USELESS:          0
cpu0_L1I AVERAGE MISS LATENCY: 820.6 cycles
cpu0_L1I TOTAL        ACCESS:          0 HIT:          0 MISS:          0
cpu0_L1I LOAD         ACCESS:          0 HIT:          0 MISS:          0
cpu0_L1I RFO          ACCESS:          0 HIT:          0 MISS:          0
cpu0_L1I PREFETCH     ACCESS:          0 HIT:          0 MISS:          0
cpu0_L1I WRITE        ACCESS:          0 HIT:          0 MISS:          0
cpu0_L1I TRANSLATION  ACCESS:          0 HIT:          0 MISS:          0
cpu0_L1I PREFETCH REQUESTED:          0 ISSUED:          0 USEFUL:          0 USELESS:          0
cpu0_L1I AVERAGE MISS LATENCY: 820.6 cycles
cpu0_L1I TOTAL        ACCESS:          0 HIT:          0 MISS:          0
cpu0_L1I LOAD         ACCESS:          0 HIT:          0 MISS:          0
cpu0_L1I RFO          ACCESS:          0 HIT:          0 MISS:          0
cpu0_L1I PREFETCH     ACCESS:          0 HIT:          0 MISS:          0
cpu0_L1I WRITE        ACCESS:          0 HIT:          0 MISS:          0
cpu0_L1I TRANSLATION  ACCESS:          0 HIT:          0 MISS:          0
cpu0_L1I PREFETCH REQUESTED:          0 ISSUED:          0 USEFUL:          0 USELESS:          0
cpu0_L1I AVERAGE MISS LATENCY: 820.6 cycles
cpu0_L2C TOTAL        ACCESS:   22946555 HIT:   15198141 MISS:    7748414
cpu0_L2C LOAD         ACCESS:   17225272 HIT:    9923227 MISS:    7302045
cpu0_L2C RFO          ACCESS:     167387 HIT:      42445 MISS:     124942
cpu0_L2C PREFETCH     ACCESS:          0 HIT:          0 MISS:          0
cpu0_L2C WRITE        ACCESS:    4812256 HIT:    4811687 MISS:        569
cpu0_L2C TRANSLATION  ACCESS:     741640 HIT:     420782 MISS:     320858
cpu0_L2C PREFETCH REQUESTED:          0 ISSUED:          0 USEFUL:          0 USELESS:          0
cpu0_L2C AVERAGE MISS LATENCY: 1134 cycles
cpu0_L2C TOTAL        ACCESS:          0 HIT:          0 MISS:          0
cpu0_L2C LOAD         ACCESS:          0 HIT:          0 MISS:          0
cpu0_L2C RFO          ACCESS:          0 HIT:          0 MISS:          0
cpu0_L2C PREFETCH     ACCESS:          0 HIT:          0 MISS:          0
cpu0_L2C WRITE        ACCESS:          0 HIT:          0 MISS:          0
cpu0_L2C TRANSLATION  ACCESS:          0 HIT:          0 MISS:          0
cpu0_L2C PREFETCH REQUESTED:          0 ISSUED:          0 USEFUL:          0 USELESS:          0
cpu0_L2C AVERAGE MISS LATENCY: 1134 cycles
cpu0_L2C TOTAL        ACCESS:          0 HIT:          0 MISS:          0
cpu0_L2C LOAD         ACCESS:          0 HIT:          0 MISS:          0
cpu0_L2C RFO          ACCESS:          0 HIT:          0 MISS:          0
cpu0_L2C PREFETCH     ACCESS:          0 HIT:          0 MISS:          0
cpu0_L2C WRITE        ACCESS:          0 HIT:          0 MISS:          0
cpu0_L2C TRANSLATION  ACCESS:          0 HIT:          0 MISS:          0
cpu0_L2C PREFETCH REQUESTED:          0 ISSUED:          0 USEFUL:          0 USELESS:          0
cpu0_L2C AVERAGE MISS LATENCY: 1134 cycles
cpu0_L2C TOTAL        ACCESS:          0 HIT:          0 MISS:          0
cpu0_L2C LOAD         ACCESS:          0 HIT:          0 MISS:          0
cpu0_L2C RFO          ACCESS:          0 HIT:          0 MISS:          0
cpu0_L2C PREFETCH     ACCESS:          0 HIT:          0 MISS:          0
cpu0_L2C WRITE        ACCESS:          0 HIT:          0 MISS:          0
cpu0_L2C TRANSLATION  ACCESS:          0 HIT:          0 MISS:          0
cpu0_L2C PREFETCH REQUESTED:          0 ISSUED:          0 USEFUL:          0 USELESS:          0
cpu0_L2C AVERAGE MISS LATENCY: 1134 cycles
cpu0_STLB TOTAL        ACCESS:    6239205 HIT:    5435859 MISS:     803346
cpu0_STLB LOAD         ACCESS:    6239205 HIT:    5435859 MISS:     803346
cpu0_STLB RFO          ACCESS:          0 HIT:          0 MISS:          0
cpu0_STLB PREFETCH     ACCESS:          0 HIT:          0 MISS:          0
cpu0_STLB WRITE        ACCESS:          0 HIT:          0 MISS:          0
cpu0_STLB TRANSLATION  ACCESS:          0 HIT:          0 MISS:          0
cpu0_STLB PREFETCH REQUESTED:          0 ISSUED:          0 USEFUL:          0 USELESS:          0
cpu0_STLB AVERAGE MISS LATENCY: 369.3 cycles
cpu0_STLB TOTAL        ACCESS:          0 HIT:          0 MISS:          0
cpu0_STLB LOAD         ACCESS:          0 HIT:          0 MISS:          0
cpu0_STLB RFO          ACCESS:          0 HIT:          0 MISS:          0
cpu0_STLB PREFETCH     ACCESS:          0 HIT:          0 MISS:          0
cpu0_STLB WRITE        ACCESS:          0 HIT:          0 MISS:          0
cpu0_STLB TRANSLATION  ACCESS:          0 HIT:          0 MISS:          0
cpu0_STLB PREFETCH REQUESTED:          0 ISSUED:          0 USEFUL:          0 USELESS:          0
cpu0_STLB AVERAGE MISS LATENCY: 369.3 cycles
cpu0_STLB TOTAL        ACCESS:          0 HIT:          0 MISS:          0
cpu0_STLB LOAD         ACCESS:          0 HIT:          0 MISS:          0
cpu0_STLB RFO          ACCESS:          0 HIT:          0 MISS:          0
cpu0_STLB PREFETCH     ACCESS:          0 HIT:          0 MISS:          0
cpu0_STLB WRITE        ACCESS:          0 HIT:          0 MISS:          0
cpu0_STLB TRANSLATION  ACCESS:          0 HIT:          0 MISS:          0
cpu0_STLB PREFETCH REQUESTED:          0 ISSUED:          0 USEFUL:          0 USELESS:          0
cpu0_STLB AVERAGE MISS LATENCY: 369.3 cycles
cpu0_STLB TOTAL        ACCESS:          0 HIT:          0 MISS:          0
cpu0_STLB LOAD         ACCESS:          0 HIT:          0 MISS:          0
cpu0_STLB RFO          ACCESS:          0 HIT:          0 MISS:          0
cpu0_STLB PREFETCH     ACCESS:          0 HIT:          0 MISS:          0
cpu0_STLB WRITE        ACCESS:          0 HIT:          0 MISS:          0
cpu0_STLB TRANSLATION  ACCESS:          0 HIT:          0 MISS:          0
cpu0_STLB PREFETCH REQUESTED:          0 ISSUED:          0 USEFUL:          0 USELESS:          0
cpu0_STLB AVERAGE MISS LATENCY: 369.3 cycles
cpu1_DTLB TOTAL        ACCESS:          0 HIT:          0 MISS:          0
cpu1_DTLB LOAD         ACCESS:          0 HIT:          0 MISS:          0
cpu1_DTLB RFO          ACCESS:          0 HIT:          0 MISS:          0
cpu1_DTLB PREFETCH     ACCESS:          0 HIT:          0 MISS:          0
cpu1_DTLB WRITE        ACCESS:          0 HIT:          0 MISS:          0
cpu1_DTLB TRANSLATION  ACCESS:          0 HIT:          0 MISS:          0
cpu1_DTLB PREFETCH REQUESTED:          0 ISSUED:          0 USEFUL:          0 USELESS:          0
cpu1_DTLB AVERAGE MISS LATENCY: 438 cycles
cpu1_DTLB TOTAL        ACCESS:   57324937 HIT:   53121693 MISS:    4203244
cpu1_DTLB LOAD         ACCESS:   57324937 HIT:   53121693 MISS:    4203244
cpu1_DTLB RFO          ACCESS:          0 HIT:          0 MISS:          0
cpu1_DTLB PREFETCH     ACCESS:          0 HIT:          0 MISS:          0
cpu1_DTLB WRITE        ACCESS:          0 HIT:          0 MISS:          0
cpu1_DTLB TRANSLATION  ACCESS:          0 HIT:          0 MISS:          0
cpu1_DTLB PREFETCH REQUESTED:          0 ISSUED:          0 USEFUL:          0 USELESS:          0
cpu1_DTLB AVERAGE MISS LATENCY: 438 cycles
cpu1_DTLB TOTAL        ACCESS:          0 HIT:          0 MISS:          0
cpu1_DTLB LOAD         ACCESS:          0 HIT:          0 MISS:          0
cpu1_DTLB RFO          ACCESS:          0 HIT:          0 MISS:          0
cpu1_DTLB PREFETCH     ACCESS:          0 HIT:          0 MISS:          0
cpu1_DTLB WRITE        ACCESS:          0 HIT:          0 MISS:          0
cpu1_DTLB TRANSLATION  ACCESS:          0 HIT:          0 MISS:          0
cpu1_DTLB PREFETCH REQUESTED:          0 ISSUED:          0 USEFUL:          0 USELESS:          0
cpu1_DTLB AVERAGE MISS LATENCY: 438 cycles
cpu1_DTLB TOTAL        ACCESS:          0 HIT:          0 MISS:          0
cpu1_DTLB LOAD         ACCESS:          0 HIT:          0 MISS:          0
cpu1_DTLB RFO          ACCESS:          0 HIT:          0 MISS:          0
cpu1_DTLB PREFETCH     ACCESS:          0 HIT:          0 MISS:          0
cpu1_DTLB WRITE        ACCESS:          0 HIT:          0 MISS:          0
cpu1_DTLB TRANSLATION  ACCESS:          0 HIT:          0 MISS:          0
cpu1_DTLB PREFETCH REQUESTED:          0 ISSUED:          0 USEFUL:          0 USELESS:          0
cpu1_DTLB AVERAGE MISS LATENCY: 438 cycles
cpu1_ITLB TOTAL        ACCESS:          0 HIT:          0 MISS:          0
cpu1_ITLB LOAD         ACCESS:          0 HIT:          0 MISS:          0
cpu1_ITLB RFO          ACCESS:          0 HIT:          0 MISS:          0
cpu1_ITLB PREFETCH     ACCESS:          0 HIT:          0 MISS:          0
cpu1_ITLB WRITE        ACCESS:          0 HIT:          0 MISS:          0
cpu1_ITLB TRANSLATION  ACCESS:          0 HIT:          0 MISS:          0
cpu1_ITLB PREFETCH REQUESTED:          0 ISSUED:          0 USEFUL:          0 USELESS:          0
cpu1_ITLB AVERAGE MISS LATENCY: -nan cycles
cpu1_ITLB TOTAL        ACCESS:      22340 HIT:      22340 MISS:          0
cpu1_ITLB LOAD         ACCESS:      22340 HIT:      22340 MISS:          0
cpu1_ITLB RFO          ACCESS:          0 HIT:          0 MISS:          0
cpu1_ITLB PREFETCH     ACCESS:          0 HIT:          0 MISS:          0
cpu1_ITLB WRITE        ACCESS:          0 HIT:          0 MISS:          0
cpu1_ITLB TRANSLATION  ACCESS:          0 HIT:          0 MISS:          0
cpu1_ITLB PREFETCH REQUESTED:          0 ISSUED:          0 USEFUL:          0 USELESS:          0
cpu1_ITLB AVERAGE MISS LATENCY: -nan cycles
cpu1_ITLB TOTAL        ACCESS:          0 HIT:          0 MISS:          0
cpu1_ITLB LOAD         ACCESS:          0 HIT:          0 MISS:          0
cpu1_ITLB RFO          ACCESS:          0 HIT:          0 MISS:          0
cpu1_ITLB PREFETCH     ACCESS:          0 HIT:          0 MISS:          0
cpu1_ITLB WRITE        ACCESS:          0 HIT:          0 MISS:          0
cpu1_ITLB TRANSLATION  ACCESS:          0 HIT:          0 MISS:          0
cpu1_ITLB PREFETCH REQUESTED:          0 ISSUED:          0 USEFUL:          0 USELESS:          0
cpu1_ITLB AVERAGE MISS LATENCY: -nan cycles
cpu1_ITLB TOTAL        ACCESS:          0 HIT:          0 MISS:          0
cpu1_ITLB LOAD         ACCESS:          0 HIT:          0 MISS:          0
cpu1_ITLB RFO          ACCESS:          0 HIT:          0 MISS:          0
cpu1_ITLB PREFETCH     ACCESS:          0 HIT:          0 MISS:          0
cpu1_ITLB WRITE        ACCESS:          0 HIT:          0 MISS:          0
cpu1_ITLB TRANSLATION  ACCESS:          0 HIT:          0 MISS:          0
cpu1_ITLB PREFETCH REQUESTED:          0 ISSUED:          0 USEFUL:          0 USELESS:          0
cpu1_ITLB AVERAGE MISS LATENCY: -nan cycles
cpu1_L1D TOTAL        ACCESS:          0 HIT:          0 MISS:          0
cpu1_L1D LOAD         ACCESS:          0 HIT:          0 MISS:          0
cpu1_L1D RFO          ACCESS:          0 HIT:          0 MISS:          0
cpu1_L1D PREFETCH     ACCESS:          0 HIT:          0 MISS:          0
cpu1_L1D WRITE        ACCESS:          0 HIT:          0 MISS:          0
cpu1_L1D TRANSLATION  ACCESS:          0 HIT:          0 MISS:          0
cpu1_L1D PREFETCH REQUESTED:          0 ISSUED:          0 USEFUL:          0 USELESS:          0
cpu1_L1D AVERAGE MISS LATENCY: 608.9 cycles
cpu1_L1D TOTAL        ACCESS:   81228820 HIT:   69927760 MISS:   11301060
cpu1_L1D LOAD         ACCESS:   54044582 HIT:   45116934 MISS:    8927648
cpu1_L1D RFO          ACCESS:          0 HIT:          0 MISS:          0
cpu1_L1D PREFETCH     ACCESS:          0 HIT:          0 MISS:          0
cpu1_L1D WRITE        ACCESS:   24177901 HIT:   23980396 MISS:     197505
cpu1_L1D TRANSLATION  ACCESS:    3006337 HIT:     830430 MISS:    2175907
cpu1_L1D PREFETCH REQUESTED:          0 ISSUED:          0 USEFUL:          0 USELESS:          0
cpu1_L1D AVERAGE MISS LATENCY: 608.9 cycles
cpu1_L1D TOTAL        ACCESS:          0 HIT:          0 MISS:          0
cpu1_L1D LOAD         ACCESS:          0 HIT:          0 MISS:          0
cpu1_L1D RFO          ACCESS:          0 HIT:          0 MISS:          0
cpu1_L1D PREFETCH     ACCESS:          0 HIT:          0 MISS:          0
cpu1_L1D WRITE        ACCESS:          0 HIT:          0 MISS:          0
cpu1_L1D TRANSLATION  ACCESS:          0 HIT:          0 MISS:          0
cpu1_L1D PREFETCH REQUESTED:          0 ISSUED:          0 USEFUL:          0 USELESS:          0
cpu1_L1D AVERAGE MISS LATENCY: 608.9 cycles
cpu1_L1D TOTAL        ACCESS:          0 HIT:          0 MISS:          0
cpu1_L1D LOAD         ACCESS:          0 HIT:          0 MISS:          0
cpu1_L1D RFO          ACCESS:          0 HIT:          0 MISS:          0
cpu1_L1D PREFETCH     ACCESS:          0 HIT:          0 MISS:          0
cpu1_L1D WRITE        ACCESS:          0 HIT:          0 MISS:          0
cpu1_L1D TRANSLATION  ACCESS:          0 HIT:          0 MISS:          0
cpu1_L1D PREFETCH REQUESTED:          0 ISSUED:          0 USEFUL:          0 USELESS:          0
cpu1_L1D AVERAGE MISS LATENCY: 608.9 cycles
cpu1_L1I TOTAL        ACCESS:          0 HIT:          0 MISS:          0
cpu1_L1I LOAD         ACCESS:          0 HIT:          0 MISS:          0
cpu1_L1I RFO          ACCESS:          0 HIT:          0 MISS:          0
cpu1_L1I PREFETCH     ACCESS:          0 HIT:          0 MISS:          0
cpu1_L1I WRITE        ACCESS:          0 HIT:          0 MISS:          0
cpu1_L1I TRANSLATION  ACCESS:          0 HIT:          0 MISS:          0
cpu1_L1I PREFETCH REQUESTED:          0 ISSUED:          0 USEFUL:          0 USELESS:          0
cpu1_L1I AVERAGE MISS LATENCY: -nan cycles
cpu1_L1I TOTAL        ACCESS:      22384 HIT:      22384 MISS:          0
cpu1_L1I LOAD         ACCESS:      22384 HIT:      22384 MISS:          0
cpu1_L1I RFO          ACCESS:          0 HIT:          0 MISS:          0
cpu1_L1I PREFETCH     ACCESS:          0 HIT:          0 MISS:          0
cpu1_L1I WRITE        ACCESS:          0 HIT:          0 MISS:          0
cpu1_L1I TRANSLATION  ACCESS:          0 HIT:          0 MISS:          0
cpu1_L1I PREFETCH REQUESTED:          0 ISSUED:          0 USEFUL:          0 USELESS:          0
cpu1_L1I AVERAGE MISS LATENCY: -nan cycles
cpu1_L1I TOTAL        ACCESS:          0 HIT:          0 MISS:          0
cpu1_L1I LOAD         ACCESS:          0 HIT:          0 MISS:          0
cpu1_L1I RFO          ACCESS:          0 HIT:          0 MISS:          0
cpu1_L1I PREFETCH     ACCESS:          0 HIT:          0 MISS:          0
cpu1_L1I WRITE        ACCESS:          0 HIT:          0 MISS:          0
cpu1_L1I TRANSLATION  ACCESS:          0 HIT:          0 MISS:          0
cpu1_L1I PREFETCH REQUESTED:          0 ISSUED:          0 USEFUL:          0 USELESS:          0
cpu1_L1I AVERAGE MISS LATENCY: -nan cycles
cpu1_L1I TOTAL        ACCESS:          0 HIT:          0 MISS:          0
cpu1_L1I LOAD         ACCESS:          0 HIT:          0 MISS:          0
cpu1_L1I RFO          ACCESS:          0 HIT:          0 MISS:          0
cpu1_L1I PREFETCH     ACCESS:          0 HIT:          0 MISS:          0
cpu1_L1I WRITE        ACCESS:          0 HIT:          0 MISS:          0
cpu1_L1I TRANSLATION  ACCESS:          0 HIT:          0 MISS:          0
cpu1_L1I PREFETCH REQUESTED:          0 ISSUED:          0 USEFUL:          0 USELESS:          0
cpu1_L1I AVERAGE MISS LATENCY: -nan cycles
cpu1_L2C TOTAL        ACCESS:          0 HIT:          0 MISS:          0
cpu1_L2C LOAD         ACCESS:          0 HIT:          0 MISS:          0
cpu1_L2C RFO          ACCESS:          0 HIT:          0 MISS:          0
cpu1_L2C PREFETCH     ACCESS:          0 HIT:          0 MISS:          0
cpu1_L2C WRITE        ACCESS:          0 HIT:          0 MISS:          0
cpu1_L2C TRANSLATION  ACCESS:          0 HIT:          0 MISS:          0
cpu1_L2C PREFETCH REQUESTED:          0 ISSUED:          0 USEFUL:          0 USELESS:          0
cpu1_L2C AVERAGE MISS LATENCY: 869.9 cycles
cpu1_L2C TOTAL        ACCESS:   11562165 HIT:    3773668 MISS:    7788497
cpu1_L2C LOAD         ACCESS:    8694816 HIT:    2675799 MISS:    6019017
cpu1_L2C RFO          ACCESS:      67699 HIT:      57733 MISS:       9966
cpu1_L2C PREFETCH     ACCESS:          0 HIT:          0 MISS:          0
cpu1_L2C WRITE        ACCESS:     626921 HIT:     626217 MISS:        704
cpu1_L2C TRANSLATION  ACCESS:    2172729 HIT:     413919 MISS:    1758810
cpu1_L2C PREFETCH REQUESTED:          0 ISSUED:          0 USEFUL:          0 USELESS:          0
cpu1_L2C AVERAGE MISS LATENCY: 869.9 cycles
cpu1_L2C TOTAL        ACCESS:          0 HIT:          0 MISS:          0
cpu1_L2C LOAD         ACCESS:          0 HIT:          0 MISS:          0
cpu1_L2C RFO          ACCESS:          0 HIT:          0 MISS:          0
cpu1_L2C PREFETCH     ACCESS:          0 HIT:          0 MISS:          0
cpu1_L2C WRITE        ACCESS:          0 HIT:          0 MISS:          0
cpu1_L2C TRANSLATION  ACCESS:          0 HIT:          0 MISS:          0
cpu1_L2C PREFETCH REQUESTED:          0 ISSUED:          0 USEFUL:          0 USELESS:          0
cpu1_L2C AVERAGE MISS LATENCY: 869.9 cycles
cpu1_L2C TOTAL        ACCESS:          0 HIT:          0 MISS:          0
cpu1_L2C LOAD         ACCESS:          0 HIT:          0 MISS:          0
cpu1_L2C RFO          ACCESS:          0 HIT:          0 MISS:          0
cpu1_L2C PREFETCH     ACCESS:          0 HIT:          0 MISS:          0
cpu1_L2C WRITE        ACCESS:          0 HIT:          0 MISS:          0
cpu1_L2C TRANSLATION  ACCESS:          0 HIT:          0 MISS:          0
cpu1_L2C PREFETCH REQUESTED:          0 ISSUED:          0 USEFUL:          0 USELESS:          0
cpu1_L2C AVERAGE MISS LATENCY: 869.9 cycles
cpu1_STLB TOTAL        ACCESS:          0 HIT:          0 MISS:          0
cpu1_STLB LOAD         ACCESS:          0 HIT:          0 MISS:          0
cpu1_STLB RFO          ACCESS:          0 HIT:          0 MISS:          0
cpu1_STLB PREFETCH     ACCESS:          0 HIT:          0 MISS:          0
cpu1_STLB WRITE        ACCESS:          0 HIT:          0 MISS:          0
cpu1_STLB TRANSLATION  ACCESS:          0 HIT:          0 MISS:          0
cpu1_STLB PREFETCH REQUESTED:          0 ISSUED:          0 USEFUL:          0 USELESS:          0
cpu1_STLB AVERAGE MISS LATENCY: 961 cycles
cpu1_STLB TOTAL        ACCESS:    3494720 HIT:    1596206 MISS:    1898514
cpu1_STLB LOAD         ACCESS:    3494720 HIT:    1596206 MISS:    1898514
cpu1_STLB RFO          ACCESS:          0 HIT:          0 MISS:          0
cpu1_STLB PREFETCH     ACCESS:          0 HIT:          0 MISS:          0
cpu1_STLB WRITE        ACCESS:          0 HIT:          0 MISS:          0
cpu1_STLB TRANSLATION  ACCESS:          0 HIT:          0 MISS:          0
cpu1_STLB PREFETCH REQUESTED:          0 ISSUED:          0 USEFUL:          0 USELESS:          0
cpu1_STLB AVERAGE MISS LATENCY: 961 cycles
cpu1_STLB TOTAL        ACCESS:          0 HIT:          0 MISS:          0
cpu1_STLB LOAD         ACCESS:          0 HIT:          0 MISS:          0
cpu1_STLB RFO          ACCESS:          0 HIT:          0 MISS:          0
cpu1_STLB PREFETCH     ACCESS:          0 HIT:          0 MISS:          0
cpu1_STLB WRITE        ACCESS:          0 HIT:          0 MISS:          0
cpu1_STLB TRANSLATION  ACCESS:          0 HIT:          0 MISS:          0
cpu1_STLB PREFETCH REQUESTED:          0 ISSUED:          0 USEFUL:          0 USELESS:          0
cpu1_STLB AVERAGE MISS LATENCY: 961 cycles
cpu1_STLB TOTAL        ACCESS:          0 HIT:          0 MISS:          0
cpu1_STLB LOAD         ACCESS:          0 HIT:          0 MISS:          0
cpu1_STLB RFO          ACCESS:          0 HIT:          0 MISS:          0
cpu1_STLB PREFETCH     ACCESS:          0 HIT:          0 MISS:          0
cpu1_STLB WRITE        ACCESS:          0 HIT:          0 MISS:          0
cpu1_STLB TRANSLATION  ACCESS:          0 HIT:          0 MISS:          0
cpu1_STLB PREFETCH REQUESTED:          0 ISSUED:          0 USEFUL:          0 USELESS:          0
cpu1_STLB AVERAGE MISS LATENCY: 961 cycles
cpu2_DTLB TOTAL        ACCESS:          0 HIT:          0 MISS:          0
cpu2_DTLB LOAD         ACCESS:          0 HIT:          0 MISS:          0
cpu2_DTLB RFO          ACCESS:          0 HIT:          0 MISS:          0
cpu2_DTLB PREFETCH     ACCESS:          0 HIT:          0 MISS:          0
cpu2_DTLB WRITE        ACCESS:          0 HIT:          0 MISS:          0
cpu2_DTLB TRANSLATION  ACCESS:          0 HIT:          0 MISS:          0
cpu2_DTLB PREFETCH REQUESTED:          0 ISSUED:          0 USEFUL:          0 USELESS:          0
cpu2_DTLB AVERAGE MISS LATENCY: 46.26 cycles
cpu2_DTLB TOTAL        ACCESS:          0 HIT:          0 MISS:          0
cpu2_DTLB LOAD         ACCESS:          0 HIT:          0 MISS:          0
cpu2_DTLB RFO          ACCESS:          0 HIT:          0 MISS:          0
cpu2_DTLB PREFETCH     ACCESS:          0 HIT:          0 MISS:          0
cpu2_DTLB WRITE        ACCESS:          0 HIT:          0 MISS:          0
cpu2_DTLB TRANSLATION  ACCESS:          0 HIT:          0 MISS:          0
cpu2_DTLB PREFETCH REQUESTED:          0 ISSUED:          0 USEFUL:          0 USELESS:          0
cpu2_DTLB AVERAGE MISS LATENCY: 46.26 cycles
cpu2_DTLB TOTAL        ACCESS:  239741448 HIT:  233215101 MISS:    6526347
cpu2_DTLB LOAD         ACCESS:  239741448 HIT:  233215101 MISS:    6526347
cpu2_DTLB RFO          ACCESS:          0 HIT:          0 MISS:          0
cpu2_DTLB PREFETCH     ACCESS:          0 HIT:          0 MISS:          0
cpu2_DTLB WRITE        ACCESS:          0 HIT:          0 MISS:          0
cpu2_DTLB TRANSLATION  ACCESS:          0 HIT:          0 MISS:          0
cpu2_DTLB PREFETCH REQUESTED:          0 ISSUED:          0 USEFUL:          0 USELESS:          0
cpu2_DTLB AVERAGE MISS LATENCY: 46.26 cycles
cpu2_DTLB TOTAL        ACCESS:          0 HIT:          0 MISS:          0
cpu2_DTLB LOAD         ACCESS:          0 HIT:          0 MISS:          0
cpu2_DTLB RFO          ACCESS:          0 HIT:          0 MISS:          0
cpu2_DTLB PREFETCH     ACCESS:          0 HIT:          0 MISS:          0
cpu2_DTLB WRITE        ACCESS:          0 HIT:          0 MISS:          0
cpu2_DTLB TRANSLATION  ACCESS:          0 HIT:          0 MISS:          0
cpu2_DTLB PREFETCH REQUESTED:          0 ISSUED:          0 USEFUL:          0 USELESS:          0
cpu2_DTLB AVERAGE MISS LATENCY: 46.26 cycles
cpu2_ITLB TOTAL        ACCESS:          0 HIT:          0 MISS:          0
cpu2_ITLB LOAD         ACCESS:          0 HIT:          0 MISS:          0
cpu2_ITLB RFO          ACCESS:          0 HIT:          0 MISS:          0
cpu2_ITLB PREFETCH     ACCESS:          0 HIT:          0 MISS:          0
cpu2_ITLB WRITE        ACCESS:          0 HIT:          0 MISS:          0
cpu2_ITLB TRANSLATION  ACCESS:          0 HIT:          0 MISS:          0
cpu2_ITLB PREFETCH REQUESTED:          0 ISSUED:          0 USEFUL:          0 USELESS:          0
cpu2_ITLB AVERAGE MISS LATENCY: 400.2 cycles
cpu2_ITLB TOTAL        ACCESS:          0 HIT:          0 MISS:          0
cpu2_ITLB LOAD         ACCESS:          0 HIT:          0 MISS:          0
cpu2_ITLB RFO          ACCESS:          0 HIT:          0 MISS:          0
cpu2_ITLB PREFETCH     ACCESS:          0 HIT:          0 MISS:          0
cpu2_ITLB WRITE        ACCESS:          0 HIT:          0 MISS:          0
cpu2_ITLB TRANSLATION  ACCESS:          0 HIT:          0 MISS:          0
cpu2_ITLB PREFETCH REQUESTED:          0 ISSUED:          0 USEFUL:          0 USELESS:          0
cpu2_ITLB AVERAGE MISS LATENCY: 400.2 cycles
cpu2_ITLB TOTAL        ACCESS:       2855 HIT:       2759 MISS:         96
cpu2_ITLB LOAD         ACCESS:       2855 HIT:       2759 MISS:         96
cpu2_ITLB RFO          ACCESS:          0 HIT:          0 MISS:          0
cpu2_ITLB PREFETCH     ACCESS:          0 HIT:          0 MISS:          0
cpu2_ITLB WRITE        ACCESS:          0 HIT:          0 MISS:          0
cpu2_ITLB TRANSLATION  ACCESS:          0 HIT:          0 MISS:          0
cpu2_ITLB PREFETCH REQUESTED:          0 ISSUED:          0 USEFUL:          0 USELESS:          0
cpu2_ITLB AVERAGE MISS LATENCY: 400.2 cycles
cpu2_ITLB TOTAL        ACCESS:          0 HIT:          0 MISS:          0
cpu2_ITLB LOAD         ACCESS:          0 HIT:          0 MISS:          0
cpu2_ITLB RFO          ACCESS:          0 HIT:          0 MISS:          0
cpu2_ITLB PREFETCH     ACCESS:          0 HIT:          0 MISS:          0
cpu2_ITLB WRITE        ACCESS:          0 HIT:          0 MISS:          0
cpu2_ITLB TRANSLATION  ACCESS:          0 HIT:          0 MISS:          0
cpu2_ITLB PREFETCH REQUESTED:          0 ISSUED:          0 USEFUL:          0 USELESS:          0
cpu2_ITLB AVERAGE MISS LATENCY: 400.2 cycles
cpu2_L1D TOTAL        ACCESS:          0 HIT:          0 MISS:          0
cpu2_L1D LOAD         ACCESS:          0 HIT:          0 MISS:          0
cpu2_L1D RFO          ACCESS:          0 HIT:          0 MISS:          0
cpu2_L1D PREFETCH     ACCESS:          0 HIT:          0 MISS:          0
cpu2_L1D WRITE        ACCESS:          0 HIT:          0 MISS:          0
cpu2_L1D TRANSLATION  ACCESS:          0 HIT:          0 MISS:          0
cpu2_L1D PREFETCH REQUESTED:          0 ISSUED:          0 USEFUL:          0 USELESS:          0
cpu2_L1D AVERAGE MISS LATENCY: 284.6 cycles
cpu2_L1D TOTAL        ACCESS:          0 HIT:          0 MISS:          0
cpu2_L1D LOAD         ACCESS:          0 HIT:          0 MISS:          0
cpu2_L1D RFO          ACCESS:          0 HIT:          0 MISS:          0
cpu2_L1D PREFETCH     ACCESS:          0 HIT:          0 MISS:          0
cpu2_L1D WRITE        ACCESS:          0 HIT:          0 MISS:          0
cpu2_L1D TRANSLATION  ACCESS:          0 HIT:          0 MISS:          0
cpu2_L1D PREFETCH REQUESTED:          0 ISSUED:          0 USEFUL:          0 USELESS:          0
cpu2_L1D AVERAGE MISS LATENCY: 284.6 cycles
cpu2_L1D TOTAL        ACCESS:  277706253 HIT:  252532499 MISS:   25173754
cpu2_L1D LOAD         ACCESS:  222668045 HIT:  199148001 MISS:   23520044
cpu2_L1D RFO          ACCESS:          0 HIT:          0 MISS:          0
cpu2_L1D PREFETCH     ACCESS:          0 HIT:          0 MISS:          0
cpu2_L1D WRITE        ACCESS:   54168452 HIT:   53226271 MISS:     942181
cpu2_L1D TRANSLATION  ACCESS:     869756 HIT:     158227 MISS:     711529
cpu2_L1D PREFETCH REQUESTED:          0 ISSUED:          0 USEFUL:          0 USELESS:          0
cpu2_L1D AVERAGE MISS LATENCY: 284.6 cycles
cpu2_L1D TOTAL        ACCESS:          0 HIT:          0 MISS:          0
cpu2_L1D LOAD         ACCESS:          0 HIT:          0 MISS:          0
cpu2_L1D RFO          ACCESS:          0 HIT:          0 MISS:          0
cpu2_L1D PREFETCH     ACCESS:          0 HIT:          0 MISS:          0
cpu2_L1D WRITE        ACCESS:          0 HIT:          0 MISS:          0
cpu2_L1D TRANSLATION  ACCESS:          0 HIT:          0 MISS:          0
cpu2_L1D PREFETCH REQUESTED:          0 ISSUED:          0 USEFUL:          0 USELESS:          0
cpu2_L1D AVERAGE MISS LATENCY: 284.6 cycles
cpu2_L1I TOTAL        ACCESS:          0 HIT:          0 MISS:          0
cpu2_L1I LOAD         ACCESS:          0 HIT:          0 MISS:          0
cpu2_L1I RFO          ACCESS:          0 HIT:          0 MISS:          0
cpu2_L1I PREFETCH     ACCESS:          0 HIT:          0 MISS:          0
cpu2_L1I WRITE        ACCESS:          0 HIT:          0 MISS:          0
cpu2_L1I TRANSLATION  ACCESS:          0 HIT:          0 MISS:          0
cpu2_L1I PREFETCH REQUESTED:          0 ISSUED:          0 USEFUL:          0 USELESS:          0
cpu2_L1I AVERAGE MISS LATENCY: 905.4 cycles
cpu2_L1I TOTAL        ACCESS:          0 HIT:          0 MISS:          0
cpu2_L1I LOAD         ACCESS:          0 HIT:          0 MISS:          0
[...]
cpu2_L1I WRITE        ACCESS:          0 HIT:          0 MISS:          0
cpu2_L1I TRANSLATION  ACCESS:          0 HIT:          0 MISS:          0
cpu2_L1I PREFETCH REQUESTED:          0 ISSUED:          0 USEFUL:          0 USELESS:          0
cpu2_L1I AVERAGE MISS LATENCY: 905.4 cycles
cpu2_L1I TOTAL        ACCESS:          0 HIT:          0 MISS:          0
cpu2_L1I LOAD         ACCESS:          0 HIT:          0 MISS:          0
cpu2_L1I RFO          ACCESS:          0 HIT:          0 MISS:          0
cpu2_L1I PREFETCH     ACCESS:          0 HIT:          0 MISS:          0
cpu2_L1I WRITE        ACCESS:          0 HIT:          0 MISS:          0
cpu2_L1I TRANSLATION  ACCESS:          0 HIT:          0 MISS:          0
cpu2_L1I PREFETCH REQUESTED:          0 ISSUED:          0 USEFUL:          0 USELESS:          0
cpu2_L1I AVERAGE MISS LATENCY: 905.4 cycles
cpu2_L2C TOTAL        ACCESS:          0 HIT:          0 MISS:          0
cpu2_L2C LOAD         ACCESS:          0 HIT:          0 MISS:          0
cpu2_L2C RFO          ACCESS:          0 HIT:          0 MISS:          0
cpu2_L2C PREFETCH     ACCESS:          0 HIT:          0 MISS:          0
cpu2_L2C WRITE        ACCESS:          0 HIT:          0 MISS:          0
cpu2_L2C TRANSLATION  ACCESS:          0 HIT:          0 MISS:          0
cpu2_L2C PREFETCH REQUESTED:          0 ISSUED:          0 USEFUL:          0 USELESS:          0
cpu2_L2C AVERAGE MISS LATENCY: 1116 cycles
cpu2_L2C TOTAL        ACCESS:          0 HIT:          0 MISS:          0
cpu2_L2C LOAD         ACCESS:          0 HIT:          0 MISS:          0
cpu2_L2C RFO          ACCESS:          0 HIT:          0 MISS:          0
cpu2_L2C PREFETCH     ACCESS:          0 HIT:          0 MISS:          0
cpu2_L2C WRITE        ACCESS:          0 HIT:          0 MISS:          0
cpu2_L2C TRANSLATION  ACCESS:          0 HIT:          0 MISS:          0
cpu2_L2C PREFETCH REQUESTED:          0 ISSUED:          0 USEFUL:          0 USELESS:          0
cpu2_L2C AVERAGE MISS LATENCY: 1116 cycles
cpu2_L2C TOTAL        ACCESS:    2433862 HIT:    1159102 MISS:    1274760
cpu2_L2C LOAD         ACCESS:    1529412 HIT:     270981 MISS:    1258431
cpu2_L2C RFO          ACCESS:       2389 HIT:       2374 MISS:         15
cpu2_L2C PREFETCH     ACCESS:          0 HIT:          0 MISS:          0
cpu2_L2C WRITE        ACCESS:     739112 HIT:     739075 MISS:         37
cpu2_L2C TRANSLATION  ACCESS:     162949 HIT:     146672 MISS:      16277
cpu2_L2C PREFETCH REQUESTED:          0 ISSUED:          0 USEFUL:          0 USELESS:          0
cpu2_L2C AVERAGE MISS LATENCY: 1116 cycles
cpu2_L2C TOTAL        ACCESS:          0 HIT:          0 MISS:          0
cpu2_L2C LOAD         ACCESS:          0 HIT:          0 MISS:          0
cpu2_L2C RFO          ACCESS:          0 HIT:          0 MISS:          0
cpu2_L2C PREFETCH     ACCESS:          0 HIT:          0 MISS:          0
cpu2_L2C WRITE        ACCESS:          0 HIT:          0 MISS:          0
cpu2_L2C TRANSLATION  ACCESS:          0 HIT:          0 MISS:          0
cpu2_L2C PREFETCH REQUESTED:          0 ISSUED:          0 USEFUL:          0 USELESS:          0
cpu2_L2C AVERAGE MISS LATENCY: 1116 cycles
cpu2_STLB TOTAL        ACCESS:          0 HIT:          0 MISS:          0
cpu2_STLB LOAD         ACCESS:          0 HIT:          0 MISS:          0
cpu2_STLB RFO          ACCESS:          0 HIT:          0 MISS:          0
cpu2_STLB PREFETCH     ACCESS:          0 HIT:          0 MISS:          0
cpu2_STLB WRITE        ACCESS:          0 HIT:          0 MISS:          0
cpu2_STLB TRANSLATION  ACCESS:          0 HIT:          0 MISS:          0
cpu2_STLB PREFETCH REQUESTED:          0 ISSUED:          0 USEFUL:          0 USELESS:          0
cpu2_STLB AVERAGE MISS LATENCY: 396.2 cycles
cpu2_STLB TOTAL        ACCESS:          0 HIT:          0 MISS:          0
cpu2_STLB LOAD         ACCESS:          0 HIT:          0 MISS:          0
cpu2_STLB RFO          ACCESS:          0 HIT:          0 MISS:          0
cpu2_STLB PREFETCH     ACCESS:          0 HIT:          0 MISS:          0
cpu2_STLB WRITE        ACCESS:          0 HIT:          0 MISS:          0
cpu2_STLB TRANSLATION  ACCESS:          0 HIT:          0 MISS:          0
cpu2_STLB PREFETCH REQUESTED:          0 ISSUED:          0 USEFUL:          0 USELESS:          0
cpu2_STLB AVERAGE MISS LATENCY: 396.2 cycles
cpu2_STLB TOTAL        ACCESS:     310640 HIT:     108196 MISS:     202444
cpu2_STLB LOAD         ACCESS:     310640 HIT:     108196 MISS:     202444
cpu2_STLB RFO          ACCESS:          0 HIT:          0 MISS:          0
cpu2_STLB PREFETCH     ACCESS:          0 HIT:          0 MISS:          0
cpu2_STLB WRITE        ACCESS:          0 HIT:          0 MISS:          0
cpu2_STLB TRANSLATION  ACCESS:          0 HIT:          0 MISS:          0
cpu2_STLB PREFETCH REQUESTED:          0 ISSUED:          0 USEFUL:          0 USELESS:          0
cpu2_STLB AVERAGE MISS LATENCY: 396.2 cycles
cpu2_STLB TOTAL        ACCESS:          0 HIT:          0 MISS:          0
cpu2_STLB LOAD         ACCESS:          0 HIT:          0 MISS:          0
cpu2_STLB RFO          ACCESS:          0 HIT:          0 MISS:          0
cpu2_STLB PREFETCH     ACCESS:          0 HIT:          0 MISS:          0
cpu2_STLB WRITE        ACCESS:          0 HIT:          0 MISS:          0
cpu2_STLB TRANSLATION  ACCESS:          0 HIT:          0 MISS:          0
cpu2_STLB PREFETCH REQUESTED:          0 ISSUED:          0 USEFUL:          0 USELESS:          0
cpu2_STLB AVERAGE MISS LATENCY: 396.2 cycles
cpu3_DTLB TOTAL        ACCESS:          0 HIT:          0 MISS:          0
cpu3_DTLB LOAD         ACCESS:          0 HIT:          0 MISS:          0
cpu3_DTLB RFO          ACCESS:          0 HIT:          0 MISS:          0
cpu3_DTLB PREFETCH     ACCESS:          0 HIT:          0 MISS:          0
cpu3_DTLB WRITE        ACCESS:          0 HIT:          0 MISS:          0
cpu3_DTLB TRANSLATION  ACCESS:          0 HIT:          0 MISS:          0
cpu3_DTLB PREFETCH REQUESTED:          0 ISSUED:          0 USEFUL:          0 USELESS:          0
cpu3_DTLB AVERAGE MISS LATENCY: 387 cycles
cpu3_DTLB TOTAL        ACCESS:          0 HIT:          0 MISS:          0
cpu3_DTLB LOAD         ACCESS:          0 HIT:          0 MISS:          0
cpu3_DTLB RFO          ACCESS:          0 HIT:          0 MISS:          0
cpu3_DTLB PREFETCH     ACCESS:          0 HIT:          0 MISS:          0
cpu3_DTLB WRITE        ACCESS:          0 HIT:          0 MISS:          0
cpu3_DTLB TRANSLATION  ACCESS:          0 HIT:          0 MISS:          0
cpu3_DTLB PREFETCH REQUESTED:          0 ISSUED:          0 USEFUL:          0 USELESS:          0
cpu3_DTLB AVERAGE MISS LATENCY: 387 cycles
cpu3_DTLB TOTAL        ACCESS:          0 HIT:          0 MISS:          0
cpu3_DTLB LOAD         ACCESS:          0 HIT:          0 MISS:          0
cpu3_DTLB RFO          ACCESS:          0 HIT:          0 MISS:          0
cpu3_DTLB PREFETCH     ACCESS:          0 HIT:          0 MISS:          0
cpu3_DTLB WRITE        ACCESS:          0 HIT:          0 MISS:          0
cpu3_DTLB TRANSLATION  ACCESS:          0 HIT:          0 MISS:          0
cpu3_DTLB PREFETCH REQUESTED:          0 ISSUED:          0 USEFUL:          0 USELESS:          0
cpu3_DTLB AVERAGE MISS LATENCY: 387 cycles
cpu3_DTLB TOTAL        ACCESS:   38931458 HIT:   32976725 MISS:    5954733
cpu3_DTLB LOAD         ACCESS:   38931458 HIT:   32976725 MISS:    5954733
cpu3_DTLB RFO          ACCESS:          0 HIT:          0 MISS:          0
cpu3_DTLB PREFETCH     ACCESS:          0 HIT:          0 MISS:          0
cpu3_DTLB WRITE        ACCESS:          0 HIT:          0 MISS:          0
cpu3_DTLB TRANSLATION  ACCESS:          0 HIT:          0 MISS:          0
cpu3_DTLB PREFETCH REQUESTED:          0 ISSUED:          0 USEFUL:          0 USELESS:          0
cpu3_DTLB AVERAGE MISS LATENCY: 387 cycles
cpu3_ITLB TOTAL        ACCESS:          0 HIT:          0 MISS:          0
cpu3_ITLB LOAD         ACCESS:          0 HIT:          0 MISS:          0
cpu3_ITLB RFO          ACCESS:          0 HIT:          0 MISS:          0
cpu3_ITLB PREFETCH     ACCESS:          0 HIT:          0 MISS:          0
cpu3_ITLB WRITE        ACCESS:          0 HIT:          0 MISS:          0
cpu3_ITLB TRANSLATION  ACCESS:          0 HIT:          0 MISS:          0
cpu3_ITLB PREFETCH REQUESTED:          0 ISSUED:          0 USEFUL:          0 USELESS:          0
cpu3_ITLB AVERAGE MISS LATENCY: -nan cycles
cpu3_ITLB TOTAL        ACCESS:          0 HIT:          0 MISS:          0
cpu3_ITLB LOAD         ACCESS:          0 HIT:          0 MISS:          0
cpu3_ITLB RFO          ACCESS:          0 HIT:          0 MISS:          0
cpu3_ITLB PREFETCH     ACCESS:          0 HIT:          0 MISS:          0
cpu3_ITLB WRITE        ACCESS:          0 HIT:          0 MISS:          0
cpu3_ITLB TRANSLATION  ACCESS:          0 HIT:          0 MISS:          0
cpu3_ITLB PREFETCH REQUESTED:          0 ISSUED:          0 USEFUL:          0 USELESS:          0
cpu3_ITLB AVERAGE MISS LATENCY: -nan cycles
cpu3_ITLB TOTAL        ACCESS:          0 HIT:          0 MISS:          0
cpu3_ITLB LOAD         ACCESS:          0 HIT:          0 MISS:          0
cpu3_ITLB RFO          ACCESS:          0 HIT:          0 MISS:          0
cpu3_ITLB PREFETCH     ACCESS:          0 HIT:          0 MISS:          0
cpu3_ITLB WRITE        ACCESS:          0 HIT:          0 MISS:          0
cpu3_ITLB TRANSLATION  ACCESS:          0 HIT:          0 MISS:          0
cpu3_ITLB PREFETCH REQUESTED:          0 ISSUED:          0 USEFUL:          0 USELESS:          0
cpu3_ITLB AVERAGE MISS LATENCY: -nan cycles
cpu3_ITLB TOTAL        ACCESS:        244 HIT:        244 MISS:          0
cpu3_ITLB LOAD         ACCESS:        244 HIT:        244 MISS:          0
cpu3_ITLB RFO          ACCESS:          0 HIT:          0 MISS:          0
cpu3_ITLB PREFETCH     ACCESS:          0 HIT:          0 MISS:          0
cpu3_ITLB WRITE        ACCESS:          0 HIT:          0 MISS:          0
cpu3_ITLB TRANSLATION  ACCESS:          0 HIT:          0 MISS:          0
cpu3_ITLB PREFETCH REQUESTED:          0 ISSUED:          0 USEFUL:          0 USELESS:          0
cpu3_ITLB AVERAGE MISS LATENCY: -nan cycles
cpu3_L1D TOTAL        ACCESS:          0 HIT:          0 MISS:          0
cpu3_L1D LOAD         ACCESS:          0 HIT:          0 MISS:          0
cpu3_L1D RFO          ACCESS:          0 HIT:          0 MISS:          0
cpu3_L1D PREFETCH     ACCESS:          0 HIT:          0 MISS:          0
cpu3_L1D WRITE        ACCESS:          0 HIT:          0 MISS:          0
cpu3_L1D TRANSLATION  ACCESS:          0 HIT:          0 MISS:          0
cpu3_L1D PREFETCH REQUESTED:          0 ISSUED:          0 USEFUL:          0 USELESS:          0
cpu3_L1D AVERAGE MISS LATENCY: 1156 cycles
cpu3_L1D TOTAL        ACCESS:          0 HIT:          0 MISS:          0
cpu3_L1D LOAD         ACCESS:          0 HIT:          0 MISS:          0
cpu3_L1D RFO          ACCESS:          0 HIT:          0 MISS:          0
cpu3_L1D PREFETCH     ACCESS:          0 HIT:          0 MISS:          0
cpu3_L1D WRITE        ACCESS:          0 HIT:          0 MISS:          0
cpu3_L1D TRANSLATION  ACCESS:          0 HIT:          0 MISS:          0
cpu3_L1D PREFETCH REQUESTED:          0 ISSUED:          0 USEFUL:          0 USELESS:          0
cpu3_L1D AVERAGE MISS LATENCY: 1156 cycles
cpu3_L1D TOTAL        ACCESS:          0 HIT:          0 MISS:          0
cpu3_L1D LOAD         ACCESS:          0 HIT:          0 MISS:          0
cpu3_L1D RFO          ACCESS:          0 HIT:          0 MISS:          0
cpu3_L1D PREFETCH     ACCESS:          0 HIT:          0 MISS:          0
cpu3_L1D WRITE        ACCESS:          0 HIT:          0 MISS:          0
cpu3_L1D TRANSLATION  ACCESS:          0 HIT:          0 MISS:          0
cpu3_L1D PREFETCH REQUESTED:          0 ISSUED:          0 USEFUL:          0 USELESS:          0
cpu3_L1D AVERAGE MISS LATENCY: 1156 cycles
cpu3_L1D TOTAL        ACCESS:   49199463 HIT:   38381941 MISS:   10817522
cpu3_L1D LOAD         ACCESS:   27214656 HIT:   21273172 MISS:    5941484
cpu3_L1D RFO          ACCESS:          0 HIT:          0 MISS:          0
cpu3_L1D PREFETCH     ACCESS:          0 HIT:          0 MISS:          0
cpu3_L1D WRITE        ACCESS:   18964788 HIT:   15953561 MISS:    3011227
cpu3_L1D TRANSLATION  ACCESS:    3020019 HIT:    1155208 MISS:    1864811
cpu3_L1D PREFETCH REQUESTED:          0 ISSUED:          0 USEFUL:          0 USELESS:          0
cpu3_L1D AVERAGE MISS LATENCY: 1156 cycles
cpu3_L1I TOTAL        ACCESS:          0 HIT:          0 MISS:          0
cpu3_L1I LOAD         ACCESS:          0 HIT:          0 MISS:          0
cpu3_L1I RFO          ACCESS:          0 HIT:          0 MISS:          0
cpu3_L1I PREFETCH     ACCESS:          0 HIT:          0 MISS:          0
cpu3_L1I WRITE        ACCESS:          0 HIT:          0 MISS:          0
cpu3_L1I TRANSLATION  ACCESS:          0 HIT:          0 MISS:          0
cpu3_L1I PREFETCH REQUESTED:          0 ISSUED:          0 USEFUL:          0 USELESS:          0
cpu3_L1I AVERAGE MISS LATENCY: 925.1 cycles
cpu3_L1I TOTAL        ACCESS:          0 HIT:          0 MISS:          0
cpu3_L1I LOAD         ACCESS:          0 HIT:          0 MISS:          0
cpu3_L1I RFO          ACCESS:          0 HIT:          0 MISS:          0
cpu3_L1I PREFETCH     ACCESS:          0 HIT:          0 MISS:          0
cpu3_L1I WRITE        ACCESS:          0 HIT:          0 MISS:          0
cpu3_L1I TRANSLATION  ACCESS:          0 HIT:          0 MISS:          0
cpu3_L1I PREFETCH REQUESTED:          0 ISSUED:          0 USEFUL:          0 USELESS:          0
cpu3_L1I AVERAGE MISS LATENCY: 925.1 cycles
cpu3_L1I TOTAL        ACCESS:          0 HIT:          0 MISS:          0
cpu3_L1I LOAD         ACCESS:          0 HIT:          0 MISS:          0
cpu3_L1I RFO          ACCESS:          0 HIT:          0 MISS:          0
cpu3_L1I PREFETCH     ACCESS:          0 HIT:          0 MISS:          0
cpu3_L1I WRITE        ACCESS:          0 HIT:          0 MISS:          0
cpu3_L1I TRANSLATION  ACCESS:          0 HIT:          0 MISS:          0
cpu3_L1I PREFETCH REQUESTED:          0 ISSUED:          0 USEFUL:          0 USELESS:          0
cpu3_L1I AVERAGE MISS LATENCY: 925.1 cycles
cpu3_L1I TOTAL        ACCESS:        246 HIT:        237 MISS:          9
cpu3_L1I LOAD         ACCESS:        246 HIT:        237 MISS:          9
cpu3_L1I RFO          ACCESS:          0 HIT:          0 MISS:          0
cpu3_L1I PREFETCH     ACCESS:          0 HIT:          0 MISS:          0
cpu3_L1I WRITE        ACCESS:          0 HIT:          0 MISS:          0
cpu3_L1I TRANSLATION  ACCESS:          0 HIT:          0 MISS:          0
cpu3_L1I PREFETCH REQUESTED:          0 ISSUED:          0 USEFUL:          0 USELESS:          0
cpu3_L1I AVERAGE MISS LATENCY: 925.1 cycles
cpu3_L2C TOTAL        ACCESS:          0 HIT:          0 MISS:          0
cpu3_L2C LOAD         ACCESS:          0 HIT:          0 MISS:          0
cpu3_L2C RFO          ACCESS:          0 HIT:          0 MISS:          0
cpu3_L2C PREFETCH     ACCESS:          0 HIT:          0 MISS:          0
cpu3_L2C WRITE        ACCESS:          0 HIT:          0 MISS:          0
cpu3_L2C TRANSLATION  ACCESS:          0 HIT:          0 MISS:          0
cpu3_L2C PREFETCH REQUESTED:          0 ISSUED:          0 USEFUL:          0 USELESS:          0
cpu3_L2C AVERAGE MISS LATENCY: 1697 cycles
cpu3_L2C TOTAL        ACCESS:          0 HIT:          0 MISS:          0
cpu3_L2C LOAD         ACCESS:          0 HIT:          0 MISS:          0
cpu3_L2C RFO          ACCESS:          0 HIT:          0 MISS:          0
cpu3_L2C PREFETCH     ACCESS:          0 HIT:          0 MISS:          0
cpu3_L2C WRITE        ACCESS:          0 HIT:          0 MISS:          0
cpu3_L2C TRANSLATION  ACCESS:          0 HIT:          0 MISS:          0
cpu3_L2C PREFETCH REQUESTED:          0 ISSUED:          0 USEFUL:          0 USELESS:          0
cpu3_L2C AVERAGE MISS LATENCY: 1697 cycles
cpu3_L2C TOTAL        ACCESS:          0 HIT:          0 MISS:          0
cpu3_L2C LOAD         ACCESS:          0 HIT:          0 MISS:          0
cpu3_L2C RFO          ACCESS:          0 HIT:          0 MISS:          0
cpu3_L2C PREFETCH     ACCESS:          0 HIT:          0 MISS:          0
cpu3_L2C WRITE        ACCESS:          0 HIT:          0 MISS:          0
cpu3_L2C TRANSLATION  ACCESS:          0 HIT:          0 MISS:          0
cpu3_L2C PREFETCH REQUESTED:          0 ISSUED:          0 USEFUL:          0 USELESS:          0
cpu3_L2C AVERAGE MISS LATENCY: 1697 cycles
cpu3_L2C TOTAL        ACCESS:   14050268 HIT:    6685795 MISS:    7364473
cpu3_L2C LOAD         ACCESS:    5003730 HIT:    1944132 MISS:    3059598
cpu3_L2C RFO          ACCESS:    3009385 HIT:     130486 MISS:    2878899
cpu3_L2C PREFETCH     ACCESS:          0 HIT:          0 MISS:          0
cpu3_L2C WRITE        ACCESS:    4178241 HIT:    4178091 MISS:        150
cpu3_L2C TRANSLATION  ACCESS:    1858912 HIT:     433086 MISS:    1425826
cpu3_L2C PREFETCH REQUESTED:          0 ISSUED:          0 USEFUL:          0 USELESS:          0
cpu3_L2C AVERAGE MISS LATENCY: 1697 cycles
cpu3_STLB TOTAL        ACCESS:          0 HIT:          0 MISS:          0
cpu3_STLB LOAD         ACCESS:          0 HIT:          0 MISS:          0
cpu3_STLB RFO          ACCESS:          0 HIT:          0 MISS:          0
cpu3_STLB PREFETCH     ACCESS:          0 HIT:          0 MISS:          0
cpu3_STLB WRITE        ACCESS:          0 HIT:          0 MISS:          0
cpu3_STLB TRANSLATION  ACCESS:          0 HIT:          0 MISS:          0
cpu3_STLB PREFETCH REQUESTED:          0 ISSUED:          0 USEFUL:          0 USELESS:          0
cpu3_STLB AVERAGE MISS LATENCY: 869.3 cycles
cpu3_STLB TOTAL        ACCESS:          0 HIT:          0 MISS:          0
cpu3_STLB LOAD         ACCESS:          0 HIT:          0 MISS:          0
cpu3_STLB RFO          ACCESS:          0 HIT:          0 MISS:          0
cpu3_STLB PREFETCH     ACCESS:          0 HIT:          0 MISS:          0
cpu3_STLB WRITE        ACCESS:          0 HIT:          0 MISS:          0
cpu3_STLB TRANSLATION  ACCESS:          0 HIT:          0 MISS:          0
cpu3_STLB PREFETCH REQUESTED:          0 ISSUED:          0 USEFUL:          0 USELESS:          0
cpu3_STLB AVERAGE MISS LATENCY: 869.3 cycles
cpu3_STLB TOTAL        ACCESS:          0 HIT:          0 MISS:          0
cpu3_STLB LOAD         ACCESS:          0 HIT:          0 MISS:          0
cpu3_STLB RFO          ACCESS:          0 HIT:          0 MISS:          0
cpu3_STLB PREFETCH     ACCESS:          0 HIT:          0 MISS:          0
cpu3_STLB WRITE        ACCESS:          0 HIT:          0 MISS:          0
cpu3_STLB TRANSLATION  ACCESS:          0 HIT:          0 MISS:          0
cpu3_STLB PREFETCH REQUESTED:          0 ISSUED:          0 USEFUL:          0 USELESS:          0
cpu3_STLB AVERAGE MISS LATENCY: 869.3 cycles
cpu3_STLB TOTAL        ACCESS:    5154495 HIT:    2457147 MISS:    2697348
cpu3_STLB LOAD         ACCESS:    5154495 HIT:    2457147 MISS:    2697348
cpu3_STLB RFO          ACCESS:          0 HIT:          0 MISS:          0
cpu3_STLB PREFETCH     ACCESS:          0 HIT:          0 MISS:          0
cpu3_STLB WRITE        ACCESS:          0 HIT:          0 MISS:          0
cpu3_STLB TRANSLATION  ACCESS:          0 HIT:          0 MISS:          0
cpu3_STLB PREFETCH REQUESTED:          0 ISSUED:          0 USEFUL:          0 USELESS:          0
cpu3_STLB AVERAGE MISS LATENCY: 869.3 cycles

DRAM Statistics

Channel 0 RQ ROW_BUFFER_HIT:    4504672
  ROW_BUFFER_MISS:   22710638
 AVG DBUS CONGESTED CYCLE: 3.991
WQ ROW_BUFFER_HIT: Channel 0 
  ROW_BUFFER_MISS:      65244
  FULL:    9764568
