WARNING: physical memory size is smaller than virtual memory size.
WARNING: option --warmup_instructions is deprecated. Use --warmup-instructions instead.
WARNING: option --simulation_instructions is deprecated. Use --simulation-instructions instead.

*** ChampSim Multicore Out-of-Order Simulator ***
Warmup Instructions: 50000000
Simulation Instructions: 150000000
Number of CPUs: 4
Page size: 4096

Off-chip DRAM Size: 4 GiB Channels: 1 Width: 64-bit Data Race: 3200 MT/s
Heartbeat CPU 3 instructions: 10000000 cycles: 2500054 heartbeat IPC: 4 cumulative IPC: 4 (Simulation time: 00 hr 02 min 10 sec)
Heartbeat CPU 2 instructions: 10000001 cycles: 2838543 heartbeat IPC: 3.523 cumulative IPC: 3.523 (Simulation time: 00 hr 02 min 29 sec)
Heartbeat CPU 0 instructions: 10000001 cycles: 3698417 heartbeat IPC: 2.704 cumulative IPC: 2.704 (Simulation time: 00 hr 03 min 12 sec)
Heartbeat CPU 1 instructions: 10000000 cycles: 3913928 heartbeat IPC: 2.555 cumulative IPC: 2.555 (Simulation time: 00 hr 03 min 23 sec)
Heartbeat CPU 3 instructions: 20000000 cycles: 5000054 heartbeat IPC: 4 cumulative IPC: 4 (Simulation time: 00 hr 04 min 19 sec)
Heartbeat CPU 2 instructions: 20000003 cycles: 5753746 heartbeat IPC: 3.43 cumulative IPC: 3.476 (Simulation time: 00 hr 04 min 59 sec)
Heartbeat CPU 0 instructions: 20000001 cycles: 7401596 heartbeat IPC: 2.7 cumulative IPC: 2.702 (Simulation time: 00 hr 06 min 25 sec)
Heartbeat CPU 3 instructions: 30000000 cycles: 7500054 heartbeat IPC: 4 cumulative IPC: 4 (Simulation time: 00 hr 06 min 31 sec)
Heartbeat CPU 1 instructions: 20000004 cycles: 7829208 heartbeat IPC: 2.554 cumulative IPC: 2.555 (Simulation time: 00 hr 06 min 47 sec)
Heartbeat CPU 2 instructions: 30000002 cycles: 8694868 heartbeat IPC: 3.4 cumulative IPC: 3.45 (Simulation time: 00 hr 07 min 34 sec)
Heartbeat CPU 3 instructions: 40000000 cycles: 10000054 heartbeat IPC: 4 cumulative IPC: 4 (Simulation time: 00 hr 08 min 42 sec)
Heartbeat CPU 0 instructions: 30000003 cycles: 11101164 heartbeat IPC: 2.703 cumulative IPC: 2.702 (Simulation time: 00 hr 09 min 39 sec)
Heartbeat CPU 2 instructions: 40000001 cycles: 11628710 heartbeat IPC: 3.408 cumulative IPC: 3.44 (Simulation time: 00 hr 10 min 08 sec)
Heartbeat CPU 1 instructions: 30000001 cycles: 11746121 heartbeat IPC: 2.553 cumulative IPC: 2.554 (Simulation time: 00 hr 10 min 14 sec)
Heartbeat CPU 3 instructions: 50000000 cycles: 12500054 heartbeat IPC: 4 cumulative IPC: 4 (Simulation time: 00 hr 10 min 52 sec)
Warmup finished CPU 3 instructions: 50000000 cycles: 12500055 cumulative IPC: 4 (Simulation time: 00 hr 10 min 52 sec)
Heartbeat CPU 2 instructions: 50000002 cycles: 14564564 heartbeat IPC: 3.406 cumulative IPC: 3.433 (Simulation time: 00 hr 12 min 39 sec)
Warmup finished CPU 2 instructions: 50000002 cycles: 14564565 cumulative IPC: 3.433 (Simulation time: 00 hr 12 min 39 sec)
Heartbeat CPU 0 instructions: 40000001 cycles: 14803872 heartbeat IPC: 2.701 cumulative IPC: 2.702 (Simulation time: 00 hr 12 min 52 sec)
Heartbeat CPU 3 instructions: 60000000 cycles: 15000054 heartbeat IPC: 4 cumulative IPC: 4 (Simulation time: 00 hr 13 min 03 sec)
Heartbeat CPU 1 instructions: 40000000 cycles: 15673185 heartbeat IPC: 2.546 cumulative IPC: 2.552 (Simulation time: 00 hr 13 min 39 sec)
Heartbeat CPU 2 instructions: 60000002 cycles: 17470348 heartbeat IPC: 3.441 cumulative IPC: 3.434 (Simulation time: 00 hr 15 min 14 sec)
Heartbeat CPU 3 instructions: 70000000 cycles: 17500054 heartbeat IPC: 4 cumulative IPC: 4 (Simulation time: 00 hr 15 min 15 sec)
Heartbeat CPU 0 instructions: 50000003 cycles: 18506994 heartbeat IPC: 2.7 cumulative IPC: 2.702 (Simulation time: 00 hr 16 min 07 sec)
Warmup finished CPU 0 instructions: 50000003 cycles: 18506995 cumulative IPC: 2.702 (Simulation time: 00 hr 16 min 07 sec)
Heartbeat CPU 1 instructions: 50000000 cycles: 19581855 heartbeat IPC: 2.558 cumulative IPC: 2.553 (Simulation time: 00 hr 17 min 04 sec)
Warmup finished CPU 1 instructions: 50000000 cycles: 19581856 cumulative IPC: 2.553 (Simulation time: 00 hr 17 min 04 sec)
Warmup complete CPU 0 instructions: 52902978 cycles: 19581856 cumulative IPC: 2.702 (Simulation time: 00 hr 17 min 04 sec)
Warmup complete CPU 1 instructions: 50000000 cycles: 19581856 cumulative IPC: 2.553 (Simulation time: 00 hr 17 min 04 sec)
Warmup complete CPU 2 instructions: 67095782 cycles: 19581856 cumulative IPC: 3.426 (Simulation time: 00 hr 17 min 04 sec)
Warmup complete CPU 3 instructions: 78327204 cycles: 19581856 cumulative IPC: 4 (Simulation time: 00 hr 17 min 04 sec)
Heartbeat CPU 2 instructions: 70000001 cycles: 23131738 heartbeat IPC: 1.766 cumulative IPC: 0.8181 (Simulation time: 00 hr 18 min 37 sec)
Heartbeat CPU 3 instructions: 80000002 cycles: 25832001 heartbeat IPC: 1.2 cumulative IPC: 0.2676 (Simulation time: 00 hr 19 min 49 sec)
Heartbeat CPU 2 instructions: 80000002 cycles: 36341187 heartbeat IPC: 0.757 cumulative IPC: 0.77 (Simulation time: 00 hr 24 min 14 sec)
Heartbeat CPU 0 instructions: 60000003 cycles: 39744500 heartbeat IPC: 0.4709 cumulative IPC: 0.352 (Simulation time: 00 hr 25 min 39 sec)
Heartbeat CPU 2 instructions: 90000003 cycles: 48916292 heartbeat IPC: 0.7952 cumulative IPC: 0.7808 (Simulation time: 00 hr 29 min 46 sec)
Heartbeat CPU 2 instructions: 100000001 cycles: 60729103 heartbeat IPC: 0.8465 cumulative IPC: 0.7997 (Simulation time: 00 hr 34 min 59 sec)
Heartbeat CPU 3 instructions: 90000004 cycles: 62100520 heartbeat IPC: 0.2757 cumulative IPC: 0.2745 (Simulation time: 00 hr 35 min 35 sec)
Heartbeat CPU 0 instructions: 70000001 cycles: 67034183 heartbeat IPC: 0.3664 cumulative IPC: 0.3603 (Simulation time: 00 hr 37 min 43 sec)
Heartbeat CPU 2 instructions: 110000002 cycles: 72597342 heartbeat IPC: 0.8426 cumulative IPC: 0.8093 (Simulation time: 00 hr 40 min 11 sec)
Heartbeat CPU 2 instructions: 120000000 cycles: 84741711 heartbeat IPC: 0.8234 cumulative IPC: 0.8119 (Simulation time: 00 hr 45 min 19 sec)
Heartbeat CPU 1 instructions: 60000003 cycles: 87190310 heartbeat IPC: 0.1479 cumulative IPC: 0.1479 (Simulation time: 00 hr 46 min 25 sec)
Heartbeat CPU 0 instructions: 80000000 cycles: 94124292 heartbeat IPC: 0.3691 cumulative IPC: 0.3635 (Simulation time: 00 hr 49 min 22 sec)
Heartbeat CPU 2 instructions: 130000000 cycles: 97953931 heartbeat IPC: 0.7569 cumulative IPC: 0.8026 (Simulation time: 00 hr 51 min 04 sec)
Heartbeat CPU 3 instructions: 100000004 cycles: 98001836 heartbeat IPC: 0.2785 cumulative IPC: 0.2764 (Simulation time: 00 hr 51 min 05 sec)
Heartbeat CPU 2 instructions: 140000003 cycles: 109869282 heartbeat IPC: 0.8393 cumulative IPC: 0.8075 (Simulation time: 00 hr 56 min 36 sec)
Heartbeat CPU 0 instructions: 90000001 cycles: 120961148 heartbeat IPC: 0.3726 cumulative IPC: 0.3659 (Simulation time: 01 hr 01 min 41 sec)
Heartbeat CPU 2 instructions: 150000000 cycles: 122936154 heartbeat IPC: 0.7653 cumulative IPC: 0.8021 (Simulation time: 01 hr 02 min 35 sec)
Heartbeat CPU 3 instructions: 110000004 cycles: 133612980 heartbeat IPC: 0.2808 cumulative IPC: 0.2778 (Simulation time: 01 hr 07 min 32 sec)
Heartbeat CPU 2 instructions: 160000003 cycles: 133706087 heartbeat IPC: 0.9285 cumulative IPC: 0.8141 (Simulation time: 01 hr 07 min 35 sec)
Heartbeat CPU 2 instructions: 170000001 cycles: 144146956 heartbeat IPC: 0.9578 cumulative IPC: 0.8261 (Simulation time: 01 hr 12 min 19 sec)
Heartbeat CPU 0 instructions: 100000002 cycles: 147681337 heartbeat IPC: 0.3742 cumulative IPC: 0.3677 (Simulation time: 01 hr 13 min 51 sec)
Heartbeat CPU 1 instructions: 70000001 cycles: 152243627 heartbeat IPC: 0.1537 cumulative IPC: 0.1508 (Simulation time: 01 hr 15 min 55 sec)
Heartbeat CPU 2 instructions: 180000002 cycles: 154889804 heartbeat IPC: 0.9309 cumulative IPC: 0.8344 (Simulation time: 01 hr 17 min 06 sec)
Heartbeat CPU 2 instructions: 190000001 cycles: 165689887 heartbeat IPC: 0.9259 cumulative IPC: 0.8412 (Simulation time: 01 hr 21 min 53 sec)
Heartbeat CPU 3 instructions: 120000004 cycles: 168753049 heartbeat IPC: 0.2846 cumulative IPC: 0.2794 (Simulation time: 01 hr 23 min 12 sec)
Heartbeat CPU 0 instructions: 110000001 cycles: 174259963 heartbeat IPC: 0.3762 cumulative IPC: 0.3691 (Simulation time: 01 hr 25 min 36 sec)
Heartbeat CPU 2 instructions: 200000004 cycles: 177086053 heartbeat IPC: 0.8775 cumulative IPC: 0.8438 (Simulation time: 01 hr 26 min 50 sec)
Heartbeat CPU 2 instructions: 210000001 cycles: 187466348 heartbeat IPC: 0.9634 cumulative IPC: 0.8512 (Simulation time: 01 hr 31 min 19 sec)
Simulation finished CPU 2 instructions: 150000001 cycles: 177094218 cumulative IPC: 0.847 (Simulation time: 01 hr 35 min 06 sec)
Heartbeat CPU 2 instructions: 220000003 cycles: 200082696 heartbeat IPC: 0.7926 cumulative IPC: 0.8471 (Simulation time: 01 hr 36 min 38 sec)
Heartbeat CPU 0 instructions: 120000000 cycles: 203178616 heartbeat IPC: 0.3458 cumulative IPC: 0.3655 (Simulation time: 01 hr 37 min 56 sec)
Heartbeat CPU 3 instructions: 130000002 cycles: 207138768 heartbeat IPC: 0.2605 cumulative IPC: 0.2755 (Simulation time: 01 hr 39 min 39 sec)
Heartbeat CPU 2 instructions: 230000002 cycles: 211833200 heartbeat IPC: 0.851 cumulative IPC: 0.8474 (Simulation time: 01 hr 41 min 36 sec)
Heartbeat CPU 1 instructions: 80000002 cycles: 221269399 heartbeat IPC: 0.1449 cumulative IPC: 0.1487 (Simulation time: 01 hr 45 min 43 sec)
Heartbeat CPU 2 instructions: 240000003 cycles: 223233676 heartbeat IPC: 0.8772 cumulative IPC: 0.849 (Simulation time: 01 hr 46 min 34 sec)
Heartbeat CPU 0 instructions: 130000001 cycles: 230827713 heartbeat IPC: 0.3617 cumulative IPC: 0.365 (Simulation time: 01 hr 49 min 52 sec)
Heartbeat CPU 2 instructions: 250000000 cycles: 234133127 heartbeat IPC: 0.9175 cumulative IPC: 0.8525 (Simulation time: 01 hr 51 min 20 sec)
Heartbeat CPU 2 instructions: 260000001 cycles: 245929087 heartbeat IPC: 0.8477 cumulative IPC: 0.8522 (Simulation time: 01 hr 56 min 20 sec)
Heartbeat CPU 3 instructions: 140000001 cycles: 246223680 heartbeat IPC: 0.2559 cumulative IPC: 0.2721 (Simulation time: 01 hr 56 min 29 sec)
Heartbeat CPU 2 instructions: 270000000 cycles: 256972354 heartbeat IPC: 0.9055 cumulative IPC: 0.8547 (Simulation time: 02 hr 01 min 13 sec)
Heartbeat CPU 0 instructions: 140000002 cycles: 258536937 heartbeat IPC: 0.3609 cumulative IPC: 0.3645 (Simulation time: 02 hr 01 min 52 sec)
Heartbeat CPU 2 instructions: 280000002 cycles: 268806947 heartbeat IPC: 0.845 cumulative IPC: 0.8543 (Simulation time: 02 hr 06 min 16 sec)
Heartbeat CPU 2 instructions: 290000000 cycles: 279401481 heartbeat IPC: 0.9439 cumulative IPC: 0.8579 (Simulation time: 02 hr 10 min 55 sec)
Heartbeat CPU 3 instructions: 150000004 cycles: 284872613 heartbeat IPC: 0.2587 cumulative IPC: 0.2702 (Simulation time: 02 hr 13 min 17 sec)
Heartbeat CPU 0 instructions: 150000001 cycles: 285964713 heartbeat IPC: 0.3646 cumulative IPC: 0.3645 (Simulation time: 02 hr 13 min 44 sec)
Heartbeat CPU 1 instructions: 90000001 cycles: 288953349 heartbeat IPC: 0.1477 cumulative IPC: 0.1485 (Simulation time: 02 hr 14 min 57 sec)
Heartbeat CPU 2 instructions: 300000000 cycles: 290870952 heartbeat IPC: 0.8719 cumulative IPC: 0.8585 (Simulation time: 02 hr 15 min 49 sec)
Heartbeat CPU 2 instructions: 310000000 cycles: 301738903 heartbeat IPC: 0.9201 cumulative IPC: 0.8609 (Simulation time: 02 hr 20 min 33 sec)
Heartbeat CPU 2 instructions: 320000001 cycles: 312542082 heartbeat IPC: 0.9257 cumulative IPC: 0.8633 (Simulation time: 02 hr 25 min 10 sec)
Heartbeat CPU 0 instructions: 160000004 cycles: 313489967 heartbeat IPC: 0.3633 cumulative IPC: 0.3644 (Simulation time: 02 hr 25 min 34 sec)
Heartbeat CPU 3 instructions: 160000003 cycles: 323964703 heartbeat IPC: 0.2558 cumulative IPC: 0.2683 (Simulation time: 02 hr 30 min 02 sec)
Heartbeat CPU 2 instructions: 330000001 cycles: 323966170 heartbeat IPC: 0.8753 cumulative IPC: 0.8637 (Simulation time: 02 hr 30 min 02 sec)
Heartbeat CPU 2 instructions: 340000000 cycles: 334603120 heartbeat IPC: 0.9401 cumulative IPC: 0.8663 (Simulation time: 02 hr 34 min 53 sec)
Heartbeat CPU 0 instructions: 170000002 cycles: 340952409 heartbeat IPC: 0.3641 cumulative IPC: 0.3644 (Simulation time: 02 hr 37 min 43 sec)
Heartbeat CPU 2 instructions: 350000001 cycles: 346681631 heartbeat IPC: 0.8279 cumulative IPC: 0.8649 (Simulation time: 0