WARNING: physical memory size is smaller than virtual memory size.
WARNING: option --warmup_instructions is deprecated. Use --warmup-instructions instead.
WARNING: option --simulation_instructions is deprecated. Use --simulation-instructions instead.

*** ChampSim Multicore Out-of-Order Simulator ***
Warmup Instructions: 50000000
Simulation Instructions: 150000000
Number of CPUs: 4
Page size: 4096

Off-chip DRAM Size: 4 GiB Channels: 1 Width: 64-bit Data Race: 3200 MT/s
Heartbeat CPU 1 instructions: 10000001 cycles: 2560447 heartbeat IPC: 3.906 cumulative IPC: 3.906 (Simulation time: 00 hr 02 min 30 sec)
Heartbeat CPU 0 instructions: 10000003 cycles: 2712705 heartbeat IPC: 3.686 cumulative IPC: 3.686 (Simulation time: 00 hr 02 min 39 sec)
Heartbeat CPU 2 instructions: 10000004 cycles: 3103224 heartbeat IPC: 3.222 cumulative IPC: 3.222 (Simulation time: 00 hr 03 min 05 sec)
Heartbeat CPU 3 instructions: 10000004 cycles: 3164784 heartbeat IPC: 3.16 cumulative IPC: 3.16 (Simulation time: 00 hr 03 min 08 sec)
Heartbeat CPU 1 instructions: 20000001 cycles: 5120891 heartbeat IPC: 3.906 cumulative IPC: 3.906 (Simulation time: 00 hr 05 min 02 sec)
Heartbeat CPU 0 instructions: 20000003 cycles: 5231812 heartbeat IPC: 3.97 cumulative IPC: 3.823 (Simulation time: 00 hr 05 min 09 sec)
Heartbeat CPU 2 instructions: 20000003 cycles: 6186117 heartbeat IPC: 3.244 cumulative IPC: 3.233 (Simulation time: 00 hr 06 min 09 sec)
Heartbeat CPU 3 instructions: 20000001 cycles: 6330425 heartbeat IPC: 3.159 cumulative IPC: 3.159 (Simulation time: 00 hr 06 min 18 sec)
Heartbeat CPU 1 instructions: 30000000 cycles: 7681319 heartbeat IPC: 3.906 cumulative IPC: 3.906 (Simulation time: 00 hr 07 min 39 sec)
Heartbeat CPU 0 instructions: 30000000 cycles: 7750555 heartbeat IPC: 3.97 cumulative IPC: 3.871 (Simulation time: 00 hr 07 min 43 sec)
Heartbeat CPU 2 instructions: 30000001 cycles: 9242880 heartbeat IPC: 3.271 cumulative IPC: 3.246 (Simulation time: 00 hr 09 min 14 sec)
Heartbeat CPU 3 instructions: 30000002 cycles: 9495340 heartbeat IPC: 3.16 cumulative IPC: 3.159 (Simulation time: 00 hr 09 min 31 sec)
Heartbeat CPU 1 instructions: 40000003 cycles: 10241565 heartbeat IPC: 3.906 cumulative IPC: 3.906 (Simulation time: 00 hr 10 min 17 sec)
Heartbeat CPU 0 instructions: 40000003 cycles: 10279893 heartbeat IPC: 3.954 cumulative IPC: 3.891 (Simulation time: 00 hr 10 min 19 sec)
Heartbeat CPU 2 instructions: 40000000 cycles: 12245323 heartbeat IPC: 3.331 cumulative IPC: 3.267 (Simulation time: 00 hr 12 min 19 sec)
Heartbeat CPU 3 instructions: 40000002 cycles: 12663124 heartbeat IPC: 3.157 cumulative IPC: 3.159 (Simulation time: 00 hr 12 min 45 sec)
Heartbeat CPU 1 instructions: 50000000 cycles: 12763601 heartbeat IPC: 3.965 cumulative IPC: 3.917 (Simulation time: 00 hr 12 min 50 sec)
Warmup finished CPU 1 instructions: 50000000 cycles: 12763602 cumulative IPC: 3.917 (Simulation time: 00 hr 12 min 50 sec)
Heartbeat CPU 0 instructions: 50000000 cycles: 12880301 heartbeat IPC: 3.846 cumulative IPC: 3.882 (Simulation time: 00 hr 12 min 56 sec)
Warmup finished CPU 0 instructions: 50000000 cycles: 12880302 cumulative IPC: 3.882 (Simulation time: 00 hr 12 min 56 sec)
Heartbeat CPU 2 instructions: 50000001 cycles: 15202618 heartbeat IPC: 3.381 cumulative IPC: 3.289 (Simulation time: 00 hr 15 min 29 sec)
Warmup finished CPU 2 instructions: 50000001 cycles: 15202619 cumulative IPC: 3.289 (Simulation time: 00 hr 15 min 29 sec)
Heartbeat CPU 1 instructions: 60000001 cycles: 15297396 heartbeat IPC: 3.947 cumulative IPC: 3.922 (Simulation time: 00 hr 15 min 35 sec)
Heartbeat CPU 0 instructions: 60000001 cycles: 15496215 heartbeat IPC: 3.823 cumulative IPC: 3.872 (Simulation time: 00 hr 15 min 48 sec)
Heartbeat CPU 3 instructions: 50000004 cycles: 15828867 heartbeat IPC: 3.159 cumulative IPC: 3.159 (Simulation time: 00 hr 16 min 08 sec)
Warmup finished CPU 3 instructions: 50000004 cycles: 15828868 cumulative IPC: 3.159 (Simulation time: 00 hr 16 min 08 sec)
Warmup complete CPU 0 instructions: 61272624 cycles: 15828868 cumulative IPC: 3.871 (Simulation time: 00 hr 16 min 08 sec)
Warmup complete CPU 1 instructions: 62075044 cycles: 15828868 cumulative IPC: 3.922 (Simulation time: 00 hr 16 min 08 sec)
Warmup complete CPU 2 instructions: 52179846 cycles: 15828868 cumulative IPC: 3.296 (Simulation time: 00 hr 16 min 08 sec)
Warmup complete CPU 3 instructions: 50000004 cycles: 15828868 cumulative IPC: 3.159 (Simulation time: 00 hr 16 min 08 sec)
Heartbeat CPU 0 instructions: 70000001 cycles: 20228170 heartbeat IPC: 2.113 cumulative IPC: 1.984 (Simulation time: 00 hr 18 min 20 sec)
Heartbeat CPU 0 instructions: 80000003 cycles: 26437335 heartbeat IPC: 1.611 cumulative IPC: 1.765 (Simulation time: 00 hr 21 min 05 sec)
Heartbeat CPU 1 instructions: 70000000 cycles: 28108916 heartbeat IPC: 0.7805 cumulative IPC: 0.6454 (Simulation time: 00 hr 21 min 50 sec)
Heartbeat CPU 0 instructions: 90000003 cycles: 30719700 heartbeat IPC: 2.335 cumulative IPC: 1.929 (Simulation time: 00 hr 23 min 03 sec)
Heartbeat CPU 1 instructions: 80000004 cycles: 46098191 heartbeat IPC: 0.5559 cumulative IPC: 0.5922 (Simulation time: 00 hr 28 min 58 sec)
Heartbeat CPU 0 instructions: 100000000 cycles: 53263032 heartbeat IPC: 0.4436 cumulative IPC: 1.035 (Simulation time: 00 hr 31 min 37 sec)
Heartbeat CPU 2 instructions: 60000004 cycles: 62923741 heartbeat IPC: 0.2096 cumulative IPC: 0.1661 (Simulation time: 00 hr 34 min 54 sec)
Heartbeat CPU 1 instructions: 90000004 cycles: 73127906 heartbeat IPC: 0.37 cumulative IPC: 0.4874 (Simulation time: 00 hr 38 min 26 sec)
Heartbeat CPU 1 instructions: 100000002 cycles: 106352293 heartbeat IPC: 0.301 cumulative IPC: 0.419 (Simulation time: 00 hr 49 min 59 sec)
Heartbeat CPU 0 instructions: 110000001 cycles: 112922522 heartbeat IPC: 0.1676 cumulative IPC: 0.5019 (Simulation time: 00 hr 52 min 31 sec)
Heartbeat CPU 0 instructions: 120000003 cycles: 118660503 heartbeat IPC: 1.743 cumulative IPC: 0.5711 (Simulation time: 00 hr 54 min 56 sec)
Heartbeat CPU 0 instructions: 130000002 cycles: 122254600 heartbeat IPC: 2.782 cumulative IPC: 0.6458 (Simulation time: 00 hr 56 min 40 sec)
Heartbeat CPU 0 instructions: 140000000 cycles: 125796668 heartbeat IPC: 2.823 cumulative IPC: 0.7159 (Simulation time: 00 hr 58 min 23 sec)
Heartbeat CPU 1 instructions: 110000003 cycles: 126215057 heartbeat IPC: 0.5035 cumulative IPC: 0.4342 (Simulation time: 00 hr 58 min 35 sec)
Heartbeat CPU 0 instructions: 150000001 cycles: 130328878 heartbeat IPC: 2.206 cumulative IPC: 0.7749 (Simulation time: 01 hr 00 min 30 sec)
Heartbeat CPU 0 instructions: 160000003 cycles: 134928500 heartbeat IPC: 2.174 cumulative IPC: 0.8289 (Simulation time: 01 hr 02 min 40 sec)
Heartbeat CPU 0 instructions: 170000000 cycles: 140848270 heartbeat IPC: 1.689 cumulative IPC: 0.8697 (Simulation time: 01 hr 05 min 14 sec)
Heartbeat CPU 2 instructions: 70000002 cycles: 146410586 heartbeat IPC: 0.1198 cumulative IPC: 0.1365 (Simulation time: 01 hr 07 min 28 sec)
Heartbeat CPU 0 instructions: 180000001 cycles: 148632163 heartbeat IPC: 1.285 cumulative IPC: 0.894 (Simulation time: 01 hr 08 min 22 sec)
Heartbeat CPU 0 instructions: 190000002 cycles: 153924114 heartbeat IPC: 1.89 cumulative IPC: 0.9322 (Simulation time: 01 hr 10 min 45 sec)
Heartbeat CPU 1 instructions: 120000003 cycles: 161681909 heartbeat IPC: 0.282 cumulative IPC: 0.3971 (Simulation time: 01 hr 13 min 41 sec)
Heartbeat CPU 0 instructions: 200000004 cycles: 175196661 heartbeat IPC: 0.4701 cumulative IPC: 0.8705 (Simulation time: 01 hr 18 min 35 sec)
Heartbeat CPU 2 instructions: 80000003 cycles: 252419290 heartbeat IPC: 0.09433 cumulative IPC: 0.1176 (Simulation time: 01 hr 46 min 17 sec)
Heartbeat CPU 0 instructions: 210000003 cycles: 254903735 heartbeat IPC: 0.1255 cumulative IPC: 0.6221 (Simulation time: 01 hr 47 min 14 sec)
Simulation finished CPU 0 instructions: 150000001 cycles: 239766124 cumulative IPC: 0.6256 (Simulation time: 01 hr 47 min 31 sec)
Heartbeat CPU 0 instructions: 220000001 cycles: 261983951 heartbeat IPC: 1.412 cumulative IPC: 0.6448 (Simulation time: 01 hr 50 min 05 sec)
Heartbeat CPU 0 instructions: 230000001 cycles: 265617435 heartbeat IPC: 2.752 cumulative IPC: 0.6755 (Simulation time: 01 hr 51 min 48 sec)
Heartbeat CPU 0 instructions: 240000000 cycles: 269336431 heartbeat IPC: 2.689 cumulative IPC: 0.705 (Simulation time: 01 hr 53 min 35 sec)
Heartbeat CPU 1 instructions: 130000003 cycles: 273366661 heartbeat IPC: 0.08954 cumulative IPC: 0.2637 (Simulation time: 01 hr 55 min 27 sec)
Heartbeat CPU 0 instructions: 250000000 cycles: 273728312 heartbeat IPC: 2.277 cumulative IPC: 0.7318 (Simulation time: 01 hr 55 min 37 sec)
Heartbeat CPU 0 instructions: 260000000 cycles: 278330429 heartbeat IPC: 2.173 cumulative IPC: 0.7571 (Simulation time: 01 hr 57 min 50 sec)
Heartbeat CPU 0 instructions: 270000001 cycles: 283052930 heartbeat IPC: 2.118 cumulative IPC: 0.7811 (Simulation time: 02 hr 00 min 13 sec)
Heartbeat CPU 0 instructions: 280000001 cycles: 288239664 heartbeat IPC: 1.928 cumulative IPC: 0.8029 (Simulation time: 02 hr 02 min 43 sec)
Heartbeat CPU 1 instructions: 140000000 cycles: 288896255 heartbeat IPC: 0.6439 cumulative IPC: 0.2854 (Simulation time: 02 hr 02 min 58 sec)
Heartbeat CPU 0 instructions: 290000003 cycles: 294128021 heartbeat IPC: 1.698 cumulative IPC: 0.8219 (Simulation time: 02 hr 05 min 19 sec)
Heartbeat CPU 0 instructions: 300000003 cycles: 303566892 heartbeat IPC: 1.059 cumulative IPC: 0.8297 (Simulation time: 02 hr 09 min 07 sec)
Heartbeat CPU 1 instructions: 150000000 cycles: 305477141 heartbeat IPC: 0.6031 cumulative IPC: 0.3036 (Simulation time: 02 hr 09 min 51 sec)
Heartbeat CPU 2 instructions: 90000000 cycles: 306935048 heartbeat IPC: 0.1834 cumulative IPC: 0.1299 (Simulation time: 02 hr 10 min 27 sec)
Heartbeat CPU 1 instructions: 160000003 cycles: 328911315 heartbeat IPC: 0.4267 cumulative IPC: 0.3128 (Simulation time: 02 hr 18 min 28 sec)
Heartbeat CPU 1 instructions: 170000004 cycles: 362243002 heartbeat IPC: 0.3 cumulative IPC: 0.3115 (Simulation time: 02 hr 30 min 25 sec)
Heartbeat CPU 0 instructions: 310000000 cycles: 370437992 heartbeat IPC: 0.1495 cumulative IPC: 0.7014 (Simulation time: 02 hr 33 min 19 sec)
Heartbeat CPU 0 instructions: 320000004 cycles: 377824182 heartbeat IPC: 1.354 cumulative IPC: 0.7147 (Simulation time: 02 hr 36 min 21 sec)
Heartbeat CPU 0 instructions: 330000002 cycles: 381329723 heartbeat IPC: 2.853 cumulative IPC: 0.7352 (Simulation time: 02 hr 38 min 07 sec)
Heartbeat CPU 1 instructions: 180000002 cycles: 383720493 heartbeat IPC: 0.4656 cumulative IPC: 0.3205 (Simulation time: 02 hr 39 min 17 sec)
Heartbeat CPU 0 instructions: 340000004 cycles: 384744784 heartbeat IPC: 2.928 cumulative IPC: 0.7555 (Simulation time: 02 hr 39 min 48 sec)
Heartbeat CPU 2 instructions: 100000003 cycles: 388195027 heartbeat IPC: 0.1231 cumulative IPC: 0.1284 (Simulation time: 02 hr 41 min 18 sec)
Heartbeat CPU 0 instructions: 350000004 cycles: 388549105 heartbeat IPC: 2.629 cumulative IPC: 0.7746 (Simulation time: 02 hr 41 min 28 sec)
Heartbeat CPU 0 instructions: 360000001 cycles: 392699301 heartbeat IPC: 2.41 cumulative IPC: 0.7927 (Simulation time: 02 hr 43 min 26 sec)
Heartbeat CPU 0 instructions: 370000000 cycles: 397278601 heartbeat IPC: 2.184 cumulative IPC: 0.8094 (Simulation time: 02 hr 45 min 39 sec)
Heartbeat CPU 1 instructions: 190000000 cycles: 399842376 heartbeat IPC: 0.6203 cumulative IPC: 0.3331 (Simulation time: 02 hr 46 min 51 sec)
Heartbeat CPU 0 instructions: 380000002 cycles: 402062043 heartbeat IPC: 2.091 cumulative IPC: 0.8252 (Simulation time: 02 hr 47 min 52 sec)
Heartbeat CPU 0 instructions: 390000000 cycles: 409525793 heartbeat IPC: 1.34 cumulative IPC: 0.835 (Simulation time: 02 hr 51 min 04 sec)
Heartbeat CPU 0 instructions: 400000001 cycles: 414392903 heartbeat IPC: 2.055 cumulative IPC: 0.8499 (Simulation time: 02 hr 53 min 15 sec)
Heartbeat CPU 0 instructions: 410000000 cycles: 448414445 heartbeat IPC: 0.2939 cumulative IPC: 0.8061 (Simulation time: 03 hr 06 min 01 sec)
Heartbeat CPU 2 instructions: 110000002 cycles: 461350192 heartbeat IPC: 0.1367 cumulative IPC: 0.1298 (Simulation time: 03 hr 10 min 43 sec)
Heartbeat CPU 1 instructions: 200000000 cycles: 507740395 heartbeat IPC: 0.09268 cumulative IPC: 0.2804 (Simulation time: 03 hr 26 min 59 sec)
Heartbeat CPU 0 instructions: 420000002 cycles: 511873899 heartbeat IPC: 0.1576 cumulative IPC: 0.7232 (Simulation time: 03 hr 28 min 40 sec)
Heartbeat CPU 0 instructions: 430000000 cycles: 517890343 heartbeat IPC: 1.662 cumulative IPC: 0.7344 (Simulation time: 03 hr 31 min 24 sec)
Heartbeat CPU 0 instructions: 440000003 cycles: 521936308 heartbeat IPC: 2.472 cumulative IPC: 0.7483 (Simulation time: 03 hr 33 min 28 sec)
Heartbeat CPU 0 instructions: 450000002 cycles: 526071328 heartbeat IPC: 2.418 cumulative IPC: 0.7618 (Simulation time: 03 hr 35 min 21 sec)
Heartbeat CPU 0 instructions: 460000001 cycles: 530225920 heartbeat IPC: 2.407 cumulative IPC: 0.7751 (Simulation time: 03 hr 37 min 29 sec)
Heartbeat CPU 0 instructions: 470000003 cycles: 534587902 heartbeat IPC: 2.293 cumulative IPC: 0.7879 (Simulation time: 03 hr 39 min 37 sec)
Heartbeat CPU 1 instructions: 210000001 cycles: 539306833 heartbeat IPC: 0.3168 cumulative IPC: 0.2826 (Simulation time: 03 hr 41 min 53 sec)
Heartbeat CPU 0 instructions: 480000003 cycles: 539450077 heartbeat IPC: 2.057 cumulative IPC: 0.7997 (Simulation time: 03 hr 41 min 58 sec)
Heartbeat CPU 2 instructions: 120000002 cycles: 541409285 heartbeat IPC: 0.1249 cumulative IPC: 0.129 (Simulation time: 03 hr 42 min 55 sec)
Simulation finished CPU 1 instructions: 150000002 cycles: 526637991 cumulative IPC: 0.2848 (Simulation time: 03 hr 43 min 20 sec)
Heartbeat CPU 0 instructions: 490000000 cycles: 545318411 heartbeat IPC: 1.704 cumulative IPC: 0.8097 (Simulation time: 03 hr 44 min 32 sec)
Heartbeat CPU 0 instructions: 500000000 cycles: 549236752 heartbeat IPC: 2.552 cumulative IPC: 0.8225 (Simulation time: 03 hr 46 min 21 sec)
Heartbeat CPU 1 instructions: 220000003 cycles: 554825975 heartbeat IPC: 0.6444 cumulative IPC: 0.293 (Simulation time: 03 hr 48 min 29 sec)
Heartbeat CPU 0 instructions: 510000000 cycles: 566671989 heartbeat IPC: 0.5736 cumulative IPC: 0.8146 (Simulation time: 03 hr 53 min 03 sec)
Heartbeat CPU 1 instructions: 230000000 cycles: 574454088 heartbeat IPC: 0.5095 cumulative IPC: 0.3006 (Simulation time: 03 hr 55 min 45 sec)
Heartbeat CPU 1 instructions: 240000003 cycles: 605766973 heartbeat IPC: 0.3194 cumulative IPC: 0.3016 (Simulation time: 04 hr 06 min 35 sec)
Heartbeat CPU 2 instructions: 130000001 cycles: 610171685 heartbeat IPC: 0.1454 cumulative IPC: 0.1309 (Simulation time: 04 hr 08 min 06 sec)
Heartbeat CPU 0 instructions: 520000003 cycles: 624619614 heartbeat IPC: 0.1726 cumulative IPC: 0.7535 (Simulation time: 04 hr 13 min 29 sec)
Heartbeat CPU 0 instructions: 530000001 cycles: 629812979 heartbeat IPC: 1.926 cumulative IPC: 0.7634 (Simulation time: 04 hr 15 min 52 sec)
Heartbeat CPU 1 instructions: 250000000 cycles: 630301486 heartbeat IPC: 0.4076 cumulative IPC: 0.3058 (Simulation time: 04 hr 16 min 06 sec)
Heartbeat CPU 0 instructions: 540000004 cycles: 633370571 heartbeat IPC: 2.811 cumulative IPC: 0.7752 (Simulation time: 04 hr 17 min 43 sec)
Heartbeat CPU 0 instructions: 550000001 cycles: 637146702 heartbeat IPC: 2.648 cumulative IPC: 0.7866 (Simulation time: 04 hr 19 min 31 sec)
Heartbeat CPU 0 instructions: 560000004 cycles: 641144283 heartbeat IPC: 2.502 cumulative IPC: 0.7976 (Simulation time: 04 hr 21 min 29 sec)
Heartbeat CPU 0 instructions: 570000003 cycles: 645682984 heartbeat IPC: 2.203 cumulative IPC: 0.8077 (Simulation time: 04 hr 23 min 35 sec)
Heartbeat CPU 1 instructions: 260000004 cycles: 646025179 heartbeat IPC: 0.636 cumulative IPC: 0.3141 (Simulation time: 04 hr 23 min 45 sec)
Heartbeat CPU 0 instructions: 580000003 cycles: 650582842 heartbeat IPC: 2.041 cumulative IPC: 0.8172 (Simulation time: 04 hr 25 min 49 sec)
Heartbeat CPU 0 instructions: 590000000 cycles: 657121154 heartbeat IPC: 1.529 cumulative IPC: 0.8245 (Simulation time: 04 hr 28 min 39 sec)
Heartbeat CPU 0 instructions: 600000000 cycles: 661827674 heartbeat IPC: 2.125 cumulative IPC: 0.8339 (Simulation time: 04 hr 30 min 48 sec)
Heartbeat CPU 2 instructions: 140000004 cycles: 665605603 heartbeat IPC: 0.1804 cumulative IPC: 0.1352 (Simulation time: 04 hr 32 min 16 sec)
Heartbeat CPU 0 instructions: 610000004 cycles: 683125169 heartbeat IPC: 0.4695 cumulative IPC: 0.8223 (Simulation time: 04 hr 38 min 48 sec)
Heartbeat CPU 1 instructions: 270000002 cycles: 703084958 heartbeat IPC: 0.1753 cumulative IPC: 0.3025 (Simulation time: 04 hr 45 min 36 sec)
Heartbeat CPU 3 instructions: 60000000 cycles: 704840587 heartbeat IPC: 0.01451 cumulative IPC: 0.01451 (Simulation time: 04 hr 46 min 15 sec)
Heartbeat CPU 0 instructions: 620000001 cycles: 754510905 heartbeat IPC: 0.1401 cumulative IPC: 0.7564 (Simulation time: 05 hr 04 min 25 sec)
Heartbeat CPU 2 instructions: 150000002 cycles: 760545984 heartbeat IPC: 0.1053 cumulative IPC: 0.1314 (Simulation time: 05 hr 06 min 59 sec)
Heartbeat CPU 0 instructions: 630000002 cycles: 760850683 heartbeat IPC: 1.577 cumulative IPC: 0.7634 (Simulation time: 05 hr 07 min 06 sec)
Heartbeat CPU 0 instructions: 640000004 cycles: 764648978 heartbeat IPC: 2.633 cumulative IPC: 0.7729 (Simulation time: 05 hr 08 min 53 sec)
Heartbeat CPU 0 instructions: 650000000 cycles: 768916139 heartbeat IPC: 2.343 cumulative IPC: 0.7818 (Simulation time: 05 hr 10 min 47 sec)
Heartbeat CPU 0 instructions: 660000003 cycles: 773900839 heartbeat IPC: 2.006 cumulative IPC: 0.7898 (Simulation time: 05 hr 12 min 58 sec)
Heartbeat CPU 0 instructions: 670000000 cycles: 778833437 heartbeat IPC: 2.027 cumulative IPC: 0.7978 (Simulation time: 05 hr 15 min 14 sec)
Heartbeat CPU 1 instructions: 280000004 cycles: 782605428 heartbeat IPC: 0.1258 cumulative IPC: 0.2842 (Simulation time: 05 hr 16 min 58 sec)
Heartbeat CPU 0 instructions: 680000001 cycles: 783947447 heartbeat IPC: 1.955 cumulative IPC: 0.8055 (Simulation time: 05 hr 17 min 32 sec)
Heartbeat CPU 0 instructions: 690000003 cycles: 788439859 heartbeat IPC: 2.226 cumulative IPC: 0.8138 (Simulation time: 05 hr 19 min 36 sec)
Heartbeat CPU 1 instructions: 290000001 cycles: 796864814 heartbeat IPC: 0.7013 cumulative IPC: 0.2918 (Simulation time: 05 hr 22 min 57 sec)
Heartbeat CPU 0 instructions: 700000000 cycles: 801501771 heartbeat IPC: 0.7656 cumulative IPC: 0.813 (Simulation time: 05 hr 24 min 57 sec)
Heartbeat CPU 2 instructions: 160000000 cycles: 806551846 heartbeat IPC: 0.2174 cumulative IPC: 0.1364 (Simulation time: 05 hr 27 min 00 sec)
Heartbeat CPU 1 instructions: 300000003 cycles: 818598090 heartbeat IPC: 0.4601 cumulative IPC: 0.2964 (Simulation time: 05 hr 31 min 38 sec)
Heartbeat CPU 1 instructions: 310000000 cycles: 849903980 heartbeat IPC: 0.3194 cumulative IPC: 0.2972 (Simulation time: 05 hr 43 min 15 sec)
Heartbeat CPU 0 instructions: 710000000 cycles: 860726543 heartbeat IPC: 0.1688 cumulative IPC: 0.7678 (Simulation time: 05 hr 47 min 24 sec)
Heartbeat CPU 0 instructions: 720000003 cycles: 866294964 heartbeat IPC: 1.796 cumulative IPC: 0.7745 (Simulation time: 05 hr 49 min 56 sec)
Heartbeat CPU 0 instructions: 730000000 cycles: 869999229 heartbeat IPC: 2.7 cumulative IPC: 0.7829 (Simulation time: 05 hr 51 min 47 sec)
Heartbeat CPU 1 instructions: 320000000 cycles: 870470691 heartbeat IPC: 0.4862 cumulative IPC: 0.3018 (Simulation time: 05 hr 52 min 01 sec)
Heartbeat CPU 0 instructions: 740000000 cycles: 873815730 heartbeat IPC: 2.62 cumulative IPC: 0.7911 (Simulation time: 05 hr 53 min 42 sec)
Heartbeat CPU 0 instructions: 750000003 cycles: 878036323 heartbeat IPC: 2.369 cumulative IPC: 0.7988 (Simulation time: 05 hr 55 min 46 sec)
Heartbeat CPU 2 instructions: 170000002 cycles: 878831898 heartbeat IPC: 0.1384 cumulative IPC: 0.1365 (Simulation time: 05 hr 56 min 11 sec)
Heartbeat CPU 0 instructions: 760000000 cycles: 882482037 heartbeat IPC: 2.249 cumulative IPC: 0.8062 (Simulation time: 05 hr 58 min 02 sec)
Heartbeat CPU 1 instructions: 330000003 cycles: 885057513 heartbeat IPC: 0.6856 cumulative IPC: 0.3082 (Simulation time: 05 hr 59 min 15 sec)
Heartbeat CPU 0 instructions: 770000003 cycles: 887916252 heartbeat IPC: 1.84 cumulative IPC: 0.8127 (Simulation time: 06 hr 00 min 38 sec)
Heartbeat CPU 0 instructions: 780000004 cycles: 892479698 heartbeat IPC: 2.191 cumulative IPC: 0.8199 (Simulation time: 06 hr 02 min 52 sec)
Heartbeat CPU 0 instructions: 790000003 cycles: 905809861 heartbeat IPC: 0.7502 cumulative IPC: 0.8188 (Simulation time: 06 hr 08 min 04 sec)
Heartbeat CPU 1 instructions: 340000000 cycles: 909851435 heartbeat IPC: 0.4033 cumulative IPC: 0.3109 (Simulation time: 06 hr 09 min 34 sec)
Heartbeat CPU 2 instructions: 180000002 cycles: 943839501 heartbeat IPC: 0.1538 cumulative IPC: 0.1377 (Simulation time: 06 hr 22 min 14 sec)
Heartbeat CPU 0 instructions: 800000002 cycles: 984267386 heartbeat IPC: 0.1275 cumulative IPC: 0.7628 (Simulation time: 06 hr 36 min 35 sec)
Heartbeat CPU 0 instructions: 810000002 cycles: 990472294 heartbeat IPC: 1.612 cumulative IPC: 0.7682 (Simulation time: 06 hr 39 min 17 sec)
Heartbeat CPU 0 instructions: 820000003 cycles: 994153667 heartbeat IPC: 2.716 cumulative IPC: 0.7755 (Simulation time: 06 hr 41 min 04 sec)
Heartbeat CPU 0 instructions: 830000001 cycles: 998600684 heartbeat IPC: 2.249 cumulative IPC: 0.7822 (Simulation time: 06 hr 43 min 12 sec)
Heartbeat CPU 0 instructions: 840000002 cycles: 1002955020 heartbeat IPC: 2.297 cumulative IPC: 0.7889 (Simulation time: 06 hr 45 min 18 sec)
Heartbeat CPU 0 instructions: 850000003 cycles: 1007623211 heartbeat IPC: 2.142 cumulative IPC: 0.7953 (Simulation time: 06 hr 47 min 29 sec)
Heartbeat CPU 0 instructions: 860000001 cycles: 1013161157 heartbeat IPC: 1.806 cumulative IPC: 0.8009 (Simulation time: 06 hr 50 min 08 sec)
Heartbeat CPU 1 instructions: 350000000 cycles: 1016029208 heartbeat IPC: 0.09418 cumulative IPC: 0.2879 (Simulation time: 06 hr 51 min 20 sec)
Heartbeat CPU 0 instructions: 870000000 cycles: 1018561657 heartbeat IPC: 1.852 cumulative IPC: 0.8065 (Simulation time: 06 hr 52 min 36 sec)
Heartbeat CPU 2 instructions: 190000001 cycles: 1018762906 heartbeat IPC: 0.1335 cumulative IPC: 0.1374 (Simulation time: 06 hr 52 min 42 sec)
Heartbeat CPU 0 instructions: 880000000 cycles: 1028786257 heartbeat IPC: 0.978 cumulative IPC: 0.8083 (Simulation time: 06 hr 56 min 46 sec)
Heartbeat CPU 1 instructions: 360000003 cycles: 1040989121 heartbeat IPC: 0.4006 cumulative IPC: 0.2906 (Simulation time: 07 hr 01 min 13 sec)
Heartbeat CPU 1 instructions: 370000002 cycles: 1089709238 heartbeat IPC: 0.2053 cumulative IPC: 0.2867 (Simulation time: 07 hr 18 min 52 sec)
Heartbeat CPU 0 instructions: 890000004 cycles: 1089728643 heartbeat IPC: 0.1641 cumulative IPC: 0.7717 (Simulation time: 07 hr 18 min 52 sec)
Heartbeat CPU 2 instructions: 200000004 cycles: 1089827532 heartbeat IPC: 0.1407 cumulative IPC: 0.1376 (Simulation time: 07 hr 18 min 55 sec)
Heartbeat CPU 0 instructions: 900000000 cycles: 1094764944 heartbeat IPC: 1.986 cumulative IPC: 0.7774 (Simulation time: 07 hr 21 min 07 sec)
Heartbeat CPU 0 instructions: 910000000 cycles: 1098352811 heartbeat IPC: 2.787 cumulative IPC: 0.784 (Simulation time: 07 hr 22 min 53 sec)
Simulation finished CPU 2 instructions: 150000000 cycles: 1083687927 cumulative IPC: 0.1384 (Simulation time: 07 hr 23 min 25 sec)
Heartbeat CPU 0 instructions: 920000000 cycles: 1101830429 heartbeat IPC: 2.876 cumulative IPC: 0.7907 (Simulation time: 07 hr 24 min 38 sec)
Heartbeat CPU 0 instructions: 930000002 cycles: 1105897658 heartbeat IPC: 2.459 cumulative IPC: 0.7969 (Simulation time: 07 hr 26 min 40 sec)
Heartbeat CPU 0 instructions: 940000001 cycles: 1110288411 heartbeat IPC: 2.278 cumulative IPC: 0.8029 (Simulation time: 07 hr 28 min 50 sec)
Heartbeat CPU 1 instructions: 380000001 cycles: 1112695294 heartbeat IPC: 0.435 cumulative IPC: 0.2898 (Simulation time: 07 hr 29 min 58 sec)
Heartbeat CPU 0 instructions: 950000003 cycles: 1115233666 heartbeat IPC: 2.022 cumulative IPC: 0.8084 (Simulation time: 07 hr 31 min 09 sec)
Heartbeat CPU 0 instructions: 960000004 cycles: 1120765927 heartbeat IPC: 1.808 cumulative IPC: 0.8134 (Simulation time: 07 hr 33 min 41 sec)
Heartbeat CPU 0 instructions: 970000002 cycles: 1124461379 heartbeat IPC: 2.706 cumulative IPC: 0.8197 (Simulation time: 07 hr 35 min 33 sec)
Heartbeat CPU 2 instructions: 210000000 cycles: 1130291711 heartbeat IPC: 0.2471 cumulative IPC: 0.1416 (Simulation time: 07 hr 38 min 07 sec)
Heartbeat CPU 0 instructions: 980000001 cycles: 1141677410 heartbeat IPC: 0.5809 cumulative IPC: 0.816 (Simulation time: 07 hr 42 min 24 sec)
Heartbeat CPU 1 instructions: 390000000 cycles: 1152938472 heartbeat IPC: 0.2485 cumulative IPC: 0.2884 (Simulation time: 07 hr 46 min 49 sec)
Heartbeat CPU 0 instructions: 990000001 cycles: 1214393081 heartbeat IPC: 0.1375 cumulative IPC: 0.7749 (Simulation time: 08 hr 09 min 07 sec)
Heartbeat CPU 0 instructions: 1000000002 cycles: 1220587331 heartbeat IPC: 1.614 cumulative IPC: 0.7792 (Simulation time: 08 hr 11 min 47 sec)
Heartbeat CPU 2 instructions: 220000003 cycles: 1222068100 heartbeat IPC: 0.109 cumulative IPC: 0.1391 (Simulation time: 08 hr 12 min 22 sec)
Heartbeat CPU 0 instructions: 1010000000 cycles: 1224276089 heartbeat IPC: 2.711 cumulative IPC: 0.7851 (Simulation time: 08 hr 13 min 26 sec)
Heartbeat CPU 0 instructions: 1020000000 cycles: 1228064531 heartbeat IPC: 2.64 cumulative IPC: 0.7909 (Simulation time: 08 hr 15 min 16 sec)
Heartbeat CPU 0 instructions: 1030000000 cycles: 1233245192 heartbeat IPC: 1.93 cumulative IPC: 0.7957 (Simulation time: 08 hr 17 min 43 sec)
Heartbeat CPU 0 instructions: 1040000000 cycles: 1237499671 heartbeat IPC: 2.35 cumulative IPC: 0.8011 (Simulation time: 08 hr 19 min 50 sec)
Heartbeat CPU 1 instructions: 400000002 cycles: 1239614593 heartbeat IPC: 0.1154 cumulative IPC: 0.2761 (Simulation time: 08 hr 20 min 53 sec)
Heartbeat CPU 0 instructions: 1050000004 cycles: 1242009873 heartbeat IPC: 2.217 cumulative IPC: 0.8063 (Simulation time: 08 hr 22 min 05 sec)
Heartbeat CPU 0 instructions: 1060000001 cycles: 1248061228 heartbeat IPC: 1.653 cumulative IPC: 0.8105 (Simulation time: 08 hr 24 min 53 sec)
Heartbeat CPU 0 instructions: 1070000001 cycles: 1251876912 heartbeat IPC: 2.621 cumulative IPC: 0.8161 (Simulation time: 08 hr 26 min 48 sec)
Heartbeat CPU 1 instructions: 410000002 cycles: 1262406145 heartbeat IPC: 0.4388 cumulative IPC: 0.2791 (Simulation time: 08 hr 31 min 02 sec)
Heartbeat CPU 2 instructions: 230000002 cycles: 1264857223 heartbeat IPC: 0.2337 cumulative IPC: 0.1424 (Simulation time: 08 hr 32 min 05 sec)
Heartbeat CPU 0 instructions: 1080000001 cycles: 1303772572 heartbeat IPC: 0.1927 cumulative IPC: 0.791 (Simulation time: 08 hr 45 min 49 sec)
Heartbeat CPU 1 instructions: 420000004 cycles: 1325578059 heartbeat IPC: 0.1583 cumulative IPC: 0.2733 (Simulation time: 08 hr 53 min 50 sec)
Heartbeat CPU 0 instructions: 1090000000 cycles: 1327561295 heartbeat IPC: 0.4204 cumulative IPC: 0.7843 (Simulation time: 08 hr 54 min 40 sec)
Heartbeat CPU 0 instructions: 1100000000 cycles: 1331843959 heartbeat IPC: 2.335 cumulative IPC: 0.7893 (Simulation time: 08 hr 56 min 42 sec)
Heartbeat CPU 0 instructions: 1110000002 cycles: 1335464368 heartbeat IPC: 2.762 cumulative IPC: 0.7947 (Simulation time: 08 hr 58 min 33 sec)
Heartbeat CPU 0 instructions: 1120000000 cycles: 1339052911 heartbeat IPC: 2.787 cumulative IPC: 0.8001 (Simulation time: 09 hr 00 min 15 sec)
Heartbeat CPU 2 instructions: 240000001 cycles: 1340072941 heartbeat IPC: 0.133 cumulative IPC: 0.1418 (Simulation time: 09 hr 00 min 43 sec)
Heartbeat CPU 0 instructions: 1130000004 cycles: 1343461430 heartbeat IPC: 2.268 cumulative IPC: 0.805 (Simulation time: 09 hr 02 min 18 sec)
Heartbeat CPU 0 instructions: 1140000002 cycles: 1348120191 heartbeat IPC: 2.146 cumulative IPC: 0.8097 (Simulation time: 09 hr 04 min 31 sec)
Heartbeat CPU 0 instructions: 1150000004 cycles: 1352403470 heartbeat IPC: 2.335 cumulative IPC: 0.8146 (Simulation time: 09 hr 06 min 37 sec)
Heartbeat CPU 1 instructions: 430000000 cycles: 1356218627 heartbeat IPC: 0.3264 cumulative IPC: 0.2745 (Simulation time: 09 hr 08 min 16 sec)
Heartbeat CPU 0 instructions: 1160000004 cycles: 1358869871 heartbeat IPC: 1.546 cumulative IPC: 0.8181 (Simulation time: 09 hr 09 min 30 sec)
Heartbeat CPU 0 instructions: 1170000000 cycles: 1363958800 heartbeat IPC: 1.965 cumulative IPC: 0.8224 (Simulation time: 09 hr 11 min 47 sec)
Heartbeat CPU 2 instructions: 250000001 cycles: 1383922901 heartbeat IPC: 0.2281 cumulative IPC: 0.1446 (Simulation time: 09 hr 19 min 33 sec)
Heartbeat CPU 3 instructions: 70000001 cycles: 1386655939 heartbeat IPC: 0.01467 cumulative IPC: 0.01459 (Simulation time: 09 hr 20 min 32 sec)
Heartbeat CPU 1 instructions: 440000000 cycles: 1402045605 heartbeat IPC: 0.2182 cumulative IPC: 0.2726 (Simulation time: 09 hr 25 min 52 sec)
Heartbeat CPU 0 instructions: 1180000001 cycles: 1419517556 heartbeat IPC: 0.18 cumulative IPC: 0.797 (Simulation time: 09 hr 32 min 00 sec)
Heartbeat CPU 0 instructions: 1190000001 cycles: 1439672444 heartbeat IPC: 0.4962 cumulative IPC: 0.7927 (Simulation time: 09 hr 39 min 30 sec)
Heartbeat CPU 0 instructions: 1200000002 cycles: 1443782469 heartbeat IPC: 2.433 cumulative IPC: 0.7975 (Simulation time: 09 hr 41 min 26 sec)
Heartbeat CPU 0 instructions: 1210000000 cycles: 1447345554 heartbeat IPC: 2.807 cumulative IPC: 0.8025 (Simulation time: 09 hr 43 min 13 sec)
Heartbeat CPU 0 instructions: 1220000001 cycles: 1451078577 heartbeat IPC: 2.679 cumulative IPC: 0.8073 (Simulation time: 09 hr 45 min 08 sec)
Heartbeat CPU 0 instructions: 1230000001 cycles: 1455647252 heartbeat IPC: 2.189 cumulative IPC: 0.8117 (Simulation time: 09 hr 47 min 21 sec)
Heartbeat CPU 2 instructions: 260000002 cycles: 1457470032 heartbeat IPC: 0.136 cumulative IPC: 0.1442 (Simulation time: 09 hr 48 min 15 sec)
Heartbeat CPU 1 instructions: 450000002 cycles: 1457823202 heartbeat IPC: 0.1793 cumulative IPC: 0.269 (Simulation time: 09 hr 48 min 25 sec)
Heartbeat CPU 0 instructions: 1240000001 cycles: 1459924869 heartbeat IPC: 2.338 cumulative IPC: 0.8162 (Simulation time: 09 hr 49 min 29 sec)
Heartbeat CPU 0 instructions: 1250000004 cycles: 1464207251 heartbeat IPC: 2.335 cumulative IPC: 0.8207 (Simulation time: 09 hr 51 min 41 sec)
Heartbeat CPU 0 instructions: 1260000002 cycles: 1470651386 heartbeat IPC: 1.552 cumulative IPC: 0.824 (Simulation time: 09 hr 54 min 36 sec)
Heartbeat CPU 0 instructions: 1270000002 cycles: 1478145590 heartbeat IPC: 1.334 cumulative IPC: 0.8266 (Simulation time: 09 hr 58 min 06 sec)
Heartbeat CPU 1 instructions: 460000003 cycles: 1484618250 heartbeat IPC: 0.3732 cumulative IPC: 0.2709 (Simulation time: 10 hr 01 min 07 sec)
Heartbeat CPU 2 instructions: 270000003 cycles: 1508389304 heartbeat IPC: 0.1964 cumulative IPC: 0.1459 (Simulation time: 10 hr 10 min 14 sec)
Heartbeat CPU 0 instructions: 1280000001 cycles: 1544056998 heartbeat IPC: 0.1517 cumulative IPC: 0.7975 (Simulation time: 10 hr 23 min 00 sec)
Heartbeat CPU 0 instructions: 1290000004 cycles: 1552086841 heartbeat IPC: 1.245 cumulative IPC: 0.7998 (Simulation time: 10 hr 26 min 21 sec)
Heartbeat CPU 0 instructions: 1300000001 cycles: 1555513543 heartbeat IPC: 2.918 cumulative IPC: 0.8045 (Simulation time: 10 hr 28 min 11 sec)
Heartbeat CPU 1 instructions: 470000001 cycles: 1557133866 heartbeat IPC: 0.1379 cumulative IPC: 0.2647 (Simulation time: 10 hr 29 min 04 sec)
Heartbeat CPU 0 instructions: 1310000003 cycles: 1559016666 heartbeat IPC: 2.855 cumulative IPC: 0.8092 (Simulation time: 10 hr 29 min 59 sec)
Heartbeat CPU 0 instructions: 1320000000 cycles: 1562795306 heartbeat IPC: 2.646 cumulative IPC: 0.8137 (Simulation time: 10 hr 31 min 53 sec)
Heartbeat CPU 0 instructions: 1330000003 cycles: 1567413514 heartbeat IPC: 2.165 cumulative IPC: 0.8177 (Simulation time: 10 hr 34 min 00 sec)
Heartbeat CPU 0 instructions: 1340000003 cycles: 1572117148 heartbeat IPC: 2.126 cumulative IPC: 0.8217 (Simulation time: 10 hr 36 min 20 sec)
Heartbeat CPU 2 instructions: 280000001 cycles: 1573675479 heartbeat IPC: 0.1532 cumulative IPC: 0.1462 (Simulation time: 10 hr 36 min 59 sec)
Heartbeat CPU 0 instructions: 1350000004 cycles: 1576842590 heartbeat IPC: 2.116 cumulative IPC: 0.8256 (Simulation time: 10 hr 38 min 29 sec)
Heartbeat CPU 0 instructions: 1360000000 cycles: 1582605306 heartbeat IPC: 1.735 cumulative IPC: 0.8289 (Simulation time: 10 hr 41 min 10 sec)
Heartbeat CPU 1 instructions: 480000001 cycles: 1584678879 heartbeat IPC: 0.363 cumulative IPC: 0.2664 (Simulation time: 10 hr 42 min 09 sec)
Heartbeat CPU 0 instructions: 1370000000 cycles: 1592423222 heartbeat IPC: 1.019 cumulative IPC: 0.8301 (Simulation time: 10 hr 45 min 04 sec)
Heartbeat CPU 2 instructions: 290000000 cycles: 1631214961 heartbeat IPC: 0.1738 cumulative IPC: 0.1472 (Simulation time: 10 hr 59 min 30 sec)
Heartbeat CPU 1 instructions: 490000002 cycles: 1645375120 heartbeat IPC: 0.1648 cumulative IPC: 0.2626 (Simulation time: 11 hr 04 min 39 sec)
Heartbeat CPU 0 instructions: 1380000001 cycles: 1657190695 heartbeat IPC: 0.1544 cumulative IPC: 0.8034 (Simulation time: 11 hr 09 min 01 sec)
Heartbeat CPU 0 instructions: 1390000004 cycles: 1664313768 heartbeat IPC: 1.404 cumulative IPC: 0.806 (Simulation time: 11 hr 12 min 07 sec)
Heartbeat CPU 0 instructions: 1400000000 cycles: 1667761596 heartbeat IPC: 2.9 cumulative IPC: 0.8104 (Simulation time: 11 hr 13 min 53 sec)
Heartbeat CPU 0 instructions: 1410000004 cycles: 1671315499 heartbeat IPC: 2.814 cumulative IPC: 0.8147 (Simulation time: 11 hr 15 min 39 sec)
Heartbeat CPU 0 instructions: 1420000001 cycles: 1675110005 heartbeat IPC: 2.635 cumulative IPC: 0.8189 (Simulation time: 11 hr 17 min 38 sec)
Heartbeat CPU 0 instructions: 1430000004 cycles: 1679539884 heartbeat IPC: 2.257 cumulative IPC: 0.8227 (Simulation time: 11 hr 19 min 52 sec)
Heartbeat CPU 0 instructions: 1440000001 cycles: 1683986194 heartbeat IPC: 2.249 cumulative IPC: 0.8265 (Simulation time: 11 hr 22 min 04 sec)
Heartbeat CPU 1 instructions: 500000003 cycles: 1687298500 heartbeat IPC: 0.2385 cumulative IPC: 0.262 (Simulation time: 11 hr 23 min 41 sec)
Heartbeat CPU 0 instructions: 1450000000 cycles: 1688195149 heartbeat IPC: 2.376 cumulative IPC: 0.8304 (Simulation time: 11 hr 24 min 08 sec)
Heartbeat CPU 2 instructions: 300000003 cycles: 1689533598 heartbeat IPC: 0.1715 cumulative IPC: 0.1481 (Simulation time: 11 hr 24 min 42 sec)
Heartbeat CPU 0 instructions: 1460000003 cycles: 1694539200 heartbeat IPC: 1.576 cumulative IPC: 0.8332 (Simulation time: 11 hr 26 min 57 sec)
Heartbeat CPU 0 instructions: 1470000004 cycles: 1703651438 heartbeat IPC: 1.097 cumulative IPC: 0.8346 (Simulation time: 11 hr 30 min 58 sec)
Heartbeat CPU 1 instructions: 510000003 cycles: 1719323083 heartbeat IPC: 0.3123 cumulative IPC: 0.2629 (Simulation time: 11 hr 37 min 36 sec)
Heartbeat CPU 2 instructions: 310000003 cycles: 1755314681 heartbeat IPC: 0.152 cumulative IPC: 0.1482 (Simulation time: 11 hr 50 min 08 sec)
Heartbeat CPU 0 instructions: 1480000001 cycles: 1770098694 heartbeat IPC: 0.1505 cumulative IPC: 0.8087 (Simulation time: 11 hr 55 min 26 sec)
Heartbeat CPU 0 instructions: 1490000003 cycles: 1778126801 heartbeat IPC: 1.246 cumulative IPC: 0.8107 (Simulation time: 11 hr 58 min 54 sec)
Heartbeat CPU 0 instructions: 1500000004 cycles: 1781685019 heartbeat IPC: 2.81 cumulative IPC: 0.8147 (Simulation time: 12 hr 00 min 43 sec)
Heartbeat CPU 0 instructions: 1510000003 cycles: 1785248501 heartbeat IPC: 2.806 cumulative IPC: 0.8188 (Simulation time: 12 hr 02 min 34 sec)
Heartbeat CPU 0 instructions: 1520000000 cycles: 1789436028 heartbeat IPC: 2.388 cumulative IPC: 0.8225 (Simulation time: 12 hr 04 min 40 sec)
Heartbeat CPU 0 instructions: 1530000004 cycles: 1794253044 heartbeat IPC: 2.076 cumulative IPC: 0.8259 (Simulation time: 12 hr 07 min 02 sec)
Heartbeat CPU 1 instructions: 520000000 cycles: 1794841287 heartbeat IPC: 0.1324 cumulative IPC: 0.2574 (Simulation time: 12 hr 07 min 18 sec)
Heartbeat CPU 0 instructions: 1540000001 cycles: 1799471167 heartbeat IPC: 1.916 cumulative IPC: 0.829 (Simulation time: 12 hr 09 min 35 sec)
Heartbeat CPU 0 instructions: 1550000000 cycles: 1805271985 heartbeat IPC: 1.724 cumulative IPC: 0.832 (Simulation time: 12 hr 12 min 17 sec)
Heartbeat CPU 0 instructions: 1560000004 cycles: 1810122455 heartbeat IPC: 2.062 cumulative IPC: 0.8353 (Simulation time: 12 hr 14 min 37 sec)
Heartbeat CPU 2 instructions: 320000000 cycles: 1812628338 heartbeat IPC: 0.1745 cumulative IPC: 0.1491 (Simulation time: 12 hr 15 min 47 sec)
Heartbeat CPU 0 instructions: 1570000002 cycles: 1823215260 heartbeat IPC: 0.7638 cumulative IPC: 0.8348 (Simulation time: 12 hr 20 min 08 sec)
Heartbeat CPU 1 instructions: 530000000 cycles: 1826530386 heartbeat IPC: 0.3156 cumulative IPC: 0.2584 (Simulation time: 12 hr 21 min 28 sec)
Heartbeat CPU 0 instructions: 1580000002 cycles: 1885331326 heartbeat IPC: 0.161 cumulative IPC: 0.8124 (Simulation time: 12 hr 42 min 47 sec)
Heartbeat CPU 2 instructions: 330000001 cycles: 1886914100 heartbeat IPC: 0.1346 cumulative IPC: 0.1485 (Simulation time: 12 hr 43 min 29 sec)
Heartbeat CPU 0 instructions: 1590000000 cycles: 1890946877 heartbeat IPC: 1.781 cumulative IPC: 0.8153 (Simulation time: 12 hr 45 min 31 sec)
Heartbeat CPU 0 instructions: 1600000002 cycles: 1894951078 heartbeat IPC: 2.497 cumulative IPC: 0.8189 (Simulation time: 12 hr 47 min 49 sec)
Heartbeat CPU 0 instructions: 1610000000 cycles: 1898450756 heartbeat IPC: 2.857 cumulative IPC: 0.8226 (Simulation time: 12 hr 49 min 42 sec)
Heartbeat CPU 1 instructions: 540000001 cycles: 1898862642 heartbeat IPC: 0.1383 cumulative IPC: 0.2538 (Simulation time: 12 hr 49 min 54 sec)
Heartbeat CPU 0 instructions: 1620000000 cycles: 1902493277 heartbeat IPC: 2.474 cumulative IPC: 0.8262 (Simulation time: 12 hr 51 min 48 sec)
Heartbeat CPU 0 instructions: 1630000001 cycles: 1907044723 heartbeat IPC: 2.197 cumulative IPC: 0.8295 (Simulation time: 12 hr 54 min 05 sec)
Heartbeat CPU 0 instructions: 1640000001 cycles: 1911412243 heartbeat IPC: 2.29 cumulative IPC: 0.8328 (Simulation time: 12 hr 56 min 23 sec)
Heartbeat CPU 0 instructions: 1650000004 cycles: 1917405665 heartbeat IPC: 1.668 cumulative IPC: 0.8355 (Simulation time: 12 hr 59 min 22 sec)
Heartbeat CPU 1 instructions: 550000001 cycles: 1925042130 heartbeat IPC: 0.382 cumulative IPC: 0.2556 (Simulation time: 13 hr 02 min 49 sec)
Heartbeat CPU 0 instructions: 1660000003 cycles: 1925659660 heartbeat IPC: 1.212 cumulative IPC: 0.8371 (Simulation time: 13 hr 03 min 03 sec)
Heartbeat CPU 2 instructions: 340000002 cycles: 1928479754 heartbeat IPC: 0.2406 cumulative IPC: 0.1505 (Simulation time: 13 hr 04 min 11 sec)
Heartbeat CPU 0 instructions: 1670000002 cycles: 1990463511 heartbeat IPC: 0.1543 cumulative IPC: 0.8147 (Simulation time: 13 hr 26 min 13 sec)
Heartbeat CPU 1 instructions: 560000001 cycles: 1996983183 heartbeat IPC: 0.139 cumulative IPC: 0.2513 (Simulation time: 13 hr 28 min 51 sec)
Heartbeat CPU 0 instructions: 1680000001 cycles: 1997838008 heartbeat IPC: 1.356 cumulative IPC: 0.8167 (Simulation time: 13 hr 29 min 13 sec)
Heartbeat CPU 0 instructions: 1690000001 cycles: 2001236729 heartbeat IPC: 2.942 cumulative IPC: 0.8203 (Simulation time: 13 hr 30 min 50 sec)
Heartbeat CPU 2 instructions: 350000003 cycles: 2004617887 heartbeat IPC: 0.1313 cumulative IPC: 0.1497 (Simulation time: 13 hr 32 min 27 sec)
Heartbeat CPU 0 instructions: 1700000004 cycles: 2004746009 heartbeat IPC: 2.85 cumulative IPC: 0.8239 (Simulation time: 13 hr 32 min 32 sec)
Heartbeat CPU 0 instructions: 1710000001 cycles: 2008677267 heartbeat IPC: 2.544 cumulative IPC: 0.8273 (Simulation time: 13 hr 34 min 31 sec)
Heartbeat CPU 0 instructions: 1720000004 cycles: 2013457794 heartbeat IPC: 2.092 cumulative IPC: 0.8303 (Simulation time: 13 hr 36 min 54 sec)
Heartbeat CPU 3 instructions: 80000002 cycles: 2017053056 heartbeat IPC: 0.01586 cumulative IPC: 0.01499 (Simulation time: 13 hr 38 min 42 sec)
Heartbeat CPU 0 instructions: 1730000003 cycles: 2018237418 heartbeat IPC: 2.092 cumulative IPC: 0.8334 (Simulation time: 13 hr 39 min 16 sec)
Heartbeat CPU 0 instructions: 1740000003 cycles: 2023787530 heartbeat IPC: 1.802 cumulative IPC: 0.836 (Simulation time: 13 hr 41 min 58 sec)
Heartbeat CPU 1 instructions: 570000004 cycles: 2026226292 heartbeat IPC: 0.342 cumulative IPC: 0.2526 (Simulation time: 13 hr 43 min 11 sec)
Heartbeat CPU 0 instructions: 1750000003 cycles: 2027665135 heartbeat IPC: 2.579 cumulative IPC: 0.8394 (Simulation time: 13 hr 43 min 55 sec)
Heartbeat CPU 0 instructions: 1760000000 cycles: 2044780637 heartbeat IPC: 0.5843 cumulative IPC: 0.8372 (Simulation time: 13 hr 51 min 03 sec)
Heartbeat CPU 2 instructions: 360000004 cycles: 2046027619 heartbeat IPC: 0.2415 cumulative IPC: 0.1516 (Simulation time: 13 hr 51 min 33 sec)
Heartbeat CPU 1 instructions: 580000002 cycles: 2082622845 heartbeat IPC: 0.1773 cumulative IPC: 0.2506 (Simulation time: 14 hr 04 min 09 sec)
Heartbeat CPU 0 instructions: 1770000003 cycles: 2103354796 heartbeat IPC: 0.1707 cumulative IPC: 0.8185 (Simulation time: 14 hr 11 min 37 sec)
Heartbeat CPU 0 instructions: 1780000001 cycles: 2108821032 heartbeat IPC: 1.829 cumulative IPC: 0.8212 (Simulation time: 14 hr 14 min 00 sec)
Heartbeat CPU 0 instructions: 1790000001 cycles: 2112278222 heartbeat IPC: 2.893 cumulative IPC: 0.8246 (Simulation time: 14 hr 15 min 39 sec)
Heartbeat CPU 0 instructions: 1800000002 cycles: 2116045768 heartbeat IPC: 2.654 cumulative IPC: 0.8279 (Simulation time: 14 hr 17 min 32 sec)
Heartbeat CPU 0 instructions: 1810000002 cycles: 2120891995 heartbeat IPC: 2.063 cumulative IPC: 0.8307 (Simulation time: 14 hr 19 min 48 sec)
Heartbeat CPU 2 instructions: 370000002 cycles: 2120936104 heartbeat IPC: 0.1335 cumulative IPC: 0.151 (Simulation time: 14 hr 19 min 49 sec)
Heartbeat CPU 0 instructions: 1820000000 cycles: 2125447459 heartbeat IPC: 2.195 cumulative IPC: 0.8337 (Simulation time: 14 hr 21 min 59 sec)
Heartbeat CPU 1 instructions: 590000001 cycles: 2128232473 heartbeat IPC: 0.2193 cumulative IPC: 0.2499 (Simulation time: 14 hr 23 min 22 sec)
Heartbeat CPU 0 instructions: 1830000004 cycles: 2129577993 heartbeat IPC: 2.421 cumulative IPC: 0.8368 (Simulation time: 14 hr 24 min 05 sec)
Heartbeat CPU 0 instructions: 1840000002 cycles: 2135780327 heartbeat IPC: 1.612 cumulative IPC: 0.839 (Simulation time: 14 hr 26 min 55 sec)
Heartbeat CPU 0 instructions: 1850000000 cycles: 2144197792 heartbeat IPC: 1.188 cumulative IPC: 0.8404 (Simulation time: 14 hr 30 min 26 sec)
Heartbeat CPU 1 instructions: 600000003 cycles: 2159651541 heartbeat IPC: 0.3183 cumulative IPC: 0.2509 (Simulation time: 14 hr 36 min 29 sec)
Heartbeat CPU 2 instructions: 380000000 cycles: 2169595682 heartbeat IPC: 0.2055 cumulative IPC: 0.1522 (Simulation time: 14 hr 39 min 56 sec)
Heartbeat CPU 0 instructions: 1860000001 cycles: 2208727265 heartbeat IPC: 0.155 cumulative IPC: 0.8203 (Simulation time: 14 hr 53 min 28 sec)
Heartbeat CPU 0 instructions: 1870000000 cycles: 2215734642 heartbeat IPC: 1.427 cumulative IPC: 0.8222 (Simulation time: 14 hr 56 min 29 sec)
Heartbeat CPU 0 instructions: 1880000002 cycles: 2219142059 heartbeat IPC: 2.935 cumulative IPC: 0.8255 (Simulation time: 14 hr 58 min 11 sec)
Heartbeat CPU 1 instructions: 610000000 cycles: 2219541259 heartbeat IPC: 0.167 cumulative IPC: 0.2486 (Simulation time: 14 hr 58 min 22 sec)
Heartbeat CPU 0 instructions: 1890000000 cycles: 2222644299 heartbeat IPC: 2.855 cumulative IPC: 0.8287 (Simulation time: 14 hr 59 min 52 sec)
Heartbeat CPU 0 instructions: 1900000002 cycles: 2226703640 heartbeat IPC: 2.463 cumulative IPC: 0.8317 (Simulation time: 15 hr 01 min 47 sec)
Heartbeat CPU 0 instructions: 1910000002 cycles: 2231334296 heartbeat IPC: 2.16 cumulative IPC: 0.8344 (Simulation time: 15 hr 03 min 55 sec)
Heartbeat CPU 2 instructions: 390000003 cycles: 2234966558 heartbeat IPC: 0.153 cumulative IPC: 0.1522 (Simulation time: 15 hr 05 min 34 sec)
Heartbeat CPU 0 instructions: 1920000000 cycles: 2235780027 heartbeat IPC: 2.249 cumulative IPC: 0.8373 (Simulation time: 15 hr 05 min 57 sec)
Heartbeat CPU 0 instructions: 1930000000 cycles: 2241759940 heartbeat IPC: 1.672 cumulative IPC: 0.8395 (Simulation time: 15 hr 08 min 31 sec)
Heartbeat CPU 1 instructions: 620000004 cycles: 2241825691 heartbeat IPC: 0.4487 cumulative IPC: 0.2506 (Simulation time: 15 hr 08 min 33 sec)
Heartbeat CPU 0 instructions: 1940000004 cycles: 2248043277 heartbeat IPC: 1.592 cumulative IPC: 0.8416 (Simulation time: 15 hr 11 min 09 sec)
Heartbeat CPU 1 instructions: 630000003 cycles: 2273033075 heartbeat IPC: 0.3204 cumulative IPC: 0.2516 (Simulation time: 15 hr 20 min 09 sec)
Heartbeat CPU 2 instructions: 400000000 cycles: 2294436152 heartbeat IPC: 0.1682 cumulative IPC: 0.1526 (Simulation time: 15 hr 27 min 15 sec)
Heartbeat CPU 0 instructions: 1950000001 cycles: 2305089124 heartbeat IPC: 0.1753 cumulative IPC: 0.825 (Simulation time: 15 hr 30 min 49 sec)
Heartbeat CPU 0 instructions: 1960000004 cycles: 2320295484 heartbeat IPC: 0.6576 cumulative IPC: 0.8239 (Simulation time: 15 hr 36 min 25 sec)
Heartbeat CPU 0 instructions: 1970000002 cycles: 2323813306 heartbeat IPC: 2.843 cumulative IPC: 0.827 (Simulation time: 15 hr 38 min 03 sec)
Heartbeat CPU 1 instructions: 640000000 cycles: 2326781519 heartbeat IPC: 0.1861 cumulative IPC: 0.2501 (Simulation time: 15 hr 39 min 28 sec)
Heartbeat CPU 0 instructions: 1980000003 cycles: 2327107200 heartbeat IPC: 3.036 cumulative IPC: 0.8302 (Simulation time: 15 hr 39 min 37 sec)
Heartbeat CPU 0 instructions: 1990000000 cycles: 2331370371 heartbeat IPC: 2.346 cumulative IPC: 0.8329 (Simulation time: 15 hr 41 min 35 sec)
*** Reached end of trace: (0, "/home/das/traces4_champsim/627.cam4_s-573B.champsimtrace.xz")
Heartbeat CPU 0 instructions: 2000000001 cycles: 2336424401 heartbeat IPC: 1.979 cumulative IPC: 0.8354 (Simulation time: 15 hr 43 min 48 sec)
Heartbeat CPU 0 instructions: 2010000002 cycles: 2355256576 heartbeat IPC: 0.531 cumulative IPC: 0.833 (Simulation time: 15 hr 50 min 36 sec)
Heartbeat CPU 2 instructions: 410000003 cycles: 2356626308 heartbeat IPC: 0.1608 cumulative IPC: 0.1529 (Simulation time: 15 hr 51 min 14 sec)
Heartbeat CPU 0 instructions: 2020000001 cycles: 2359124661 heartbeat IPC: 2.585 cumulative IPC: 0.8359 (Simulation time: 15 hr 52 min 31 sec)
Heartbeat CPU 1 instructions: 650000000 cycles: 2362141915 heartbeat IPC: 0.2828 cumulative IPC: 0.2506 (Simulation time: 15 hr 53 min 58 sec)
Heartbeat CPU 0 instructions: 2030000000 cycles: 2362558554 heartbeat IPC: 2.912 cumulative IPC: 0.8389 (Simulation time: 15 hr 54 min 10 sec)
Heartbeat CPU 0 instructions: 2040000001 cycles: 2366088752 heartbeat IPC: 2.833 cumulative IPC: 0.8419 (Simulation time: 15 hr 55 min 52 sec)
Heartbeat CPU 0 instructions: 2050000004 cycles: 2370294853 heartbeat IPC: 2.377 cumulative IPC: 0.8447 (Simulation time: 15 hr 57 min 52 sec)
Heartbeat CPU 0 instructions: 2060000000 cycles: 2374706958 heartbeat IPC: 2.266 cumulative IPC: 0.8473 (Simulation time: 15 hr 59 min 54 sec)
Heartbeat CPU 0 instructions: 2070000000 cycles: 2379169643 heartbeat IPC: 2.241 cumulative IPC: 0.85 (Simulation time: 16 hr 02 min 12 sec)
Heartbeat CPU 1 instructions: 660000002 cycles: 2383819676 heartbeat IPC: 0.4613 cumulative IPC: 0.2525 (Simulation time: 16 hr 04 min 19 sec)
Heartbeat CPU 0 instructions: 2080000002 cycles: 2384857497 heartbeat IPC: 1.758 cumulative IPC: 0.8521 (Simulation time: 16 hr 04 min 49 sec)
Heartbeat CPU 0 instructions: 2090000002 cycles: 2388742967 heartbeat IPC: 2.574 cumulative IPC: 0.855 (Simulation time: 16 hr 06 min 40 sec)
Heartbeat CPU 2 instructions: 420000003 cycles: 2396075084 heartbeat IPC: 0.2535 cumulative IPC: 0.1545 (Simulation time: 16 hr 09 min 33 sec)
Heartbeat CPU 0 instructions: 2100000002 cycles: 2406648041 heartbeat IPC: 0.5585 cumulative IPC: 0.8527 (Simulation time: 16 hr 13 min 41 sec)
Heartbeat CPU 1 instructions: 670000003 cycles: 2408134670 heartbeat IPC: 0.4113 cumulative IPC: 0.2541 (Simulation time: 16 hr 14 min 14 sec)
Heartbeat CPU 0 instructions: 2110000000 cycles: 2462980310 heartbeat IPC: 0.1775 cumulative IPC: 0.8372 (Simulation time: 16 hr 33 min 36 sec)
Heartbeat CPU 0 instructions: 2120000002 cycles: 2468479591 heartbeat IPC: 1.818 cumulative IPC: 0.8394 (Simulation time: 16 hr 36 min 07 sec)
Heartbeat CPU 2 instructions: 430000004 cycles: 2470726804 heartbeat IPC: 0.134 cumulative IPC: 0.1539 (Simulation time: 16 hr 37 min 16 sec)
Heartbeat CPU 0 instructions: 2130000001 cycles: 2472007460 heartbeat IPC: 2.835 cumulative IPC: 0.8423 (Simulation time: 16 hr 37 min 56 sec)
Heartbeat CPU 1 instructions: 680000002 cycles: 2472929493 heartbeat IPC: 0.1543 cumulative IPC: 0.2515 (Simulation time: 16 hr 38 min 24 sec)
Heartbeat CPU 0 instructions: 2140000004 cycles: 2475474469 heartbeat IPC: 2.884 cumulative IPC: 0.8451 (Simulation time: 16 hr 39 min 41 sec)
Heartbeat CPU 0 instructions: 2150000002 cycles: 2479772459 heartbeat IPC: 2.327 cumulative IPC: 0.8477 (Simulation time: 16 hr 41 min 47 sec)
Heartbeat CPU 0 instructions: 2160000002 cycles: 2484055488 heartbeat IPC: 2.335 cumulative IPC: 0.8503 (Simulation time: 16 hr 43 min 48 sec)
Heartbeat CPU 0 instructions: 2170000001 cycles: 2489038349 heartbeat IPC: 2.007 cumulative IPC: 0.8526 (Simulation time: 16 hr 46 min 05 sec)
Heartbeat CPU 0 instructions: 2180000000 cycles: 2494322263 heartbeat IPC: 1.893 cumulative IPC: 0.8548 (Simulation time: 16 hr 48 min 32 sec)
Heartbeat CPU 1 instructions: 690000004 cycles: 2495130430 heartbeat IPC: 0.4504 cumulative IPC: 0.2533 (Simulation time: 16 hr 48 min 55 sec)
Heartbeat CPU 0 instructions: 2190000001 cycles: 2498569589 heartbeat IPC: 2.354 cumulative IPC: 0.8574 (Simulation time: 16 hr 50 min 30 sec)
Heartbeat CPU 2 instructions: 440000003 cycles: 2509427690 heartbeat IPC: 0.2584 cumulative IPC: 0.1555 (Simulation time: 16 hr 54 min 51 sec)
Heartbeat CPU 0 instructions: 2200000003 cycles: 2512446101 heartbeat IPC: 0.7206 cumulative IPC: 0.8567 (Simulation time: 16 hr 56 min 06 sec)
Heartbeat CPU 1 instructions: 700000000 cycles: 2520499380 heartbeat IPC: 0.3942 cumulative IPC: 0.2547 (Simulation time: 16 hr 59 min 11 sec)
Heartbeat CPU 0 instructions: 2210000002 cycles: 2572565557 heartbeat IPC: 0.1663 cumulative IPC: 0.8404 (Simulation time: 17 hr 17 min 17 sec)
Heartbeat CPU 0 instructions: 2220000000 cycles: 2578227813 heartbeat IPC: 1.766 cumulative IPC: 0.8425 (Simulation time: 17 hr 19 min 46 sec)
Heartbeat CPU 0 instructions: 2230000000 cycles: 2581678604 heartbeat IPC: 2.898 cumulative IPC: 0.8452 (Simulation time: 17 hr 21 min 26 sec)
Heartbeat CPU 1 instructions: 710000002 cycles: 2582937090 heartbeat IPC: 0.1602 cumulative IPC: 0.2524 (Simulation time: 17 hr 21 min 59 sec)
Heartbeat CPU 2 instructions: 450000003 cycles: 2584482354 heartbeat IPC: 0.1332 cumulative IPC: 0.1549 (Simulation time: 17 hr 22 min 41 sec)
Heartbeat CPU 0 instructions: 2240000004 cycles: 2585190108 heartbeat IPC: 2.848 cumulative IPC: 0.848 (Simulation time: 17 hr 23 min 01 sec)
Heartbeat CPU 0 instructions: 2250000003 cycles: 2589251893 heartbeat IPC: 2.462 cumulative IPC: 0.8505 (Simulation time: 17 hr 24 min 59 sec)
Heartbeat CPU 0 instructions: 2260000004 cycles: 2593626341 heartbeat IPC: 2.286 cumulative IPC: 0.8529 (Simulation time: 17 hr 27 min 01 sec)
Heartbeat CPU 0 instructions: 2270000000 cycles: 2598266119 heartbeat IPC: 2.155 cumulative IPC: 0.8553 (Simulation time: 17 hr 29 min 08 sec)
Heartbeat CPU 0 instructions: 2280000000 cycles: 2603257336 heartbeat IPC: 2.004 cumulative IPC: 0.8575 (Simulation time: 17 hr 31 min 26 sec)
Heartbeat CPU 3 instructions: 90000000 cycles: 2604634271 heartbeat IPC: 0.01702 cumulative IPC: 0.01545 (Simulation time: 17 hr 31 min 59 sec)
Heartbeat CPU 0 instructions: 2290000002 cycles: 2608875673 heartbeat IPC: 1.78 cumulative IPC: 0.8595 (Simulation time: 17 hr 33 min 53 sec)
Heartbeat CPU 1 instructions: 720000002 cycles: 2610731425 heartbeat IPC: 0.3598 cumulative IPC: 0.2535 (Simulation time: 17 hr 34 min 45 sec)
Heartbeat CPU 0 instructions: 2300000002 cycles: 2617137171 heartbeat IPC: 1.21 cumulative IPC: 0.8606 (Simulation time: 17 hr 37 min 16 sec)
Heartbeat CPU 2 instructions: 460000001 cycles: 2625625825 heartbeat IPC: 0.2431 cumulative IPC: 0.1563 (Simulation time: 17 hr 40 min 31 sec)
Heartbeat CPU 1 instructions: 730000000 cycles: 2667383940 heartbeat IPC: 0.1765 cumulative IPC: 0.2519 (Simulation time: 17 hr 55 min 03 sec)
Heartbeat CPU 0 instructions: 2310000004 cycles: 2683655974 heartbeat IPC: 0.1503 cumulative IPC: 0.8429 (Simulation time: 18 hr 00 min 43 sec)
Heartbeat CPU 0 instructions: 2320000003 cycles: 2690969263 heartbeat IPC: 1.367 cumulative IPC: 0.8443 (Simulation time: 18 hr 03 min 47 sec)
Heartbeat CPU 0 instructions: 2330000001 cycles: 2694462366 heartbeat IPC: 2.863 cumulative IPC: 0.847 (Simulation time: 18 hr 05 min 35 sec)
Heartbeat CPU 0 instructions: 2340000003 cycles: 2697856084 heartbea