WARNING: physical memory size is smaller than virtual memory size.
WARNING: option --warmup_instructions is deprecated. Use --warmup-instructions instead.
WARNING: option --simulation_instructions is deprecated. Use --simulation-instructions instead.

*** ChampSim Multicore Out-of-Order Simulator ***
Warmup Instructions: 50000000
Simulation Instructions: 150000000
Number of CPUs: 4
Page size: 4096

Off-chip DRAM Size: 4 GiB Channels: 1 Width: 64-bit Data Race: 3200 MT/s
Heartbeat CPU 0 instructions: 10000000 cycles: 2599934 heartbeat IPC: 3.846 cumulative IPC: 3.846 (Simulation time: 00 hr 02 min 24 sec)
Heartbeat CPU 1 instructions: 10000004 cycles: 2998098 heartbeat IPC: 3.335 cumulative IPC: 3.335 (Simulation time: 00 hr 02 min 47 sec)
Heartbeat CPU 3 instructions: 10000001 cycles: 3296946 heartbeat IPC: 3.033 cumulative IPC: 3.033 (Simulation time: 00 hr 03 min 04 sec)
Heartbeat CPU 2 instructions: 10000003 cycles: 4367110 heartbeat IPC: 2.29 cumulative IPC: 2.29 (Simulation time: 00 hr 04 min 08 sec)
Heartbeat CPU 0 instructions: 20000001 cycles: 5199768 heartbeat IPC: 3.846 cumulative IPC: 3.846 (Simulation time: 00 hr 04 min 58 sec)
Heartbeat CPU 1 instructions: 20000003 cycles: 5976124 heartbeat IPC: 3.358 cumulative IPC: 3.347 (Simulation time: 00 hr 05 min 46 sec)
Heartbeat CPU 3 instructions: 20000001 cycles: 6560160 heartbeat IPC: 3.064 cumulative IPC: 3.049 (Simulation time: 00 hr 06 min 23 sec)
Heartbeat CPU 0 instructions: 30000000 cycles: 7799627 heartbeat IPC: 3.846 cumulative IPC: 3.846 (Simulation time: 00 hr 07 min 33 sec)
Heartbeat CPU 2 instructions: 20000001 cycles: 8730255 heartbeat IPC: 2.292 cumulative IPC: 2.291 (Simulation time: 00 hr 08 min 30 sec)
Heartbeat CPU 1 instructions: 30000003 cycles: 8929345 heartbeat IPC: 3.386 cumulative IPC: 3.36 (Simulation time: 00 hr 08 min 44 sec)
Heartbeat CPU 3 instructions: 30000000 cycles: 9769909 heartbeat IPC: 3.116 cumulative IPC: 3.071 (Simulation time: 00 hr 09 min 32 sec)
Heartbeat CPU 0 instructions: 40000003 cycles: 10400872 heartbeat IPC: 3.844 cumulative IPC: 3.846 (Simulation time: 00 hr 10 min 12 sec)
Heartbeat CPU 1 instructions: 40000001 cycles: 11833305 heartbeat IPC: 3.444 cumulative IPC: 3.38 (Simulation time: 00 hr 11 min 37 sec)
Heartbeat CPU 3 instructions: 40000002 cycles: 13032292 heartbeat IPC: 3.065 cumulative IPC: 3.069 (Simulation time: 00 hr 12 min 48 sec)
Heartbeat CPU 2 instructions: 30000001 cycles: 13096292 heartbeat IPC: 2.29 cumulative IPC: 2.291 (Simulation time: 00 hr 12 min 52 sec)
Heartbeat CPU 0 instructions: 50000003 cycles: 13309741 heartbeat IPC: 3.438 cumulative IPC: 3.757 (Simulation time: 00 hr 13 min 04 sec)
Warmup finished CPU 0 instructions: 50000003 cycles: 13309742 cumulative IPC: 3.757 (Simulation time: 00 hr 13 min 04 sec)
Heartbeat CPU 1 instructions: 50000001 cycles: 14694620 heartbeat IPC: 3.495 cumulative IPC: 3.403 (Simulation time: 00 hr 14 min 31 sec)
Warmup finished CPU 1 instructions: 50000001 cycles: 14694621 cumulative IPC: 3.403 (Simulation time: 00 hr 14 min 31 sec)
Heartbeat CPU 0 instructions: 60000000 cycles: 15909589 heartbeat IPC: 3.846 cumulative IPC: 3.771 (Simulation time: 00 hr 15 min 51 sec)
Heartbeat CPU 3 instructions: 50000004 cycles: 16298359 heartbeat IPC: 3.062 cumulative IPC: 3.068 (Simulation time: 00 hr 16 min 15 sec)
Warmup finished CPU 3 instructions: 50000004 cycles: 16298360 cumulative IPC: 3.068 (Simulation time: 00 hr 16 min 15 sec)
Heartbeat CPU 2 instructions: 40000004 cycles: 17422342 heartbeat IPC: 2.312 cumulative IPC: 2.296 (Simulation time: 00 hr 17 min 26 sec)
Heartbeat CPU 1 instructions: 60000002 cycles: 17509162 heartbeat IPC: 3.553 cumulative IPC: 3.427 (Simulation time: 00 hr 17 min 32 sec)
Heartbeat CPU 0 instructions: 70000003 cycles: 18509388 heartbeat IPC: 3.846 cumulative IPC: 3.782 (Simulation time: 00 hr 18 min 35 sec)
Heartbeat CPU 3 instructions: 60000004 cycles: 19507095 heartbeat IPC: 3.116 cumulative IPC: 3.076 (Simulation time: 00 hr 19 min 31 sec)
Heartbeat CPU 1 instructions: 70000000 cycles: 20285903 heartbeat IPC: 3.601 cumulative IPC: 3.451 (Simulation time: 00 hr 20 min 16 sec)
Heartbeat CPU 0 instructions: 80000003 cycles: 21109189 heartbeat IPC: 3.846 cumulative IPC: 3.79 (Simulation time: 00 hr 21 min 02 sec)
Heartbeat CPU 2 instructions: 50000000 cycles: 21569131 heartbeat IPC: 2.412 cumulative IPC: 2.318 (Simulation time: 00 hr 21 min 31 sec)
Warmup finished CPU 2 instructions: 50000000 cycles: 21569132 cumulative IPC: 2.318 (Simulation time: 00 hr 21 min 31 sec)
Warmup complete CPU 0 instructions: 81766443 cycles: 21569132 cumulative IPC: 3.791 (Simulation time: 00 hr 21 min 31 sec)
Warmup complete CPU 1 instructions: 74761019 cycles: 21569132 cumulative IPC: 3.466 (Simulation time: 00 hr 21 min 31 sec)
Warmup complete CPU 2 instructions: 50000000 cycles: 21569132 cumulative IPC: 2.318 (Simulation time: 00 hr 21 min 31 sec)
Warmup complete CPU 3 instructions: 66226444 cycles: 21569132 cumulative IPC: 3.07 (Simulation time: 00 hr 21 min 31 sec)
Heartbeat CPU 0 instructions: 90000003 cycles: 33901821 heartbeat IPC: 0.7817 cumulative IPC: 0.6676 (Simulation time: 00 hr 26 min 41 sec)
Heartbeat CPU 1 instructions: 80000001 cycles: 47923387 heartbeat IPC: 0.3618 cumulative IPC: 0.1988 (Simulation time: 00 hr 32 min 20 sec)
Heartbeat CPU 0 instructions: 100000000 cycles: 49646747 heartbeat IPC: 0.6351 cumulative IPC: 0.6494 (Simulation time: 00 hr 33 min 00 sec)
Heartbeat CPU 2 instructions: 60000000 cycles: 65305048 heartbeat IPC: 0.2286 cumulative IPC: 0.2286 (Simulation time: 00 hr 39 min 20 sec)
Heartbeat CPU 0 instructions: 110000002 cycles: 66058609 heartbeat IPC: 0.6093 cumulative IPC: 0.6346 (Simulation time: 00 hr 39 min 39 sec)
Heartbeat CPU 1 instructions: 90000000 cycles: 110832993 heartbeat IPC: 0.159 cumulative IPC: 0.1707 (Simulation time: 00 hr 56 min 37 sec)
Heartbeat CPU 0 instructions: 120000000 cycles: 113307462 heartbeat IPC: 0.2116 cumulative IPC: 0.4168 (Simulation time: 00 hr 57 min 36 sec)
Heartbeat CPU 2 instructions: 70000001 cycles: 119521417 heartbeat IPC: 0.1844 cumulative IPC: 0.2042 (Simulation time: 01 hr 00 min 08 sec)
Heartbeat CPU 0 instructions: 130000004 cycles: 129916065 heartbeat IPC: 0.6021 cumulative IPC: 0.4452 (Simulation time: 01 hr 04 min 24 sec)
Heartbeat CPU 0 instructions: 140000001 cycles: 148138854 heartbeat IPC: 0.5488 cumulative IPC: 0.4601 (Simulation time: 01 hr 11 min 52 sec)
Heartbeat CPU 0 instructions: 150000003 cycles: 164871887 heartbeat IPC: 0.5976 cumulative IPC: 0.4761 (Simulation time: 01 hr 18 min 34 sec)
Heartbeat CPU 1 instructions: 100000003 cycles: 167025100 heartbeat IPC: 0.178 cumulative IPC: 0.1735 (Simulation time: 01 hr 19 min 23 sec)
Heartbeat CPU 2 instructions: 80000000 cycles: 168693346 heartbeat IPC: 0.2034 cumulative IPC: 0.2039 (Simulation time: 01 hr 20 min 00 sec)
Heartbeat CPU 0 instructions: 160000002 cycles: 180740052 heartbeat IPC: 0.6302 cumulative IPC: 0.4915 (Simulation time: 01 hr 24 min 45 sec)
Heartbeat CPU 3 instructions: 70000001 cycles: 182854072 heartbeat IPC: 0.06122 cumulative IPC: 0.0234 (Simulation time: 01 hr 25 min 36 sec)
Heartbeat CPU 0 instructions: 170000001 cycles: 196260463 heartbeat IPC: 0.6443 cumulative IPC: 0.5051 (Simulation time: 01 hr 31 min 08 sec)
Heartbeat CPU 0 instructions: 180000003 cycles: 211877983 heartbeat IPC: 0.6403 cumulative IPC: 0.5162 (Simulation time: 01 hr 37 min 32 sec)
Heartbeat CPU 2 instructions: 90000000 cycles: 212412532 heartbeat IPC: 0.2287 cumulative IPC: 0.2096 (Simulation time: 01 hr 37 min 47 sec)
Heartbeat CPU 1 instructions: 110000000 cycles: 216746945 heartbeat IPC: 0.2011 cumulative IPC: 0.1805 (Simulation time: 01 hr 39 min 37 sec)
Heartbeat CPU 0 instructions: 190000000 cycles: 227171231 heartbeat IPC: 0.6539 cumulative IPC: 0.5264 (Simulation time: 01 hr 44 min 02 sec)
Heartbeat CPU 2 instructions: 100000000 cycles: 266048329 heartbeat IPC: 0.1864 cumulative IPC: 0.2045 (Simulation time: 01 hr 58 min 42 sec)
Heartbeat CPU 0 instructions: 200000000 cycles: 273799979 heartbeat IPC: 0.2145 cumulative IPC: 0.4688 (Simulation time: 02 hr 01 min 51 sec)
Heartbeat CPU 1 instructions: 120000002 cycles: 275553286 heartbeat IPC: 0.17 cumulative IPC: 0.1781 (Simulation time: 02 hr 02 min 32 sec)
Heartbeat CPU 0 instructions: 210000004 cycles: 289084577 heartbeat IPC: 0.6543 cumulative IPC: 0.4794 (Simulation time: 02 hr 08 min 06 sec)
Heartbeat CPU 0 instructions: 220000000 cycles: 304135598 heartbeat IPC: 0.6644 cumulative IPC: 0.4892 (Simulation time: 02 hr 14 min 10 sec)
Heartbeat CPU 2 instructions: 110000004 cycles: 307274697 heartbeat IPC: 0.2426 cumulative IPC: 0.21 (Simulation time: 02 hr 15 min 27 sec)
Heartbeat CPU 0 instructions: 230000001 cycles: 319127672 heartbeat IPC: 0.667 cumulative IPC: 0.4982 (Simulation time: 02 hr 20 min 16 sec)
Simulation finished CPU 0 instructions: 150000001 cycles: 300306638 cumulative IPC: 0.4995 (Simulation time: 02 hr 21 min 27 sec)
Heartbeat CPU 1 instructions: 130000001 cycles: 321916408 heartbeat IPC: 0.2157 cumulative IPC: 0.1839 (Simulation time: 02 hr 21 min 28 sec)
Heartbeat CPU 0 instructions: 240000002 cycles: 334470723 heartbeat IPC: 0.6518 cumulative IPC: 0.5057 (Simulation time: 02 hr 26 min 39 sec)
Heartbeat CPU 2 instructions: 120000003 cycles: 348926182 heartbeat IPC: 0.2401 cumulative IPC: 0.2138 (Simulation time: 02 hr 32 min 49 sec)
Heartbeat CPU 0 instructions: 250000000 cycles: 349491575 heartbeat IPC: 0.6657 cumulative IPC: 0.513 (Simulation time: 02 hr 33 min 01 sec)
Heartbeat CPU 0 instructions: 260000001 cycles: 364688231 heartbeat IPC: 0.658 cumulative IPC: 0.5195 (Simulation time: 02 hr 39 min 34 sec)
Heartbeat CPU 1 instructions: 140000004 cycles: 368152146 heartbeat IPC: 0.2163 cumulative IPC: 0.1882 (Simulation time: 02 hr 41 min 04 sec)
Heartbeat CPU 2 instructions: 130000001 cycles: 397485113 heartbeat IPC: 0.2059 cumulative IPC: 0.2128 (Simulation time: 02 hr 52 min 25 sec)
Heartbeat CPU 0 instructions: 270000001 cycles: 408004136 heartbeat IPC: 0.2309 cumulative IPC: 0.4871 (Simulation time: 02 hr 56 min 41 sec)
Heartbeat CPU 1 instructions: 150000002 cycles: 420988419 heartbeat IPC: 0.1893 cumulative IPC: 0.1884 (Simulation time: 03 hr 02 min 15 sec)
Heartbeat CPU 0 instructions: 280000003 cycles: 422635280 heartbeat IPC: 0.6835 cumulative IPC: 0.4943 (Simulation time: 03 hr 02 min 58 sec)
Heartbeat CPU 0 instructions: 290000003 cycles: 437386648 heartbeat IPC: 0.6779 cumulative IPC: 0.5008 (Simulation time: 03 hr 09 min 02 sec)
Heartbeat CPU 2 instructions: 140000001 cycles: 439111006 heartbeat IPC: 0.2402 cumulative IPC: 0.2155 (Simulation time: 03 hr 09 min 46 sec)
Heartbeat CPU 0 instructions: 300000004 cycles: 452204931 heartbeat IPC: 0.6748 cumulative IPC: 0.5068 (Simulation time: 03 hr 15 min 07 sec)
Heartbeat CPU 1 instructions: 160000000 cycles: 464652299 heartbeat IPC: 0.229 cumulative IPC: 0.1924 (Simulation time: 03 hr 20 min 07 sec)
Heartbeat CPU 0 instructions: 310000000 cycles: 466768265 heartbeat IPC: 0.6867 cumulative IPC: 0.5127 (Simulation time: 03 hr 20 min 59 sec)
Heartbeat CPU 2 instructions: 150000003 cycles: 479065849 heartbeat IPC: 0.2503 cumulative IPC: 0.2186 (Simulation time: 03 hr 26 min 10 sec)
Heartbeat CPU 0 instructions: 320000000 cycles: 481610175 heartbeat IPC: 0.6738 cumulative IPC: 0.5179 (Simulation time: 03 hr 27 min 14 sec)
Heartbeat CPU 0 instructions: 330000000 cycles: 496342386 heartbeat IPC: 0.6788 cumulative IPC: 0.5228 (Simulation time: 03 hr 33 min 28 sec)
Heartbeat CPU 1 instructions: 170000002 cycles: 508162115 heartbeat IPC: 0.2298 cumulative IPC: 0.1957 (Simulation time: 03 hr 38 min 38 sec)
Heartbeat CPU 2 instructions: 160000001 cycles: 521943583 heartbeat IPC: 0.2332 cumulative IPC: 0.2198 (Simulation time: 03 hr 43 min 43 sec)
Heartbeat CPU 0 instructions: 340000001 cycles: 533528622 heartbeat IPC: 0.2689 cumulative IPC: 0.5044 (Simulation time: 03 hr 48 min 25 sec)
Heartbeat CPU 0 instructions: 350000004 cycles: 559685039 heartbeat IPC: 0.3823 cumulative IPC: 0.4985 (Simulation time: 03 hr 59 min 06 sec)
Heartbeat CPU 1 instructions: 180000004 cycles: 567051359 heartbeat IPC: 0.1698 cumulative IPC: 0.1929 (Simulation time: 04 hr 02 min 10 sec)
Heartbeat CPU 2 instructions: 170000003 cycles: 572008256 heartbeat IPC: 0.1997 cumulative IPC: 0.218 (Simulation time: 04 hr 04 min 10 sec)
Heartbeat CPU 0 instructions: 360000003 cycles: 574557210 heartbeat IPC: 0.6724 cumulative IPC: 0.5031 (Simulation time: 04 hr 05 min 12 sec)
Heartbeat CPU 0 instructions: 370000001 cycles: 588975553 heartbeat IPC: 0.6936 cumulative IPC: 0.508 (Simulation time: 04 hr 11 min 09 sec)
Heartbeat CPU 0 instructions: 380000003 cycles: 603465540 heartbeat IPC: 0.6901 cumulative IPC: 0.5125 (Simulation time: 04 hr 17 min 04 sec)
Heartbeat CPU 3 instructions: 80000003 cycles: 604722245 heartbeat IPC: 0.0237 cumulative IPC: 0.02362 (Simulation time: 04 hr 17 min 37 sec)
Heartbeat CPU 1 instructions: 190000001 cycles: 609079695 heartbeat IPC: 0.2379 cumulative IPC: 0.1961 (Simulation time: 04 hr 19 min 26 sec)
Heartbeat CPU 2 instructions: 180000002 cycles: 610292108 heartbeat IPC: 0.2612 cumulative IPC: 0.2208 (Simulation time: 04 hr 19 min 55 sec)
Heartbeat CPU 0 instructions: 390000000 cycles: 617773201 heartbeat IPC: 0.6989 cumulative IPC: 0.517 (Simulation time: 04 hr 23 min 00 sec)
Heartbeat CPU 0 instructions: 400000002 cycles: 632124320 heartbeat IPC: 0.6968 cumulative IPC: 0.5212 (Simulation time: 04 hr 28 min 58 sec)
Heartbeat CPU 0 instructions: 410000001 cycles: 646396270 heartbeat IPC: 0.7007 cumulative IPC: 0.5253 (Simulation time: 04 hr 35 min 01 sec)
Heartbeat CPU 2 instructions: 190000000 cycles: 647328693 heartbeat IPC: 0.27 cumulative IPC: 0.2237 (Simulation time: 04 hr 35 min 26 sec)
Heartbeat CPU 1 instructions: 200000004 cycles: 650669213 heartbeat IPC: 0.2404 cumulative IPC: 0.1991 (Simulation time: 04 hr 36 min 49 sec)
Heartbeat CPU 0 instructions: 420000000 cycles: 688431774 heartbeat IPC: 0.2379 cumulative IPC: 0.5072 (Simulation time: 04 hr 51 min 22 sec)
Heartbeat CPU 2 instructions: 200000003 cycles: 691619887 heartbeat IPC: 0.2258 cumulative IPC: 0.2239 (Simulation time: 04 hr 52 min 47 sec)
Simulation finished CPU 2 instructions: 150000003 cycles: 670050756 cumulative IPC: 0.2239 (Simulation time: 04 hr 52 min 47 sec)
Heartbeat CPU 1 instructions: 210000000 cycles: 701446055 heartbeat IPC: 0.1969 cumulative IPC: 0.1989 (Simulation time: 04 hr 57 min 05 sec)
Heartbeat CPU 0 instructions: 430000001 cycles: 702830333 heartbeat IPC: 0.6945 cumulative IPC: 0.5112 (Simulation time: 04 hr 57 min 39 sec)
Heartbeat CPU 0 instructions: 440000000 cycles: 719386083 heartbeat IPC: 0.604 cumulative IPC: 0.5134 (Simulation time: 05 hr 04 min 54 sec)
Heartbeat CPU 2 instructions: 210000001 cycles: 733114442 heartbeat IPC: 0.241 cumulative IPC: 0.2249 (Simulation time: 05 hr 10 min 43 sec)
Heartbeat CPU 0 instructions: 450000004 cycles: 735422396 heartbeat IPC: 0.6236 cumulative IPC: 0.5158 (Simulation time: 05 hr 11 min 39 sec)
Heartbeat CPU 1 instructions: 220000003 cycles: 747957209 heartbeat IPC: 0.215 cumulative IPC: 0.1999 (Simulation time: 05 hr 16 min 56 sec)
Heartbeat CPU 0 instructions: 460000001 cycles: 749391879 heartbeat IPC: 0.7158 cumulative IPC: 0.5197 (Simulation time: 05 hr 17 min 31 sec)
Heartbeat CPU 0 instructions: 470000000 cycles: 763662257 heartbeat IPC: 0.7008 cumulative IPC: 0.5232 (Simulation time: 05 hr 23 min 19 sec)
Simulation finished CPU 1 instructions: 150000002 cycles: 746055719 cumulative IPC: 0.2011 (Simulation time: 05 hr 25 min 01 sec)
Heartbeat CPU 2 instructions: 220000001 cycles: 768086777 heartbeat IPC: 0.2859 cumulative IPC: 0.2277 (Simulation time: 05 hr 25 min 12 sec)
Heartbeat CPU 0 instructions: 480000000 cycles: 777759028 heartbeat IPC: 0.7094 cumulative IPC: 0.5266 (Simulation time: 05 hr 29 min 21 sec)
Heartbeat CPU 1 instructions: 230000002 cycles: 788510792 heartbeat IPC: 0.2466 cumulative IPC: 0.2024 (Simulation time: 05 hr 33 min 56 sec)
Heartbeat CPU 2 instructions: 230000002 cycles: 809554571 heartbeat IPC: 0.2412 cumulative IPC: 0.2284 (Simulation time: 05 hr 42 min 08 sec)
Heartbeat CPU 0 instructions: 490000000 cycles: 819294692 heartbeat IPC: 0.2408 cumulative IPC: 0.5117 (Simulation time: 05 hr 46 min 07 sec)
Heartbeat CPU 0 instructions: 500000004 cycles: 834558785 heartbeat IPC: 0.6551 cumulative IPC: 0.5144 (Simulation time: 05 hr 52 min 37 sec)
Heartbeat CPU 1 instructions: 240000001 cycles: 841096292 heartbeat IPC: 0.1902 cumulative IPC: 0.2016 (Simulation time: 05 hr 55 min 30 sec)
Heartbeat CPU 0 instructions: 510000001 cycles: 851132793 heartbeat IPC: 0.6034 cumulative IPC: 0.5162 (Simulation time: 05 hr 59 min 37 sec)
Heartbeat CPU 2 instructions: 240000001 cycles: 851898643 heartbeat IPC: 0.2362 cumulative IPC: 0.2288 (Simulation time: 05 hr 59 min 58 sec)
Heartbeat CPU 0 instructions: 520000003 cycles: 865750777 heartbeat IPC: 0.6841 cumulative IPC: 0.5191 (Simulation time: 06 hr 05 min 56 sec)
Heartbeat CPU 0 instructions: 530000003 cycles: 879753644 heartbeat IPC: 0.7141 cumulative IPC: 0.5223 (Simulation time: 06 hr 11 min 54 sec)
Heartbeat CPU 1 instructions: 250000001 cycles: 884023380 heartbeat IPC: 0.233 cumulative IPC: 0.2032 (Simulation time: 06 hr 13 min 47 sec)
Heartbeat CPU 2 instructions: 250000001 cycles: 887207356 heartbeat IPC: 0.2832 cumulative IPC: 0.231 (Simulation time: 06 hr 15 min 17 sec)
Heartbeat CPU 0 instructions: 540000000 cycles: 893963690 heartbeat IPC: 0.7037 cumulative IPC: 0.5253 (Simulation time: 06 hr 18 min 31 sec)
Heartbeat CPU 3 instructions: 90000000 cycles: 905088147 heartbeat IPC: 0.03329 cumulative IPC: 0.02691 (Simulation time: 06 hr 23 min 17 sec)
Heartbeat CPU 0 instructions: 550000000 cycles: 907898725 heartbeat IPC: 0.7176 cumulative IPC: 0.5283 (Simulation time: 06 hr 24 min 26 sec)
Heartbeat CPU 2 instructions: 260000001 cycles: 921719414 heartbeat IPC: 0.2898 cumulative IPC: 0.2333 (Simulation time: 06 hr 30 min 22 sec)
Heartbeat CPU 0 instructions: 560000001 cycles: 922029728 heartbeat IPC: 0.7077 cumulative IPC: 0.5311 (Simulation time: 06 hr 30 min 28 sec)
Heartbeat CPU 1 instructions: 260000002 cycles: 924271201 heartbeat IPC: 0.2485 cumulative IPC: 0.2052 (Simulation time: 06 hr 31 min 20 sec)
Heartbeat CPU 0 instructions: 570000003 cycles: 963463416 heartbeat IPC: 0.2413 cumulative IPC: 0.5184 (Simulation time: 06 hr 46 min 40 sec)
Heartbeat CPU 2 instructions: 270000004 cycles: 965302553 heartbeat IPC: 0.2294 cumulative IPC: 0.2331 (Simulation time: 06 hr 47 min 24 sec)
Heartbeat CPU 1 instructions: 270000003 cycles: 973862949 heartbeat IPC: 0.2016 cumulative IPC: 0.205 (Simulation time: 06 hr 51 min 07 sec)
Heartbeat CPU 0 instructions: 580000000 cycles: 978831489 heartbeat IPC: 0.6507 cumulative IPC: 0.5205 (Simulation time: 06 hr 53 min 25 sec)
Heartbeat CPU 0 instructions: 590000003 cycles: 995245777 heartbeat IPC: 0.6092 cumulative IPC: 0.522 (Simulation time: 07 hr 00 min 21 sec)
Heartbeat CPU 2 instructions: 280000003 cycles: 1006407922 heartbeat IPC: 0.2433 cumulative IPC: 0.2335 (Simulation time: 07 hr 05 min 02 sec)
Heartbeat CPU 0 instructions: 600000001 cycles: 1010392215 heartbeat IPC: 0.6602 cumulative IPC: 0.5241 (Simulation time: 07 hr 06 min 49 sec)
Heartbeat CPU 1 instructions: 280000001 cycles: 1019388468 heartbeat IPC: 0.2197 cumulative IPC: 0.2057 (Simulation time: 07 hr 10 min 37 sec)
Heartbeat CPU 0 instructions: 610000000 cycles: 1024286835 heartbeat IPC: 0.7197 cumulative IPC: 0.5268 (Simulation time: 07 hr 12 min 39 sec)
Heartbeat CPU 0 instructions: 620000002 cycles: 1038327005 heartbeat IPC: 0.7122 cumulative IPC: 0.5294 (Simulation time: 07 hr 18 min 36 sec)
Heartbeat CPU 2 instructions: 290000004 cycles: 1040753714 heartbeat IPC: 0.2912 cumulative IPC: 0.2355 (Simulation time: 07 hr 19 min 39 sec)
Heartbeat CPU 0 instructions: 630000001 cycles: 1052608804 heartbeat IPC: 0.7002 cumulative IPC: 0.5317 (Simulation time: 07 hr 24 min 41 sec)
Heartbeat CPU 1 instructions: 290000003 cycles: 1059490580 heartbeat IPC: 0.2494 cumulative IPC: 0.2074 (Simulation time: 07 hr 27 min 46 sec)
Heartbeat CPU 2 instructions: 300000003 cycles: 1082568601 heartbeat IPC: 0.2391 cumulative IPC: 0.2356 (Simulation time: 07 hr 36 min 41 sec)
Heartbeat CPU 0 instructions: 640000003 cycles: 1094472413 heartbeat IPC: 0.2389 cumulative IPC: 0.5203 (Simulation time: 07 hr 41 min 33 sec)
Heartbeat CPU 0 instructions: 650000002 cycles: 1108018190 heartbeat IPC: 0.7382 cumulative IPC: 0.523 (Simulation time: 07 hr 47 min 10 sec)
Heartbeat CPU 1 instructions: 300000003 cycles: 1108681292 heartbeat IPC: 0.2033 cumulative IPC: 0.2072 (Simulation time: 07 hr 47 min 27 sec)
Heartbeat CPU 2 instructions: 310000003 cycles: 1120006679 heartbeat IPC: 0.2671 cumulative IPC: 0.2367 (Simulation time: 07 hr 52 min 17 sec)
Heartbeat CPU 0 instructions: 660000003 cycles: 1121950947 heartbeat IPC: 0.7177 cumulative IPC: 0.5255 (Simulation time: 07 hr 53 min 07 sec)
Heartbeat CPU 0 instructions: 670000002 cycles: 1137888335 heartbeat IPC: 0.6275 cumulative IPC: 0.5269 (Simulation time: 07 hr 59 min 53 sec)
Heartbeat CPU 1 instructions: 310000003 cycles: 1154253449 heartbeat IPC: 0.2194 cumulative IPC: 0.2077 (Simulation time: 08 hr 06 min 43 sec)
Heartbeat CPU 0 instructions: 680000003 cycles: 1154403216 heartbeat IPC: 0.6055 cumulative IPC: 0.5281 (Simulation time: 08 hr 06 min 48 sec)
Heartbeat CPU 2 instructions: 320000000 cycles: 1160170772 heartbeat IPC: 0.249 cumulative IPC: 0.2371 (Simulation time: 08 hr 09 min 13 sec)
Heartbeat CPU 0 instructions: 690000003 cycles: 1168843649 heartbeat IPC: 0.6925 cumulative IPC: 0.5302 (Simulation time: 08 hr 12 min 53 sec)
Heartbeat CPU 0 instructions: 700000000 cycles: 1183110309 heartbeat IPC: 0.7009 cumulative IPC: 0.5323 (Simulation time: 08 hr 19 min 02 sec)
Heartbeat CPU 2 instructions: 330000002 cycles: 1194033815 heartbeat IPC: 0.2953 cumulative IPC: 0.2388 (Simulation time: 08 hr 23 min 39 sec)
Heartbeat CPU 1 instructions: 320000000 cycles: 1194996920 heartbeat IPC: 0.2454 cumulative IPC: 0.209 (Simulation time: 08 hr 24 min 02 sec)
Heartbeat CPU 0 instructions: 710000000 cycles: 1201065444 heartbeat IPC: 0.5569 cumulative IPC: 0.5326 (Simulation time: 08 hr 26 min 26 sec)
Heartbeat CPU 3 instructions: 100000003 cycles: 1215972297 heartbeat IPC: 0.03217 cumulative IPC: 0.02828 (Simulation time: 08 hr 32 min 07 sec)
Heartbeat CPU 2 instructions: 340000002 cycles: 1240355810 heartbeat IPC: 0.2159 cumulative IPC: 0.2379 (Simulation time: 08 hr 41 min 39 sec)
Heartbeat CPU 1 instructions: 330000001 cycles: 1250326982 heartbeat IPC: 0.1807 cumulative IPC: 0.2077 (Simulation time: 08 hr 45 min 28 sec)
Heartbeat CPU 0 instructions: 720000004 cycles: 1271964043 heartbeat IPC: 0.141 cumulative IPC: 0.5104 (Simulation time: 08 hr 54 min 10 sec)
Heartbeat CPU 2 instructions: 350000000 cycles: 1284131181 heartbeat IPC: 0.2284 cumulative IPC: 0.2376 (Simulation time: 08 hr 59 min 07 sec)
Heartbeat CPU 1 instructions: 340000002 cycles: 1303878220 heartbeat IPC: 0.1867 cumulative IPC: 0.2068 (Simulation time: 09 hr 06 min 51 sec)
Heartbeat CPU 0 instructions: 730000004 cycles: 1326988847 heartbeat IPC: 0.1817 cumulative IPC: 0.4966 (Simulation time: 09 hr 15 min 46 sec)
Heartbeat CPU 2 instructions: 360000004 cycles: 1328107830 heartbeat IPC: 0.2274 cumulative IPC: 0.2373 (Simulation time: 09 hr 16 min 13 sec)
Heartbeat CPU 1 instructions: 350000003 cycles: 1353433942 heartbeat IPC: 0.2018 cumulative IPC: 0.2067 (Simulation time: 09 hr 26 min 33 sec)
Heartbeat CPU 2 instructions: 370000004 cycles: 1376290464 heartbeat IPC: 0.2075 cumulative IPC: 0.2362 (Simulation time: 09 hr 35 min 56 sec)
Heartbeat CPU 0 instructions: 740000004 cycles: 1396740995 heartbeat IPC: 0.1434 cumulative IPC: 0.4787 (Simulation time: 09 hr 44 min 05 sec)
Heartbeat CPU 1 instructions: 360000004 cycles: 1414181272 heartbeat IPC: 0.1646 cumulative IPC: 0.2048 (Simulation time: 09 hr 51 min 11 sec)
Heartbeat CPU 2 instructions: 380000004 cycles: 1422146784 heartbeat IPC: 0.2181 cumulative IPC: 0.2356 (Simulation time: 09 hr 54 min 36 sec)
Heartbeat CPU 1 instructions: 370000000 cycles: 1466140501 heartbeat IPC: 0.1925 cumulative IPC: 0.2044 (Simulation time: 10 hr 13 min 13 sec)
Heartbeat CPU 0 instructions: 750000003 cycles: 1466427965 heartbeat IPC: 0.1435 cumulative IPC: 0.4625 (Simulation time: 10 hr 13 min 19 sec)
Heartbeat CPU 2 instructions: 390000003 cycles: 1466494071 heartbeat IPC: 0.2255 cumulative IPC: 0.2353 (Simulation time: 10 hr 13 min 21 sec)
Heartbeat CPU 2 instructions: 400000000 cycles: 1508997859 heartbeat IPC: 0.2353 cumulative IPC: 0.2353 (Simulation time: 10 hr 31 min 05 sec)
Heartbeat CPU 1 instructions: 380000000 cycles: 1518426779 heartbeat IPC: 0.1913 cumulative IPC: 0.2039 (Simulation time: 10 hr 34 min 54 sec)
Heartbeat CPU 3 instructions: 110000002 cycles: 1526162547 heartbeat IPC: 0.03224 cumulative IPC: 0.02909 (Simulation time: 10 hr 38 min 02 sec)
Heartbeat CPU 0 instructions: 760000001 cycles: 1527206786 heartbeat IPC: 0.1645 cumulative IPC: 0.4505 (Simulation time: 10 hr 38 min 29 sec)
Heartbeat CPU 2 instructions: 410000004 cycles: 1551169380 heartbeat IPC: 0.2371 cumulative IPC: 0.2354 (Simulation time: 10 hr 48 min 13 sec)
Heartbeat CPU 1 instructions: 390000003 cycles: 1568526063 heartbeat IPC: 0.1996 cumulative IPC: 0.2038 (Simulation time: 10 hr 55 min 26 sec)
Heartbeat CPU 0 instructions: 770000004 cycles: 1591349376 heartbeat IPC: 0.1559 cumulative IPC: 0.4384 (Simulation time: 11 hr 04 min 41 sec)
Heartbeat CPU 2 instructions: 420000002 cycles: 1601905380 heartbeat IPC: 0.1971 cumulative IPC: 0.2341 (Simulation time: 11 hr 08 min 55 sec)
Heartbeat CPU 1 instructions: 400000000 cycles: 1629740989 heartbeat IPC: 0.1634 cumulative IPC: 0.2022 (Simulation time: 11 hr 20 min 12 sec)
Heartbeat CPU 2 instructions: 430000002 cycles: 1648609946 heartbeat IPC: 0.2141 cumulative IPC: 0.2336 (Simulation time: 11 hr 27 min 53 sec)
Heartbeat CPU 0 instructions: 780000004 cycles: 1663133972 heartbeat IPC: 0.1393 cumulative IPC: 0.4253 (Simulation time: 11 hr 34 min 11 sec)
Heartbeat CPU 1 instructions: 410000003 cycles: 1684033522 heartbeat IPC: 0.1842 cumulative IPC: 0.2017 (Simulation time: 11 hr 42 min 46 sec)
Heartbeat CPU 2 instructions: 440000002 cycles: 1697534691 heartbeat IPC: 0.2044 cumulative IPC: 0.2327 (Simulation time: 11 hr 48 min 10 sec)
Heartbeat CPU 0 instructions: 790000002 cycles: 1730784758 heartbeat IPC: 0.1478 cumulative IPC: 0.4144 (Simulation time: 12 hr 01 min 17 sec)
Heartbeat CPU 1 instructions: 420000003 cycles: 1737184655 heartbeat IPC: 0.1881 cumulative IPC: 0.2012 (Simulation time: 12 hr 03 min 52 sec)
Heartbeat CPU 2 instructions: 450000000 cycles: 1745774747 heartbeat IPC: 0.2073 cumulative IPC: 0.232 (Simulation time: 12 hr 07 min 15 sec)
Heartbeat CPU 0 instructions: 800000000 cycles: 1787180465 heartbeat IPC: 0.1773 cumulative IPC: 0.4068 (Simulation time: 12 hr 24 min 00 sec)
Heartbeat CPU 1 instructions: 430000004 cycles: 1795975313 heartbeat IPC: 0.1701 cumulative IPC: 0.2002 (Simulation time: 12 hr 27 min 30 sec)
Heartbeat CPU 2 instructions: 460000001 cycles: 1798019375 heartbeat IPC: 0.1914 cumulative IPC: 0.2308 (Simulation time: 12 hr 28 min 21 sec)
Heartbeat CPU 3 instructions: 120000000 cycles: 1846348810 heartbeat IPC: 0.03123 cumulative IPC: 0.02947 (Simulation time: 12 hr 48 min 25 sec)
Heartbeat CPU 2 instructions: 470000001 cycles: 1850604854 heartbeat IPC: 0.1902 cumulative IPC: 0.2296 (Simulation time: 12 hr 50 min 15 sec)
Heartbeat CPU 1 instructions: 440000003 cycles: 1854197441 heartbeat IPC: 0.1718 cumulative IPC: 0.1993 (Simulation time: 12 hr 51 min 43 sec)
Heartbeat CPU 0 instructions: 810000000 cycles: 1868773014 heartbeat IPC: 0.1226 cumulative IPC: 0.3942 (Simulation time: 12 hr 57 min 54 sec)
Heartbeat CPU 2 instructions: 480000000 cycles: 1897857785 heartbeat IPC: 0.2116 cumulative IPC: 0.2292 (Simulation time: 13 hr 09 min 55 sec)
Heartbeat CPU 1 instructions: 450000003 cycles: 1906041707 heartbeat IPC: 0.1929 cumulative IPC: 0.1991 (Simulation time: 13 hr 13 min 16 sec)
Heartbeat CPU 0 instructions: 820000004 cycles: 1923839955 heartbeat IPC: 0.1816 cumulative IPC: 0.3881 (Simulation time: 13 hr 20 min 25 sec)
Heartbeat CPU 2 instructions: 490000003 cycles: 1948880379 heartbeat IPC: 0.196 cumulative IPC: 0.2283 (Simulation time: 13 hr 30 min 10 sec)
Heartbeat CPU 1 instructions: 460000004 cycles: 1960416759 heartbeat IPC: 0.1839 cumulative IPC: 0.1987 (Simulation time: 13 hr 34 min 50 sec)
Heartbeat CPU 0 instructions: 830000000 cycles: 1975091731 heartbeat IPC: 0.1951 cumulative IPC: 0.383 (Simulation time: 13 hr 40 min 58 sec)
Heartbeat CPU 2 instructions: 500000003 cycles: 1994119924 heartbeat IPC: 0.221 cumulative IPC: 0.2281 (Simulation time: 13 hr 48 min 46 sec)
Heartbeat CPU 1 instructions: 470000003 cycles: 2014723546 heartbeat IPC: 0.1841 cumulative IPC: 0.1983 (Simulation time: 13 hr 56 min 59 sec)
Heartbeat CPU 2 instructions: 510000000 cycles: 2049966981 heartbeat IPC: 0.1791 cumulative IPC: 0.2268 (Simulation time: 14 hr 10 min 37 sec)
Heartbeat CPU 0 instructions: 840000004 cycles: 2053539424 heartbeat IPC: 0.1275 cumulative IPC: 0.3732 (Simulation time: 14 hr 11 min 58 sec)
Heartbeat CPU 1 instructions: 480000000 cycles: 2071301106 heartbeat IPC: 0.1767 cumulative IPC: 0.1977 (Simulation time: 14 hr 18 min 54 sec)
Heartbeat CPU 2 instructions: 520000000 cycles: 2096334543 heartbeat IPC: 0.2157 cumulative IPC: 0.2265 (Simulation time: 14 hr 28 min 45 sec)
Heartbeat CPU 0 instructions: 850000002 cycles: 2107699347 heartbeat IPC: 0.1846 cumulative IPC: 0.3683 (Simulation time: 14 hr 33 min 16 sec)
Heartbeat CPU 1 instructions: 490000000 cycles: 2128345125 heartbeat IPC: 0.1753 cumulative IPC: 0.1971 (Simulation time: 14 hr 41 min 31 sec)
Heartbeat CPU 3 instructions: 130000003 cycles: 2131912101 heartbeat IPC: 0.03502 cumulative IPC: 0.03022 (Simulation time: 14 hr 42 min 58 sec)
Heartbeat CPU 2 instructions: 530000000 cycles: 2152866186 heartbeat IPC: 0.1769 cumulative IPC: 0.2252 (Simulation time: 14 hr 50 min 58 sec)
Heartbeat CPU 0 instructions: 860000001 cycles: 2174809864 heartbeat IPC: 0.149 cumulative IPC: 0.3614 (Simulation time: 14 hr 59 min 25 sec)
Heartbeat CPU 2 instructions: 540000001 cycles: 2208639230 heartbeat IPC: 0.1793 cumulative IPC: 0.224 (Simulation time: 15 hr 11 min 44 sec)
Heartbeat CPU 1 instructions: 500000002 cycles: 2218147270 heartbeat IPC: 0.1114 cumulative IPC: 0.1936 (Simulation time: 15 hr 15 min 09 sec)
Heartbeat CPU 0 instructions: 870000000 cycles: 2293521884 heartbeat IPC: 0.08424 cumulative IPC: 0.3469 (Simulation time: 15 hr 42 min 37 sec)
Heartbeat CPU 2 instructions: 550000004 cycles: 2297741716 heartbeat IPC: 0.1122 cumulative IPC: 0.2197 (Simulation time: 15 hr 44 min 11 sec)
Heartbeat CPU 1 instructions: 510000001 cycles: 2346364173 heartbeat IPC: 0.07799 cumulative IPC: 0.1872 (Simulation time: 16 hr 02 min 58 sec)
Heartbeat CPU 2 instructions: 560000002 cycles: 2350484576 heartbeat IPC: 0.1896 cumulative IPC: 0.219 (Simulation time: 16 hr 04 min 38 sec)
Heartbeat CPU 0 instructions: 880000003 cycles: 2365967381 heartbeat IPC: 0.138 cumulative IPC: 0.3405 (Simulation time: 16 hr 10 min 32 sec)
Heartbeat CPU 2 instructions: 570000001 cycles: 2397728056 heartbeat IPC: 0.2117 cumulative IPC: 0.2188 (Simulation time: 16 hr 22 min 51 sec)
Heartbeat CPU 1 instructions: 520000003 cycles: 2403869467 heartbeat IPC: 0.1739 cumulative IPC: 0.1869 (Simulation time: 16 hr 25 min 22 sec)
Heartbeat CPU 0 instructions: 890000003 cycles: 2435940511 heartbeat IPC: 0.1429 cumulative IPC: 0.3348 (Simulation time: 16 hr 38 min 34 sec)
Heartbeat CPU 2 instructions: 580000001 cycles: 2450217133 heartbeat IPC: 0.1905 cumulative IPC: 0.2182 (Simulation time: 16 hr 44 min 12 sec)
Heartbeat CPU 1 instructions: 530000000 cycles: 2457983630 heartbeat IPC: 0.1848 cumulative IPC: 0.1868 (Simulation time: 16 hr 47 min 21 sec)
Heartbeat CPU 3 instructions: 140000001 cycles: 2475977814 heartbeat IPC: 0.02906 cumulative IPC: 0.03006 (Simulation time: 16 hr 54 min 27 sec)
Heartbeat CPU 0 instructions: 900000001 cycles: 2496909316 heartbeat IPC: 0.164 cumulative IPC: 0.3306 (Simulation time: 17 hr 02 min 25 sec)
Heartbeat CPU 2 instructions: 590000002 cycles: 2498765064 heartbeat IPC: 0.206 cumulative IPC: 0.218 (Simulation time: 17 hr 03 min 11 sec)
Heartbeat CPU 1 instructions: 540000001 cycles: 2514284167 heartbeat IPC: 0.1776 cumulative IPC: 0.1866 (Simulation time: 17 hr 09 min 17 sec)
Heartbeat CPU 2 instructions: 600000000 cycles: 2554742852 heartbeat IPC: 0.1786 cumulative IPC: 0.2171 (Simulation time: 17 hr 25 min 32 sec)
Heartbeat CPU 0 instructi