WARNING: physical memory size is smaller than virtual memory size.
WARNING: option --warmup_instructions is deprecated. Use --warmup-instructions instead.
WARNING: option --simulation_instructions is deprecated. Use --simulation-instructions instead.

*** ChampSim Multicore Out-of-Order Simulator ***
Warmup Instructions: 50000000
Simulation Instructions: 150000000
Number of CPUs: 4
Page size: 4096

Off-chip DRAM Size: 4 GiB Channels: 1 Width: 64-bit Data Race: 3200 MT/s
Heartbeat CPU 3 instructions: 10000002 cycles: 2943587 heartbeat IPC: 3.397 cumulative IPC: 3.397 (Simulation time: 00 hr 02 min 32 sec)
Heartbeat CPU 0 instructions: 10000003 cycles: 3099339 heartbeat IPC: 3.226 cumulative IPC: 3.226 (Simulation time: 00 hr 02 min 41 sec)
Heartbeat CPU 2 instructions: 10000002 cycles: 3175670 heartbeat IPC: 3.149 cumulative IPC: 3.149 (Simulation time: 00 hr 02 min 45 sec)
Heartbeat CPU 1 instructions: 10000003 cycles: 3688491 heartbeat IPC: 2.711 cumulative IPC: 2.711 (Simulation time: 00 hr 03 min 13 sec)
Heartbeat CPU 0 instructions: 20000002 cycles: 5863713 heartbeat IPC: 3.617 cumulative IPC: 3.411 (Simulation time: 00 hr 05 min 09 sec)
Heartbeat CPU 3 instructions: 20000002 cycles: 5967122 heartbeat IPC: 3.307 cumulative IPC: 3.352 (Simulation time: 00 hr 05 min 14 sec)
Heartbeat CPU 2 instructions: 20000001 cycles: 6320253 heartbeat IPC: 3.18 cumulative IPC: 3.164 (Simulation time: 00 hr 05 min 33 sec)
Heartbeat CPU 1 instructions: 20000002 cycles: 7379139 heartbeat IPC: 2.71 cumulative IPC: 2.71 (Simulation time: 00 hr 06 min 27 sec)
Heartbeat CPU 0 instructions: 30000000 cycles: 8637497 heartbeat IPC: 3.605 cumulative IPC: 3.473 (Simulation time: 00 hr 07 min 35 sec)
Heartbeat CPU 3 instructions: 30000002 cycles: 9015569 heartbeat IPC: 3.28 cumulative IPC: 3.328 (Simulation time: 00 hr 07 min 56 sec)
Heartbeat CPU 2 instructions: 30000001 cycles: 9492152 heartbeat IPC: 3.153 cumulative IPC: 3.161 (Simulation time: 00 hr 08 min 24 sec)
Heartbeat CPU 1 instructions: 30000003 cycles: 11068805 heartbeat IPC: 2.71 cumulative IPC: 2.71 (Simulation time: 00 hr 09 min 50 sec)
Heartbeat CPU 3 instructions: 40000001 cycles: 12063376 heartbeat IPC: 3.281 cumulative IPC: 3.316 (Simulation time: 00 hr 10 min 45 sec)
Heartbeat CPU 0 instructions: 40000004 cycles: 12432338 heartbeat IPC: 2.635 cumulative IPC: 3.217 (Simulation time: 00 hr 11 min 05 sec)
Heartbeat CPU 2 instructions: 40000002 cycles: 12649631 heartbeat IPC: 3.167 cumulative IPC: 3.162 (Simulation time: 00 hr 11 min 17 sec)
Heartbeat CPU 1 instructions: 40000003 cycles: 14757273 heartbeat IPC: 2.711 cumulative IPC: 2.711 (Simulation time: 00 hr 13 min 05 sec)
Heartbeat CPU 3 instructions: 50000001 cycles: 15108307 heartbeat IPC: 3.284 cumulative IPC: 3.309 (Simulation time: 00 hr 13 min 24 sec)
Warmup finished CPU 3 instructions: 50000001 cycles: 15108308 cumulative IPC: 3.309 (Simulation time: 00 hr 13 min 24 sec)
Heartbeat CPU 2 instructions: 50000001 cycles: 15833939 heartbeat IPC: 3.14 cumulative IPC: 3.158 (Simulation time: 00 hr 14 min 02 sec)
Warmup finished CPU 2 instructions: 50000001 cycles: 15833940 cumulative IPC: 3.158 (Simulation time: 00 hr 14 min 02 sec)
Heartbeat CPU 0 instructions: 50000001 cycles: 16183964 heartbeat IPC: 2.666 cumulative IPC: 3.089 (Simulation time: 00 hr 14 min 20 sec)
Warmup finished CPU 0 instructions: 50000001 cycles: 16183965 cumulative IPC: 3.089 (Simulation time: 00 hr 14 min 20 sec)
Heartbeat CPU 3 instructions: 60000002 cycles: 18144914 heartbeat IPC: 3.293 cumulative IPC: 3.307 (Simulation time: 00 hr 16 min 02 sec)
Heartbeat CPU 1 instructions: 50000003 cycles: 18447460 heartbeat IPC: 2.71 cumulative IPC: 2.71 (Simulation time: 00 hr 16 min 18 sec)
Warmup finished CPU 1 instructions: 50000003 cycles: 18447461 cumulative IPC: 2.71 (Simulation time: 00 hr 16 min 18 sec)
Warmup complete CPU 0 instructions: 58993993 cycles: 18447461 cumulative IPC: 3.198 (Simulation time: 00 hr 16 min 18 sec)
Warmup complete CPU 1 instructions: 50000003 cycles: 18447461 cumulative IPC: 2.71 (Simulation time: 00 hr 16 min 18 sec)
Warmup complete CPU 2 instructions: 58218917 cycles: 18447461 cumulative IPC: 3.156 (Simulation time: 00 hr 16 min 18 sec)
Warmup complete CPU 3 instructions: 60965542 cycles: 18447461 cumulative IPC: 3.305 (Simulation time: 00 hr 16 min 18 sec)
Heartbeat CPU 0 instructions: 60000000 cycles: 25407215 heartbeat IPC: 1.084 cumulative IPC: 0.1445 (Simulation time: 00 hr 19 min 16 sec)
Heartbeat CPU 1 instructions: 60000000 cycles: 31561265 heartbeat IPC: 0.7626 cumulative IPC: 0.7626 (Simulation time: 00 hr 21 min 57 sec)
Heartbeat CPU 2 instructions: 60000000 cycles: 33195072 heartbeat IPC: 0.576 cumulative IPC: 0.1208 (Simulation time: 00 hr 22 min 44 sec)
Heartbeat CPU 3 instructions: 70000001 cycles: 36597008 heartbeat IPC: 0.5419 cumulative IPC: 0.4978 (Simulation time: 00 hr 24 min 14 sec)
Heartbeat CPU 1 instructions: 70000003 cycles: 43520793 heartbeat IPC: 0.8362 cumulative IPC: 0.7977 (Simulation time: 00 hr 27 min 33 sec)
Heartbeat CPU 3 instructions: 80000002 cycles: 55859703 heartbeat IPC: 0.5191 cumulative IPC: 0.5088 (Simulation time: 00 hr 32 min 58 sec)
Heartbeat CPU 1 instructions: 80000000 cycles: 56656212 heartbeat IPC: 0.7613 cumulative IPC: 0.7852 (Simulation time: 00 hr 33 min 19 sec)
Heartbeat CPU 1 instructions: 90000003 cycles: 68641001 heartbeat IPC: 0.8344 cumulative IPC: 0.7969 (Simulation time: 00 hr 38 min 27 sec)
Heartbeat CPU 3 instructions: 90000003 cycles: 74984590 heartbeat IPC: 0.5229 cumulative IPC: 0.5135 (Simulation time: 00 hr 41 min 09 sec)
Heartbeat CPU 1 instructions: 100000004 cycles: 80480386 heartbeat IPC: 0.8446 cumulative IPC: 0.806 (Simulation time: 00 hr 43 min 40 sec)
Heartbeat CPU 0 instructions: 70000001 cycles: 90704922 heartbeat IPC: 0.1531 cumulative IPC: 0.1523 (Simulation time: 00 hr 48 min 10 sec)
Heartbeat CPU 3 instructions: 100000000 cycles: 91641106 heartbeat IPC: 0.6004 cumulative IPC: 0.5333 (Simulation time: 00 hr 48 min 34 sec)
Heartbeat CPU 1 instructions: 110000000 cycles: 92247598 heartbeat IPC: 0.8498 cumulative IPC: 0.813 (Simulation time: 00 hr 48 min 52 sec)
Heartbeat CPU 1 instructions: 120000000 cycles: 104070432 heartbeat IPC: 0.8458 cumulative IPC: 0.8175 (Simulation time: 00 hr 54 min 11 sec)
Heartbeat CPU 3 instructions: 110000002 cycles: 109345022 heartbeat IPC: 0.5648 cumulative IPC: 0.5394 (Simulation time: 00 hr 56 min 38 sec)
Heartbeat CPU 2 instructions: 70000004 cycles: 111022493 heartbeat IPC: 0.1285 cumulative IPC: 0.1273 (Simulation time: 00 hr 57 min 21 sec)
Heartbeat CPU 1 instructions: 130000002 cycles: 115800250 heartbeat IPC: 0.8525 cumulative IPC: 0.8218 (Simulation time: 00 hr 59 min 28 sec)
Heartbeat CPU 1 instructions: 140000003 cycles: 127562690 heartbeat IPC: 0.8502 cumulative IPC: 0.8248 (Simulation time: 01 hr 04 min 39 sec)
Heartbeat CPU 3 instructions: 120000000 cycles: 127897915 heartbeat IPC: 0.539 cumulative IPC: 0.5394 (Simulation time: 01 hr 04 min 48 sec)
Heartbeat CPU 1 instructions: 150000000 cycles: 139554655 heartbeat IPC: 0.8339 cumulative IPC: 0.8257 (Simulation time: 01 hr 10 min 01 sec)
Heartbeat CPU 3 instructions: 130000000 cycles: 147484582 heartbeat IPC: 0.5106 cumulative IPC: 0.535 (Simulation time: 01 hr 13 min 31 sec)
Heartbeat CPU 1 instructions: 160000000 cycles: 151347573 heartbeat IPC: 0.848 cumulative IPC: 0.8277 (Simulation time: 01 hr 15 min 19 sec)
Heartbeat CPU 0 instructions: 80000002 cycles: 155695743 heartbeat IPC: 0.1539 cumulative IPC: 0.1531 (Simulation time: 01 hr 17 min 18 sec)
Heartbeat CPU 1 instructions: 170000004 cycles: 163171407 heartbeat IPC: 0.8457 cumulative IPC: 0.8292 (Simulation time: 01 hr 20 min 28 sec)
Heartbeat CPU 3 instructions: 140000002 cycles: 164997840 heartbeat IPC: 0.571 cumulative IPC: 0.5393 (Simulation time: 01 hr 21 min 15 sec)
Heartbeat CPU 1 instructions: 180000001 cycles: 175584486 heartbeat IPC: 0.8056 cumulative IPC: 0.8273 (Simulation time: 01 hr 25 min 51 sec)
Heartbeat CPU 3 instructions: 150000000 cycles: 185109389 heartbeat IPC: 0.4972 cumulative IPC: 0.5342 (Simulation time: 01 hr 30 min 09 sec)
Heartbeat CPU 1 instructions: 190000003 cycles: 188282578 heartbeat IPC: 0.7875 cumulative IPC: 0.8243 (Simulation time: 01 hr 31 min 28 sec)
Heartbeat CPU 2 instructions: 80000001 cycles: 191990119 heartbeat IPC: 0.1235 cumulative IPC: 0.1255 (Simulation time: 01 hr 33 min 06 sec)
Heartbeat CPU 1 instructions: 200000002 cycles: 201533559 heartbeat IPC: 0.7547 cumulative IPC: 0.8193 (Simulation time: 01 hr 37 min 14 sec)
Simulation finished CPU 1 instructions: 150000000 cycles: 183086100 cumulative IPC: 0.8193 (Simulation time: 01 hr 37 min 14 sec)
Heartbeat CPU 3 instructions: 160000001 cycles: 202737348 heartbeat IPC: 0.5673 cumulative IPC: 0.5374 (Simulation time: 01 hr 37 min 52 sec)
Heartbeat CPU 1 instructions: 210000000 cycles: 214345327 heartbeat IPC: 0.7805 cumulative IPC: 0.8168 (Simulation time: 01 hr 42 min 49 sec)
Heartbeat CPU 3 instructions: 170000001 cycles: 218589524 heartbeat IPC: 0.6308 cumulative IPC: 0.5448 (Simulation time: 01 hr 44 min 38 sec)
Heartbeat CPU 1 instructions: 220000002 cycles: 226822295 heartbeat IPC: 0.8015 cumulative IPC: 0.8158 (Simulation time: 01 hr 48 min 14 sec)
Heartbeat CPU 3 instructions: 180000002 cycles: 234146341 heartbeat IPC: 0.6428 cumulative IPC: 0.5519 (Simulation time: 01 hr 51 min 28 sec)
Heartbeat CPU 1 instructions: 230000001 cycles: 238792741 heartbeat IPC: 0.8354 cumulative IPC: 0.8169 (Simulation time: 01 hr 53 min 33 sec)
Heartbeat CPU 0 instructions: 90000000 cycles: 243252258 heartbeat IPC: 0.1142 cumulative IPC: 0.1379 (Simulation time: 01 hr 55 min 27 sec)
Heartbeat CPU 3 instructions: 190000001 cycles: 249794867 heartbeat IPC: 0.639 cumulative IPC: 0.5578 (Simulation time: 01 hr 58 min 31 sec)
Heartbeat CPU 1 instructions: 240000000 cycles: 251928428 heartbeat IPC: 0.7613 cumulative IPC: 0.8138 (Simulation time: 01 hr 59 min 32 sec)
Heartbeat CPU 1 instructions: 250000001 cycles: 264503963 heartbeat IPC: 0.7952 cumulative IPC: 0.8128 (Simulation time: 02 hr 04 min 58 sec)
Heartbeat CPU 3 instructions: 200000004 cycles: 266777873 heartbeat IPC: 0.5888 cumulative IPC: 0.5599 (Simulation time: 02 hr 05 min 57 sec)
Heartbeat CPU 1 instructions: 260000000 cycles: 278096974 heartbeat IPC: 0.7357 cumulative IPC: 0.8088 (Simulation time: 02 hr 10 min 48 sec)
Heartbeat CPU 2 instructions: 90000004 cycles: 279702553 heartbeat IPC: 0.114 cumulative IPC: 0.1216 (Simulation time: 02 hr 11 min 33 sec)
Heartbeat CPU 3 instructions: 210000001 cycles: 283004806 heartbeat IPC: 0.6163 cumulative IPC: 0.5633 (Simulation time: 02 hr 13 min 04 sec)
Simulation finished CPU 3 instructions: 150000002 cycles: 267776629 cumulative IPC: 0.5602 (Simulation time: 02 hr 14 min 21 sec)
Heartbeat CPU 1 instructions: 270000001 cycles: 290883395 heartbeat IPC: 0.7821 cumulative IPC: 0.8075 (Simulation time: 02 hr 16 min 28 sec)
Heartbeat CPU 3 instructions: 220000003 cycles: 301024387 heartbeat IPC: 0.555 cumulative IPC: 0.5628 (Simulation time: 02 hr 20 min 49 sec)
Heartbeat CPU 1 instructions: 280000004 cycles: 303639794 heartbeat IPC: 0.7839 cumulative IPC: 0.8065 (Simulation time: 02 hr 21 min 55 sec)
Heartbeat CPU 1 instructions: 290000004 cycles: 316323187 heartbeat IPC: 0.7884 cumulative IPC: 0.8057 (Simulation time: 02 hr 27 min 43 sec)
Heartbeat CPU 3 instructions: 230000002 cycles: 317917247 heartbeat IPC: 0.592 cumulative IPC: 0.5644 (Simulation time: 02 hr 28 min 27 sec)
Heartbeat CPU 1 instructions: 300000000 cycles: 328221986 heartbeat IPC: 0.8404 cumulative IPC: 0.807 (Simulation time: 02 hr 33 min 07 sec)
Heartbeat CPU 0 instructions: 100000003 cycles: 330118635 heartbeat IPC: 0.1151 cumulative IPC: 0.1316 (Simulation time: 02 hr 33 min 57 sec)
Heartbeat CPU 3 instructions: 240000003 cycles: 333532224 heartbeat IPC: 0.6404 cumulative IPC: 0.5682 (Simulation time: 02 hr 35 min 28 sec)
Heartbeat CPU 1 instructions: 310000002 cycles: 340406511 heartbeat IPC: 0.8207 cumulative IPC: 0.8076 (Simulation time: 02 hr 38 min 36 sec)
Heartbeat CPU 3 instructions: 250000000 cycles: 349102472 heartbeat IPC: 0.6423 cumulative IPC: 0.5717 (Simulation time: 02 hr 42 min 34 sec)
Heartbeat CPU 1 instructions: 320000002 cycles: 352890336 heartbeat IPC: 0.801 cumulative IPC: 0.8073 (Simulation time: 02 hr 44 min 12 sec)
Heartbeat CPU 2 instructions: 100000001 cycles: 364726932 heartbeat IPC: 0.1176 cumulative IPC: 0.1207 (Simulation time: 02 hr 49 min 39 sec)
Heartbeat CPU 1 instructions: 330000000 cycles: 365038159 heartbeat IPC: 0.8232 cumulative IPC: 0.8079 (Simulation time: 02 hr 49 min 47 sec)
Heartbeat CPU 3 instructions: 260000000 cycles: 365768724 heartbeat IPC: 0.6 cumulative IPC: 0.5731 (Simulation time: 02 hr 50 min 06 sec)
Heartbeat CPU 1 instructions: 340000004 cycles: 377865734 heartbeat IPC: 0.7796 cumulative IPC: 0.8069 (Simulation time: 02 hr 55 min 34 sec)
Heartbeat CPU 3 instructions: 270000000 cycles: 382006601 heartbeat IPC: 0.6158 cumulative IPC: 0.575 (Simulation time: 02 hr 57 min 26 sec)
Heartbeat CPU 1 instructions: 350000004 cycles: 391565189 heartbeat IPC: 0.73 cumulative IPC: 0.804 (Simulation time: 03 hr 01 min 37 sec)
Heartbeat CPU 3 instructions: 280000002 cycles: 400766514 heartbeat IPC: 0.5331 cumulative IPC: 0.5729 (Simulation time: 03 hr 05 min 31 sec)
Heartbeat CPU 1 instructions: 360000003 cycles: 404182375 heartbeat IPC: 0.7926 cumulative IPC: 0.8037 (Simulation time: 03 hr 07 min 07 sec)
Heartbeat CPU 3 instructions: 290000000 cycles: 415356497 heartbeat IPC: 0.6854 cumulative IPC: 0.577 (Simulation time: 03 hr 12 min 01 sec)
Heartbeat CPU 1 instructions: 370000002 cycles: 416512227 heartbeat IPC: 0.811 cumulative IPC: 0.8039 (Simulation time: 03 hr 12 min 31 sec)
Heartbeat CPU 0 instructions: 110000000 cycles: 417859665 heartbeat IPC: 0.114 cumulative IPC: 0.1277 (Simulation time: 03 hr 13 min 05 sec)
Heartbeat CPU 1 instructions: 380000004 cycles: 428937354 heartbeat IPC: 0.8048 cumulative IPC: 0.8039 (Simulation time: 03 hr 18 min 03 sec)
Heartbeat CPU 3 instructions: 300000001 cycles: 431896489 heartbeat IPC: 0.6046 cumulative IPC: 0.5781 (Simulation time: 03 hr 19 min 22 sec)
Heartbeat CPU 1 instructions: 390000000 cycles: 441941749 heartbeat IPC: 0.769 cumulative IPC: 0.8028 (Simulation time: 03 hr 23 min 51 sec)
Heartbeat CPU 3 instructions: 310000000 cycles: 446766302 heartbeat IPC: 0.6725 cumulative IPC: 0.5814 (Simulation time: 03 hr 25 min 58 sec)
Heartbeat CPU 2 instructions: 110000000 cycles: 451076959 heartbeat IPC: 0.1158 cumulative IPC: 0.1197 (Simulation time: 03 hr 27 min 59 sec)
Heartbeat CPU 1 instructions: 400000000 cycles: 453991360 heartbeat IPC: 0.8299 cumulative IPC: 0.8036 (Simulation time: 03 hr 29 min 18 sec)
Heartbeat CPU 3 instructions: 320000001 cycles: 461448497 heartbeat IPC: 0.6811 cumulative IPC: 0.5847 (Simulation time: 03 hr 32 min 55 sec)
Heartbeat CPU 1 instructions: 410000000 cycles: 466183467 heartbeat IPC: 0.8202 cumulative IPC: 0.804 (Simulation time: 03 hr 35 min 15 sec)
Heartbeat CPU 3 instructions: 330000002 cycles: 478024454 heartbeat IPC: 0.6033 cumulative IPC: 0.5854 (Simulation time: 03 hr 40 min 41 sec)
Heartbeat CPU 1 instructions: 420000002 cycles: 478862166 heartbeat IPC: 0.7887 cumulative IPC: 0.8036 (Simulation time: 03 hr 41 min 04 sec)
Heartbeat CPU 1 instructions: 430000004 cycles: 491590688 heartbeat IPC: 0.7856 cumulative IPC: 0.8031 (Simulation time: 03 hr 46 min 45 sec)
Heartbeat CPU 0 instructions: 120000001 cycles: 491721218 heartbeat IPC: 0.1354 cumulative IPC: 0.1289 (Simulation time: 03 hr 46 min 48 sec)
Heartbeat CPU 3 instructions: 340000000 cycles: 493611196 heartbeat IPC: 0.6416 cumulative IPC: 0.5872 (Simulation time: 03 hr 47 min 40 sec)
Heartbeat CPU 1 instructions: 440000000 cycles: 504680153 heartbeat IPC: 0.764 cumulative IPC: 0.8021 (Simulation time: 03 hr 52 min 40 sec)
Heartbeat CPU 3 instructions: 350000004 cycles: 512030918 heartbeat IPC: 0.5429 cumulative IPC: 0.5856 (Simulation time: 03 hr 55 min 49 sec)
Heartbeat CPU 1 instructions: 450000004 cycles: 517707049 heartbeat IPC: 0.7676 cumulative IPC: 0.8012 (Simulation time: 03 hr 58 min 21 sec)
Heartbeat CPU 3 instructions: 360000002 cycles: 527247981 heartbeat IPC: 0.6572 cumulative IPC: 0.5877 (Simulation time: 04 hr 02 min 39 sec)
Heartbeat CPU 1 instructions: 460000001 cycles: 530070662 heartbeat IPC: 0.8088 cumulative IPC: 0.8014 (Simulation time: 04 hr 03 min 55 sec)
Heartbeat CPU 2 instructions: 120000002 cycles: 538945466 heartbeat IPC: 0.1138 cumulative IPC: 0.1187 (Simulation time: 04 hr 07 min 49 sec)
Heartbeat CPU 1 instructions: 470000000 cycles: 542200968 heartbeat IPC: 0.8244 cumulative IPC: 0.8019 (Simulation time: 04 hr 09 min 18 sec)
Heartbeat CPU 3 instructions: 370000001 cycles: 543038792 heartbeat IPC: 0.6333 cumulative IPC: 0.5891 (Simulation time: 04 hr 09 min 40 sec)
Heartbeat CPU 1 instructions: 480000003 cycles: 554181442 heartbeat IPC: 0.8347 cumulative IPC: 0.8026 (Simulation time: 04 hr 14 min 37 sec)
Heartbeat CPU 3 instructions: 380000000 cycles: 558072764 heartbeat IPC: 0.6652 cumulative IPC: 0.5912 (Simulation time: 04 hr 16 min 26 sec)
Heartbeat CPU 1 instructions: 490000002 cycles: 566540704 heartbeat IPC: 0.8091 cumulative IPC: 0.8028 (Simulation time: 04 hr 20 min 13 sec)
Heartbeat CPU 0 instructions: 130000002 cycles: 570498381 heartbeat IPC: 0.1269 cumulative IPC: 0.1286 (Simulation time: 04 hr 22 min 03 sec)
Heartbeat CPU 3 instructions: 390000000 cycles: 574151436 heartbeat IPC: 0.6219 cumulative IPC: 0.5921 (Simulation time: 04 hr 23 min 35 sec)
Heartbeat CPU 1 instructions: 500000004 cycles: 579205379 heartbeat IPC: 0.7896 cumulative IPC: 0.8025 (Simulation time: 04 hr 25 min 48 sec)
Heartbeat CPU 3 instructions: 400000000 cycles: 590020785 heartbeat IPC: 0.6301 cumulative IPC: 0.5932 (Simulation time: 04 hr 30 min 41 sec)
Heartbeat CPU 1 instructions: 510000001 cycles: 592961634 heartbeat IPC: 0.7269 cumulative IPC: 0.8007 (Simulation time: 04 hr 31 min 58 sec)
Heartbeat CPU 1 instructions: 520000001 cycles: 607428173 heartbeat IPC: 0.6913 cumulative IPC: 0.798 (Simulation time: 04 hr 38 min 10 sec)
Heartbeat CPU 3 instructions: 410000000 cycles: 610097422 heartbeat IPC: 0.4981 cumulative IPC: 0.5899 (Simulation time: 04 hr 39 min 22 sec)
Heartbeat CPU 1 instructions: 530000003 cycles: 621253128 heartbeat IPC: 0.7233 cumulative IPC: 0.7963 (Simulation time: 04 hr 44 min 27 sec)
Heartbeat CPU 3 instructions: 420000000 cycles: 626425948 heartbeat IPC: 0.6124 cumulative IPC: 0.5905 (Simulation time: 04 hr 46 min 41 sec)
Heartbeat CPU 2 instructions: 130000003 cycles: 631412501 heartbeat IPC: 0.1081 cumulative IPC: 0.1171 (Simulation time: 04 hr 48 min 57 sec)
Heartbeat CPU 1 instructions: 540000004 cycles: 636113602 heartbeat IPC: 0.6729 cumulative IPC: 0.7933 (Simulation time: 04 hr 50 min 57 sec)
Heartbeat CPU 3 instructions: 430000002 cycles: 644663386 heartbeat IPC: 0.5483 cumulative IPC: 0.5893 (Simulation time: 04 hr 54 min 48 sec)
Heartbeat CPU 1 instructions: 550000003 cycles: 649723505 heartbeat IPC: 0.7348 cumulative IPC: 0.792 (Simulation time: 04 hr 57 min 01 sec)
Heartbeat CPU 3 instructions: 440000000 cycles: 660923532 heartbeat IPC: 0.615 cumulative IPC: 0.59 (Simulation time: 05 hr 01 min 56 sec)
Heartbeat CPU 1 instructions: 560000001 cycles: 663215087 heartbeat IPC: 0.7412 cumulative IPC: 0.791 (Simulation time: 05 hr 02 min 57 sec)
Heartbeat CPU 0 instructions: 140000004 cycles: 676332645 heartbeat IPC: 0.09449 cumulative IPC: 0.1231 (Simulation time: 05 hr 08 min 42 sec)
Heartbeat CPU 1 instructions: 570000000 cycles: 676690796 heartbeat IPC: 0.7421 cumulative IPC: 0.79 (Simulation time: 05 hr 08 min 51 sec)
Heartbeat CPU 3 instructions: 450000001 cycles: 680008706 heartbeat IPC: 0.524 cumulative IPC: 0.5881 (Simulation time: 05 hr 10 min 19 sec)
Heartbeat CPU 1 instructions: 580000002 cycles: 690245802 heartbeat IPC: 0.7377 cumulative IPC: 0.7889 (Simulation time: 05 hr 15 min 03 sec)
Heartbeat CPU 3 instructions: 460000001 cycles: 695925794 heartbeat IPC: 0.6283 cumulative IPC: 0.589 (Simulation time: 05 hr 17 min 39 sec)
Heartbeat CPU 1 instructions: 590000002 cycles: 703063762 heartbeat IPC: 0.7802 cumulative IPC: 0.7888 (Simulation time: 05 hr 21 min 00 sec)
Heartbeat CPU 3 instructions: 470000002 cycles: 713276198 heartbeat IPC: 0.5764 cumulative IPC: 0.5887 (Simulation time: 05 hr 25 min 23 sec)
Heartbeat CPU 1 instructions: 600000004 cycles: 716904737 heartbeat IPC: 0.7225 cumulative IPC: 0.7874 (Simulation time: 05 hr 26 min 59 sec)
Heartbeat CPU 2 instructions: 140000003 cycles: 726338872 heartbeat IPC: 0.1053 cumulative IPC: 0.1155 (Simulation time: 05 hr 31 min 21 sec)
Heartbeat CPU 3 instructions: 480000000 cycles: 728388629 heartbeat IPC: 0.6617 cumulative IPC: 0.5902 (Simulation time: 05 hr 32 min 14 sec)
Heartbeat CPU 1 instructions: 610000000 cycles: 729728882 heartbeat IPC: 0.7798 cumulative IPC: 0.7873 (Simulation time: 05 hr 32 min 55 sec)
Heartbeat CPU 1 instructions: 620000002 cycles: 742379432 heartbeat IPC: 0.7905 cumulative IPC: 0.7874 (Simulation time: 05 hr 38 min 33 sec)
Heartbeat CPU 3 instructions: 490000000 cycles: 746363233 heartbeat IPC: 0.5563 cumulative IPC: 0.5894 (Simulation time: 05 hr 40 min 14 sec)
Heartbeat CPU 1 instructions: 630000004 cycles: 755145200 heartbeat IPC: 0.7833 cumulative IPC: 0.7873 (Simulation time: 05 hr 44 min 03 sec)
Heartbeat CPU 3 instructions: 500000002 cycles: 762515362 heartbeat IPC: 0.6191 cumulative IPC: 0.59 (Simulation time: 05 hr 47 min 24 sec)
Heartbeat CPU 1 instructions: 640000001 cycles: 768669556 heartbeat IPC: 0.7394 cumulative IPC: 0.7864 (Simulation time: 05 hr 49 min 58 sec)
Heartbeat CPU 0 instructions: 150000004 cycles: 771624342 heartbeat IPC: 0.1049 cumulative IPC: 0.1208 (Simulation time: 05 hr 51 min 18 sec)
Heartbeat CPU 1 instructions: 650000004 cycles: 786416712 heartbeat IPC: 0.5635 cumulative IPC: 0.7813 (Simulation time: 05 hr 58 min 00 sec)
Heartbeat CPU 3 instructions: 510000003 cycles: 801424767 heartbeat IPC: 0.257 cumulative IPC: 0.5735 (Simulation time: 06 hr 04 min 30 sec)
Heartbeat CPU 1 instructions: 660000001 cycles: 808663850 heartbeat IPC: 0.4495 cumulative IPC: 0.7719 (Simulation time: 06 hr 07 min 41 sec)
Heartbeat CPU 1 instructions: 670000002 cycles: 830090450 heartbeat IPC: 0.4667 cumulative IPC: 0.7639 (Simulation time: 06 hr 17 min 09 sec)
Heartbeat CPU 1 instructions: 680000002 cycles: 851364659 heartbeat IPC: 0.4701 cumulative IPC: 0.7564 (Simulation time: 06 hr 26 min 54 sec)
Heartbeat CPU 2 instructions: 150000000 cycles: 858217584 heartbeat IPC: 0.07583 cumulative IPC: 0.1093 (Simulation time: 06 hr 29 min 58 sec)
Heartbeat CPU 3 instructions: 520000002 cycles: 872551472 heartbeat IPC: 0.1406 cumulative IPC: 0.5374 (Simulation time: 06 hr 36 min 22 sec)
Heartbeat CPU 1 instructions: 690000000 cycles: 875871430 heartbeat IPC: 0.4081 cumulative IPC: 0.7464 (Simulation time: 06 hr 37 min 51 sec)
Heartbeat CPU 1 instructions: 700000001 cycles: 898579453 heartbeat IPC: 0.4404 cumulative IPC: 0.7385 (Simulation time: 06 hr 48 min 01 sec)
Heartbeat CPU 1 instructions: 710000000 cycles: 915117145 heartbeat IPC: 0.6047 cumulative IPC: 0.7361 (Simulation time: 06 hr 55 min 27 sec)
Heartbeat CPU 3 instructions: 530000002 cycles: 915749356 heartbeat IPC: 0.2315 cumulative IPC: 0.5227 (Simulation time: 06 hr 55 min 44 sec)
Heartbeat CPU 3 instructions: 540000001 cycles: 927256316 heartbeat IPC: 0.869 cumulative IPC: 0.5271 (Simulation time: 07 hr 02 min 01 sec)
Heartbeat CPU 1 instructions: 720000000 cycles: 928017590 heartbeat IPC: 0.7752 cumulative IPC: 0.7366 (Simulation time: 07 hr 02 min 24 sec)
Heartbeat CPU 0 instructions: 160000004 cycles: 937095121 heartbeat IPC: 0.06043 cumulative IPC: 0.11 (Simulation time: 07 hr 06 min 53 sec)
Heartbeat CPU 3 instructions: 550000001 cycles: 938302019 heartbeat IPC: 0.9053 cumulative IPC: 0.5316 (Simulation time: 07 hr 07 min 29 sec)
Heartbeat CPU 1 instructions: 730000001 cycles: 940966501 heartbeat IPC: 0.7723 cumulative IPC: 0.7371 (Simulation time: 07 hr 08 min 46 sec)
Heartbeat CPU 3 instructions: 560000002 cycles: 950232588 heartbeat IPC: 0.8382 cumulative IPC: 0.5356 (Simulation time: 07 hr 13 min 14 sec)
Heartbeat CPU 1 instructions: 740000001 cycles: 954492025 heartbeat IPC: 0.7393 cumulative IPC: 0.7371 (Simulation time: 07 hr 15 min 15 sec)
Heartbeat CPU 3 instructions: 570000002 cycles: 963286237 heartbeat IPC: 0.7661 cumulative IPC: 0.5388 (Simulation time: 07 hr 19 min 25 sec)
Heartbeat CPU 1 instructions: 750000000 cycles: 967764008 heartbeat IPC: 0.7535 cumulative IPC: 0.7374 (Simulation time: 07 hr 21 min 35 sec)
Heartbeat CPU 2 instructions: 160000001 cycles: 975085611 heartbeat IPC: 0.08557 cumulative IPC: 0.1064 (Simulation time: 07 hr 25 min 04 sec)
Heartbeat CPU 3 instructions: 580000001 cycles: 976997961 heartbeat IPC: 0.7293 cumulative IPC: 0.5415 (Simulation time: 07 hr 25 min 59 sec)
Heartbeat CPU 1 instructions: 760000001 cycles: 981487278 heartbeat IPC: 0.7287 cumulative IPC: 0.7372 (Simulation time: 07 hr 28 min 06 sec)
Heartbeat CPU 3 instructions: 590000004 cycles: 992195967 heartbeat IPC: 0.658 cumulative IPC: 0.5433 (Simulation time: 07 hr 33 min 12 sec)
Heartbeat CPU 1 instructions: 770000002 cycles: 994895367 heartbeat IPC: 0.7458 cumulative IPC: 0.7374 (Simulation time: 07 hr 34 min 28 sec)
Heartbeat CPU 3 instructions: 600000000 cycles: 1005442402 heartbeat IPC: 0.7549 cumulative IPC: 0.5461 (Simulation time: 07 hr 39 min 30 sec)
Heartbeat CPU 1 instructions: 780000002 cycles: 1008202561 heartbeat IPC: 0.7515 cumulative IPC: 0.7376 (Simulation time: 07 hr 40 min 50 sec)
Heartbeat CPU 3 instructions: 610000001 cycles: 1019002449 heartbeat IPC: 0.7375 cumulative IPC: 0.5487 (Simulation time: 07 hr 46 min 00 sec)
Heartbeat CPU 1 instructions: 790000004 cycles: 1021519522 heartbeat IPC: 0.7509 cumulative IPC: 0.7377 (Simulation time: 07 hr 47 min 21 sec)
Heartbeat CPU 3 instructions: 620000002 cycles: 1026415080 heartbeat IPC: 1.349 cumulative IPC: 0.5546 (Simulation time: 07 hr 49 min 48 sec)
Heartbeat CPU 0 instructions: 170000001 cycles: 1033050285 heartbeat IPC: 0.1042 cumulative IPC: 0.1094 (Simulation time: 07 hr 53 min 11 sec)
Heartbeat CPU 3 instructions: 630000004 cycles: 1034196236 heartbeat IPC: 1.285 cumulative IPC: 0.5602 (Simulation time: 07 hr 53 min 46 sec)
Heartbeat CPU 1 instructions: 800000000 cycles: 1035000448 heartbeat IPC: 0.7418 cumulative IPC: 0.7378 (Simulation time: 07 hr 54 min 11 sec)
Heartbeat CPU 3 instructions: 640000000 cycles: 1039748122 heartbeat IPC: 1.801 cumulative IPC: 0.567 (Simulation time: 07 hr 56 min 46 sec)
Heartbeat CPU 3 instructions: 650000000 cycles: 1044069322 heartbeat IPC: 2.314 cumulative IPC: 0.5743 (Simulation time: 07 hr 59 min 19 sec)
Heartbeat CPU 1 instructions: 810000000 cycles: 1048015984 heartbeat IPC: 0.7683 cumulative IPC: 0.7382 (Simulation time: 08 hr 01 min 25 sec)
Heartbeat CPU 3 instructions: 660000004 cycles: 1050659233 heartbeat IPC: 1.517 cumulative IPC: 0.5803 (Simulation time: 08 hr 02 min 42 sec)
Heartbeat CPU 3 instructions: 670000002 cycles: 1054941940 heartbeat IPC: 2.335 cumulative IPC: 0.5876 (Simulation time: 08 hr 05 min 09 sec)
Heartbeat CPU 3 instructions: 680000003 cycles: 1060949307 heartbeat IPC: 1.665 cumulative IPC: 0.5938 (Simulation time: 08 hr 08 min 23 sec)
Heartbeat CPU 1 instructions: 820000001 cycles: 1061284692 heartbeat IPC: 0.7537 cumulative IPC: 0.7384 (Simulation time: 08 hr 08 min 34 sec)
Heartbeat CPU 3 instructions: 690000004 cycles: 1065858601 heartbeat IPC: 2.037 cumulative IPC: 0.6006 (Simulation time: 08 hr 11 min 29 sec)
Heartbeat CPU 2 instructions: 170000001 cycles: 1069494282 heartbeat IPC: 0.1059 cumulative IPC: 0.1064 (Simulation time: 08 hr 13 min 54 sec)
Heartbeat CPU 3 instructions: 700000002 cycles: 1070087999 heartbeat IPC: 2.364 cumulative IPC: 0.6077 (Simulation time: 08 hr 14 min 14 sec)
Heartbeat CPU 1 instructions: 830000000 cycles: 1074503068 heartbeat IPC: 0.7565 cumulative IPC: 0.7386 (Simulation time: 08 hr 16 min 47 sec)
Heartbeat CPU 3 instructions: 710000003 cycles: 1075012172 heartbeat IPC: 2.031 cumulative IPC: 0.6143 (Simulation time: 08 hr 17 min 07 sec)
Heartbeat CPU 3 instructions: 720000000 cycles: 1079132419 heartbeat IPC: 2.427 cumulative IPC: 0.6213 (Simulation time: 08 hr 19 min 37 sec)
Heartbeat CPU 3 instructions: 730000004 cycles: 1083354142 heartbeat IPC: 2.369 cumulative IPC: 0.6283 (Simulation time: 08 hr 22 min 13 sec)
Heartbeat CPU 1 instructions: 840000004 cycles: 1088642654 heartbeat IPC: 0.7072 cumulative IPC: 0.7382 (Simulation time: 08 hr 24 min 52 sec)
Heartbeat CPU 3 instructions: 740000001 cycles: 1092333585 heartbeat IPC: 1.114 cumulative IPC: 0.6323 (Simulation time: 08 hr 26 min 46 sec)
Heartbeat CPU 1 instructions: 850000004 cycles: 1101842260 heartbeat IPC: 0.7576 cumulative IPC: 0.7384 (Simulation time: 08 hr 31 min 32 sec)
Heartbeat CPU 3 instructions: 750000001 cycles: 1102660533 heartbeat IPC: 0.9683 cumulative IPC: 0.6355 (Simulation time: 08 hr 31 min 53 sec)
Heartbeat CPU 3 instructions: 760000002 cycles: 1113569399 heartbeat IPC: 0.9167 cumulative IPC: 0.6383 (Simulation time: 08 hr 37 min 01 sec)
Heartbeat CPU 1 instructions: 860000001 cycles: 1115143400 heartbeat IPC: 0.7518 cumulative IPC: 0.7386 (Simulation time: 08 hr 37 min 47 sec)
Heartbeat CPU 3 instructions: 770000003 cycles: 1120182260 heartbeat IPC: 1.512 cumulative IPC: 0.6436 (Simulation time: 08 hr 40 min 22 sec)
Heartbeat CPU 0 instructions: 180000003 cycles: 1125716955 heartbeat IPC: 0.1079 cumulative IPC: 0.1093 (Simulation time: 08 hr 43 min 03 sec)
Heartbeat CPU 1 instructions: 870000001 cycles: 1127881792 heartbeat IPC: 0.785 cumulative IPC: 0.7391 (Simulation time: 08 hr 44 min 11 sec)
Heartbeat CPU 3 instructions: 780000002 cycles: 1128449406 heartbeat IPC: 1.21 cumulative IPC: 0.6478 (Simulation time: 08 hr 44 min 30 sec)
Heartbeat CPU 3 instructions: 790000000 cycles: 1133612537 heartbeat IPC: 1.937 cumulative IPC: 0.6537 (Simulation time: 08 hr 47 min 12 sec)
Heartbeat CPU 1 instructions: 880000003 cycles: 1140289674 heartbeat IPC: 0.8059 cumulative IPC: 0.7399 (Simulation time: 08 hr 50 min 30 sec)
Heartbeat CPU 3 instructions: 800000003 cycles: 1140543570 heartbeat IPC: 1.443 cumulative IPC: 0.6586 (Simulation time: 08 hr 50 min 38 sec)
Heartbeat CPU 3 instructions: 810000000 cycles: 1147458412 heartbeat IPC: 1.446 cumulative IPC: 0.6634 (Simulation time: 08 hr 54 min 10 sec)
Heartbeat CPU 1 instructions: 890000004 cycles: 1152564608 heartbeat IPC: 0.8147 cumulative IPC: 0.7407 (Simulation time: 08 hr 56 min 34 sec)
Heartbeat CPU 2 instructions: 180000000 cycles: 1156980721 heartbeat IPC: 0.1143 cumulative IPC: 0.107 (Simulation time: 08 hr 58 min 42 sec)
Heartbeat CPU 3 instructions: 820000004 cycles: 1158683110 heartbeat IPC: 0.8909 cumulative IPC: 0.6657 (Simulation time: 08 hr 59 min 34 sec)
Heartbeat CPU 1 instructions: 900000000 cycles: 1164689280 heartbeat IPC: 0.8248 cumulative IPC: 0.7416 (Simulation time: 09 hr 02 min 35 sec)
Heartbeat CPU 3 instructions: 830000004 cycles: 1172949147 heartbeat IPC: 0.701 cumulative IPC: 0.6661 (Simulation time: 09 hr 06 min 38 sec)
Heartbeat CPU 1 instructions: 910000001 cycles: 1176937991 heartbeat IPC: 0.8164 cumulative IPC: 0.7423 (Simulation time: 09 hr 08 min 34 sec)
Heartbeat CPU 1 instructions: 920000004 cycles: 1189736774 heartbeat IPC: 0.7813 cumulative IPC: 0.7428 (Simulation time: 09 hr 14 min 34 sec)
Heartbeat CPU 3 instructions: 840000002 cycles: 1190705156 heartbeat IPC: 0.5632 cumulative IPC: 0.6646 (Simulation time: 09 hr 15 min 01 sec)
Heartbeat CPU 1 instructions: 930000000 cycles: 1202175533 heartbeat IPC: 0.8039 cumulative IPC: 0.7434 (Simulation time: 09 hr 20 min 25 sec)
Heartbeat CPU 3 instructions: 850000004 cycles: 1206092030 heartbeat IPC: 0.6499 cumulative IPC: 0.6644 (Simulation time: 09 hr 22 min 10 sec)
Heartbeat CPU 0 instructions: 190000002 cycles: 1207573751 heartbeat IPC: 0.1222 cumulative IPC: 0.1102 (Simulation time: 09 hr 22 min 50 sec)
Heartbeat CPU 1 instructions: 940000000 cycles: 1214857480 heartbeat IPC: 0.7885 cumulative IPC: 0.7439 (Simulation time: 09 hr 26 min 06 sec)
Heartbeat CPU 3 instructions: 860000000 cycles: 1221152889 heartbeat IPC: 0.664 cumulative IPC: 0.6644 (Simulation time: 09 hr 29 min 00 sec)
Heartbeat CPU 1 instructions: 950000004 cycles: 1227229342 heartbeat IPC: 0.8083 cumulative IPC: 0.7446 (Simulation time: 09 hr 31 min 53 sec)
Heartbeat CPU 3 instructions: 870000001 cycles: 1232762141 heartbeat IPC: 0.8614 cumulative IPC: 0.6662 (Simulation time: 09 hr 34 min 34 sec)
Heartbeat CPU 1 instructions: 960000003 cycles: 1239807933 heartbeat IPC: 0.795 cumulative IPC: 0.7451 (Simulation time: 09 hr 37 min 40 sec)
Heartbeat CPU 2 instructions: 190000002 cycles: 1244272851 heartbeat IPC: 0.1146 cumulative IPC: 0.1075 (Simulation time: 09 hr 39 min 43 sec)
Heartbeat CPU 3 instructions: 880000000 cycles: 1248704971 heartbeat IPC: 0.6272 cumulative IPC: 0.6657 (Simulation time: 09 hr 41 min 41 sec)
Heartbeat CPU 1 instructions: 970000002 cycles: 1252844283 heartbeat IPC: 0.7671 cumulative IPC: 0.7453 (Simulation time: 09 hr 43 min 36 sec)
Heartbeat CPU 3 instructions: 890000000 cycles: 1262358011 heartbeat IPC: 0.7324 cumulative IPC: 0.6665 (Simulation time: 09 hr 48 min 04 sec)
Heartbeat CPU 1 instructions: 980000001 cycles: 1266438707 heartbeat IPC: 0.7356 cumulative IPC: 0.7452 (Simulation time: 09 hr 50 min 00 sec)
Heartbeat CPU 3 instructions: 900000000 cycles: 1274107841 heartbeat IPC: 0.8511 cumulative IPC: 0.6682 (Simulation time: 09 hr 53 min 34 sec)
Heartbeat CPU 1 instructions: 990000002 cycles: 1282260812 heartbeat IPC: 0.632 cumulative IPC: 0.7438 (Simulation time: 09 hr 57 min 08 sec)
Heartbeat CPU 3 instructions: 910000000 cycles: 1288999081 heartbeat IPC: 0.6715 cumulative IPC: 0.6682 (Simulation time: 10 hr 00 min 15 sec)
Heartbeat CPU 1 instructions: 1000000000 cycles: 1296884802 heartbeat IPC: 0.6838 cumulative IPC: 0.7431 (Simulation time: 10 hr 03 min 53 sec)
Heartbeat CPU 0 instructions: 200000002 cycles: 1306110899 heartbeat IPC: 0.1015 cumulative IPC: 0.1095 (Simulation time: 10 hr 08 min 02 sec)
Heartbeat CPU 3 instructions: 920000003 cycles: 1307331488 heartbeat IPC: 0.5455 cumulative IPC: 0.6665 (Simulation time: 10 hr 08 min 37 sec)
Heartbeat CPU 1 instructions: 1010000002 cycles: 1310844508 heartbeat IPC: 0.7163 cumulative IPC: 0.7428 (Simulation time: 10 hr 10 min 12 sec)
Heartbeat CPU 3 instructions: 930000000 cycles: 1317672921 heartbeat IPC: 0.967 cumulative IPC: 0.6689 (Simulation time: 10 hr 13 min 23 sec)
Heartbeat CPU 1 instructions: 1020000004 cycles: 1323385659 heartbeat IPC: 0.7974 cumulative IPC: 0.7433 (Simulation time: 10 hr 16 min 03 sec)
Heartbeat CPU 3 instructions: 940000004 cycles: 1329256209 heartbeat IPC: 0.8633 cumulative IPC: 0.6706 (Simulation time: 10 hr 18 min 43 sec)
Heartbeat CPU 1 instructions: 1030000004 cycles: 1336158731 heartbeat IPC: 0.7829 cumulative IPC: 0.7437 (Simulation time: 10 hr 21 min 52 sec)
Heartbeat CPU 2 instructions: 200000004 cycles: 1340620314 heartbeat IPC: 0.1038 cumulative IPC: 0.1072 (Simulation time: 10 hr 23 min 58 sec)
Heartbeat CPU 3 instructions: 950000000 cycles: 1341977565 heartbeat IPC: 0.7861 cumulative IPC: 0.6717 (Simulation time: 10 hr 24 min 36 sec)
Heartbeat CPU 1 instructions: 1040000000 cycles: 1348850557 heartbeat IPC: 0.7879 cumulative IPC: 0.7441 (Simulation time: 10 hr 27 min 44 sec)
Heartbeat CPU 3 instructions: 960000003 cycles: 1356733764 heartbeat IPC: 0.6777 cumulative IPC: 0.6718 (Simulation time: 10 hr 31 min 14 sec)
Heartbeat CPU 1 instructions: 1050000001 cycles: 1361297522 heartbeat IPC: 0.8034 cumulative IPC: 0.7447 (Simulation time: 10 hr 33 min 18 sec)
Heartbeat CPU 3 instructions: 970000002 cycles: 1371539058 heartbeat IPC: 0.6754 cumulative IPC: 0.6718 (Simulation time: 10 hr 37 min 53 sec)
Heartbeat CPU 1 instructions: 1060000000 cycles: 1374117918 heartbeat IPC: 0.78 cumulative IPC: 0.745 (Simulation time: 10 hr 39 min 06 sec)
Simulation finished CPU 0 instructions: 150000000 cycles: 1366972276 cumulative IPC: 0.1097 (Simulation time: 10 hr 44 min 11 sec)
Heartbeat CPU 3 instructions: 980000000 cycles: 1385495079 heartbeat IPC: 0.7165 cumulative IPC: 0.6723 (Simulation time: 10 hr 44 min 13 sec)
Heartbeat CPU 1 instructions: 1070000003 cycles: 1387199435 heartbeat IPC: 0.7644 cumulative IPC: 0.7452 (Simulation time: 10 hr 44 min 58 sec)
Heartbeat CPU 0 instructions: 210000003 cycles: 1394937351 heartbeat IPC: 0.1126 cumulative IPC: 0.1097 (Simulation time: 10 hr 48 min 24 sec)
Heartbeat CPU 3 instructions: 990000001 cycles: 1399456706 heartbeat IPC: 0.7162 cumulative IPC: 0.6727 (Simulation time: 10 hr 50 min 29 sec)
Heartbeat CPU 1 instructions: 1080000003 cycles: 1400139128 heartbeat IPC: 0.7728 cumulative IPC: 0.7455 (Simulation time: 10 hr 50 min 47 sec)
Heartbeat CPU 3 instructions: 1000000001 cycles: 1409902557 heartbeat IPC: 0.9573 cumulative IPC: 0.6749 (Simulation time: 10 hr 55 min 16 sec)
Heartbeat CPU 1 instructions: 1090000001 cycles: 1413216308 heartbeat IPC: 0.7647 cumulative IPC: 0.7456 (Simulation time: 10 hr 56 min 49 sec)
Simulation finished CPU 2 instructions: 150000001 cycles: 1396502608 cumulative IPC: 0.1074 (Simulation time: 10 hr 57 min 37 sec)
Simulation complete CPU 0 instructions: 153122339 cycles: 1396502608 cumulative IPC: 0.1096 (Simulation time: 10 hr 57 min 37 sec)
Simulation complete CPU 1 instructions: 1041395583 cycles: 1396502608 cumulative IPC: 0.7457 (Simulation time: 10 hr 57 min 37 sec)
Simulation complete CPU 2 instructions: 150000001 cycles: 1396502608 cumulative IPC: 0.1074 (Simulation time: 10 hr 57 min 37 sec)
Simulation complete CPU 3 instructions: 942179852 cycles: 1396502608 cumulative IPC: 0.6747 (Simulation time: 10 hr 57 min 37 sec)

ChampSim completed all CPUs

=== Simulation ===
CPU 0 runs /home/das/traces4_champsim/654.roms_s-1390B.champsimtrace.xzCPU 1 runs /home/das/traces4_champsim/607.cactuBSSN_s-4004B.champsimtrace.xzCPU 2 runs /home/das/traces4_champsim/619.lbm_s-2677B.champsimtrace.xzCPU 3 runs /home/das/traces4_champsim/445.gobmk-36B.champsimtrace.xz
Total Simulation Statistics (not including warmup)

CPU 0 cumulative IPC: 0.1096 instructions: 153122339 cycles: 1396502608
CPU 0 Branch Prediction Accuracy: 99.76% MPKI: 0.07847 Average ROB Occupancy at Mispredict: 348.7
Branch type MPKI
BRANCH_DIRECT_JUMP: 1.96e-05
BRANCH_INDIRECT: 0
BRANCH_CONDITIONAL: 0.0784
BRANCH_DIRECT_CALL: 0
BRANCH_INDIRECT_CALL: 0
BRANCH_RETURN: 0


CPU 1 cumulative IPC: 0.7457 instructions: 1041395583 cycles: 1396502608
CPU 1 Branch Prediction Accuracy: 91.83% MPKI: 0.7287 Average ROB Occupancy at Mispredict: 270.4
Branch type MPKI
BRANCH_DIRECT_JUMP: 5.57e-05
BRANCH_INDIRECT: 4.8e-06
BRANCH_CONDITIONAL: 0.365
BRANCH_DIRECT_CALL: 4.03e-05
BRANCH_INDIRECT_CALL: 0
BRANCH_RETURN: 0.364


CPU 2 cumulative IPC: 0.1074 instructions: 150000001 cycles: 1396502608
CPU 2 Branch Prediction Accuracy: 97.11% MPKI: 0.5182 Average ROB Occupancy at Mispredict: 251.4
Branch type MPKI
BRANCH_DIRECT_JUMP: 0
BRANCH_INDIRECT: 0
BRANCH_CONDITIONAL: 0.518
BRANCH_DIRECT_CALL: 0
BRANCH_INDIRECT_CALL: 0
BRANCH_RETURN: 0


CPU 3 cumulative IPC: 0.6747 instructions: 942179852 cycles: 1396502608
CPU 3 Branch Prediction Accuracy: 94.73% MPKI: 9.699 Average ROB Occupancy at Mispredict: 38.42
Branch type MPKI
BRANCH_DIRECT_JUMP: 0.0573
BRANCH_INDIRECT: 0.000142
BRANCH_CONDITIONAL: 9.61
BRANCH_DIRECT_CALL: 0.0143
BRANCH_INDIRECT_CALL: 0.012
BRANCH_RETURN: 0.00457

LLC TOTAL        ACCESS:    4854022 HIT:    1027396 MISS:    3826626
LLC LOAD         ACCESS:    3047574 HIT:         45 MISS:    3047529
LLC RFO          ACCESS:     761073 HIT:          0 MISS:     761073
LLC PREFETCH     ACCESS:          0 HIT:          0 MISS:          0
LLC WRITE        ACCESS:    1026420 HIT:    1025655 MISS:        765
LLC TRANSLATION  ACCESS:      18955 HIT:       1696 MISS:      17259
LLC PREFETCH REQUESTED:          0 ISSUED:          0 USEFUL:          0 USELESS:          0
LLC AVERAGE MISS LATENCY: 3323 cycles
LLC TOTAL        ACCESS:    5507291 HIT:    2709064 MISS:    2798227
LLC LOAD         ACCESS:    4226520 HIT:    2074480 MISS:    2152040
LLC RFO          ACCESS:     614124 HIT:       1126 MISS:     612998
LLC PREFETCH     ACCESS:          0 HIT:          0 MISS:          0
LLC WRITE        ACCESS:     614719 HIT:     614241 MISS:        478
LLC TRANSLATION  ACCESS:      51928 HIT:      19217 MISS:      32711
LLC PREFETCH REQUESTED:          0 ISSUED:          0 USEFUL:          0 USELESS:          0
LLC AVERAGE MISS LATENCY: 3323 cycles
LLC TOTAL        ACCESS:   12644418 HIT:    5512044 MISS:    7132374
LLC LOAD         ACCESS:    1782990 HIT:         33 MISS:    1782957
LLC RFO          ACCESS:    5430277 HIT:      81697 MISS:    5348580
LLC PREFETCH     ACCESS:          0 HIT:          0 MISS:          0
LLC WRITE        ACCESS:    5430339 HIT:    5430306 MISS:         33
LLC TRANSLATION  ACCESS:        812 HIT:          8 MISS:        804
LLC PREFETCH REQUESTED:          0 ISSUED:          0 USEFUL:          0 USELESS:          0
LLC AVERAGE MISS LATENCY: 3323 cycles
LLC TOTAL        ACCESS:    2487733 HIT:    1106234 MISS:    1381499
LLC LOAD         ACCESS:     553300 HIT:     132709 MISS:     420591
LLC RFO          ACCESS:     822946 HIT:      36270 MISS:     786676
LLC PREFETCH     ACCESS:          0 HIT:          0 MISS:          0
LLC WRITE        ACCESS:    1096760 HIT:     935514 MISS:     161246
LLC TRANSLATION  ACCESS:      14727 HIT:       1741 MISS:      12986
LLC PREFETCH REQUESTED:          0 ISSUED:          0 USEFUL:          0 USELESS:          0
LLC AVERAGE MISS LATENCY: 3323 cycles
cpu0_DTLB TOTAL        ACCESS:   27641390 HIT:   27417851 MISS:     223539
cpu0_DTLB LOAD         ACCESS:   27641390 HIT:   27417851 MISS:     223539
cpu0_DTLB RFO          ACCESS:          0 HIT:          0 MISS:          0
cpu0_DTLB PREFETCH     ACCESS:          0 HIT:          0 MISS:          0
cpu0_DTLB WRITE        ACCESS:          0 HIT:          0 MISS:          0
cpu0_DTLB TRANSLATION  ACCESS:          0 HIT:          0 MISS:          0
cpu0_DTLB PREFETCH REQUESTED:          0 ISSUED:          0 USEFUL:          0 USELESS:          0
cpu0_DTLB AVERAGE MISS LATENCY: 154.9 cycles
cpu0_DTLB TOTAL        ACCESS:          0 HIT:          0 MISS:          0
cpu0_DTLB LOAD         ACCESS:          0 HIT:          0 MISS:          0
cpu0_DTLB RFO          ACCESS:          0 HIT:          0 MISS:          0
cpu0_DTLB PREFETCH     ACCESS:          0 HIT:          0 MISS:          0
cpu0_DTLB WRITE        ACCESS:          0 HIT:          0 MISS:          0
cpu0_DTLB TRANSLATION  ACCESS:          0 HIT:          0 MISS:          0
cpu0_DTLB PREFETCH REQUESTED:          0 ISSUED:          0 USEFUL:          0 USELESS:          0
cpu0_DTLB AVERAGE MISS LATENCY: 154.9 cycles
cpu0_DTLB TOTAL        ACCESS:          0 HIT:          0 MISS:          0
cpu0_DTLB LOAD         ACCESS:          0 HIT:          0 MISS:          0
cpu0_DTLB RFO          ACCESS:          0 HIT:          0 MISS:          0
cpu0_DTLB PREFETCH     ACCESS:          0 HIT:          0 MISS:          0
cpu0_DTLB WRITE        ACCESS:          0 HIT:          0 MISS:          0
cpu0_DTLB TRANSLATION  ACCESS:          0 HIT:          0 MISS:          0
cpu0_DTLB PREFETCH REQUESTED:          0 ISSUED:          0 USEFUL:          0 USELESS:          0
cpu0_DTLB AVERAGE MISS LATENCY: 154.9 cycles
cpu0_DTLB TOTAL        ACCESS:          0 HIT:          0 MISS:          0
cpu0_DTLB LOAD         ACCESS:          0 HIT:          0 MISS:          0
cpu0_DTLB RFO          ACCESS:          0 HIT:          0 MISS:          0
cpu0_DTLB PREFETCH     ACCESS:          0 HIT:          0 MISS:          0
cpu0_DTLB WRITE        ACCESS:          0 HIT:          0 MISS:          0
cpu0_DTLB TRANSLATION  ACCESS:          0 HIT:          0 MISS:          0
cpu0_DTLB PREFETCH REQUESTED:          0 ISSUED:          0 USEFUL:          0 USELESS:          0
cpu0_DTLB AVERAGE MISS LATENCY: 154.9 cycles
cpu0_ITLB TOTAL        ACCESS:        539 HIT:        508 MISS:         31
cpu0_ITLB LOAD         ACCESS:        539 HIT:        508 MISS:         31
cpu0_ITLB RFO          ACCESS:          0 HIT:          0 MISS:          0
cpu0_ITLB PREFETCH     ACCESS:          0 HIT:          0 MISS:          0
cpu0_ITLB WRITE        ACCESS:          0 HIT:          0 MISS:          0
cpu0_ITLB TRANSLATION  ACCESS:          0 HIT:          0 MISS:          0
cpu0_ITLB PREFETCH REQUESTED:          0 ISSUED:          0 USEFUL:          0 USELESS:          0
cpu0_ITLB AVERAGE MISS LATENCY: 735 cycles
cpu0_ITLB TOTAL        ACCESS:          0 HIT:          0 MISS:          0
cpu0_ITLB LOAD         ACCESS:          0 HIT:          0 MISS:          0
cpu0_ITLB RFO          ACCESS:          0 HIT:          0 MISS:          0
cpu0_ITLB PREFETCH     ACCESS:          0 HIT:          0 MISS:          0
cpu0_ITLB WRITE        ACCESS:          0 HIT:          0 MISS:          0
cpu0_ITLB TRANSLATION  ACCESS:          0 HIT:          0 MISS:          0
cpu0_ITLB PREFETCH REQUESTED:          0 ISSUED:          0 USEFUL:          0 USELESS:          0
cpu0_ITLB AVERAGE MISS LATENCY: 735 cycles
cpu0_ITLB TOTAL        ACCESS:          0 HIT:          0 MISS:          0
cpu0_ITLB LOAD         ACCESS:          0 HIT:          0 MISS:          0
cpu0_ITLB RFO          ACCESS:          0 HIT:          0 MISS:          0
cpu0_ITLB PREFETCH     ACCESS:          0 HIT:          0 MISS:          0
cpu0_ITLB WRITE        ACCESS:          0 HIT:          0 MISS:          0
cpu0_ITLB TRANSLATION  ACCESS:          0 HIT:          0 MISS:          0
cpu0_ITLB PREFETCH REQUESTED:          0 ISSUED:          0 USEFUL:          0 USELESS:          0
cpu0_ITLB AVERAGE MISS LATENCY: 735 cycles
cpu0_ITLB TOTAL        ACCESS:          0 HIT:          0 MISS:          0
cpu0_ITLB LOAD         ACCESS:          0 HIT:          0 MISS:          0
cpu0_ITLB RFO          ACCESS:          0 HIT:          0 MISS:          0
cpu0_ITLB PREFETCH     ACCESS:          0 HIT:          0 MISS:          0
cpu0_ITLB WRITE        ACCESS:          0 HIT:          0 MISS:          0
cpu0_ITLB TRANSLATION  ACCESS:          0 HIT:          0 MISS:          0
cpu0_ITLB PREFETCH REQUESTED:          0 ISSUED:          0 USEFUL:          0 USELESS:          0
cpu0_ITLB AVERAGE MISS LATENCY: 735 cycles
cpu0_L1D TOTAL        ACCESS:   31080220 HIT:   16403317 MISS:   14676903
cpu0_L1D LOAD         ACCESS:   24582164 HIT:   14190752 MISS:   10391412
cpu0_L1D RFO          ACCESS:          0 HIT:          0 MISS:          0
cpu0_L1D PREFETCH     ACCESS:          0 HIT:          0 MISS:          0
cpu0_L1D WRITE        ACCESS:    6414726 HIT:    2181143 MISS:    4233583
cpu0_L1D TRANSLATION  ACCESS:      83330 HIT:      31422 MISS:      51908
cpu0_L1D PREFETCH REQUESTED:          0 ISSUED:          0 USEFUL:          0 USELESS:          0
cpu0_L1D AVERAGE MISS LATENCY: 520.7 cycles
cpu0_L1D TOTAL        ACCESS:          0 HIT:          0 MISS:          0
cpu0_L1D LOAD         ACCESS:          0 HIT:          0 MISS:          0
cpu0_L1D RFO          ACCESS:          0 HIT:          0 MISS:          0
cpu0_L1D PREFETCH     ACCESS:          0 HIT:          0 MISS:          0
cpu0_L1D WRITE        ACCESS:          0 HIT:          0 MISS:          0
cpu0_L1D TRANSLATION  ACCESS:          0 HIT:          0 MISS:          0
cpu0_L1D PREFETCH REQUESTED:          0 ISSUED:          0 USEFUL:          0 USELESS:          0
cpu0_L1D AVERAGE MISS LATENCY: 520.7 cycles
cpu0_L1D TOTAL        ACCESS:          0 HIT:          0 MISS:          0
cpu0_L1D LOAD         ACCESS:          0 HIT:          0 MISS:          0
cpu0_L1D RFO          ACCESS:          0 HIT:          0 MISS:          0
cpu0_L1D PREFETCH     ACCESS:          0 HIT:          0 MISS:          0
cpu0_L1D WRITE        ACCESS:          0 HIT:          0 MISS:          0
cpu0_L1D TRANSLATION  ACCESS:          0 HIT:          0 MISS:          0
cpu0_L1D PREFETCH REQUESTED:          0 ISSUED:          0 USEFUL:          0 USELESS:          0
cpu0_L1D AVERAGE MISS LATENCY: 520.7 cycles
cpu0_L1D TOTAL        ACCESS:          0 HIT:          0 MISS:          0
cpu0_L1D LOAD         ACCESS:          0 HIT:          0 MISS:          0
cpu0_L1D RFO          ACCESS:          0 HIT:          0 MISS:          0
cpu0_L1D PREFETCH     ACCESS:          0 HIT:          0 MISS:          0
cpu0_L1D WRITE        ACCESS:          0 HIT:          0 MISS:          0
cpu0_L1D TRANSLATION  ACCESS:          0 HIT:          0 MISS:          0
cpu0_L1D PREFETCH REQUESTED:          0 ISSUED:          0 USEFUL:          0 USELESS:          0
cpu0_L1D AVERAGE MISS LATENCY: 520.7 cycles
cpu0_L1I TOTAL        ACCESS:        633 HIT:         60 MISS:        573
cpu0_L1I LOAD         ACCESS:        633 HIT:         60 MISS:        573
cpu0_L1I RFO          ACCESS:          0 HIT:          0 MISS:          0
cpu0_L1I PREFETCH     ACCESS:          0 HIT:          0 MISS:          0
cpu0_L1I WRITE        ACCESS:          0 HIT:          0 MISS:          0
cpu0_L1I TRANSLATION  ACCESS:          0 HIT:          0 MISS:          0
cpu0_L1I PREFETCH REQUESTED:          0 ISSUED:          0 USEFUL:          0 USELESS:          0
cpu0_L1I AVERAGE MISS LATENCY: 1516 cycles
cpu0_L1I TOTAL        ACCESS:          0 HIT:          0 MISS:          0
cpu0_L1I LOAD         ACCESS:          0 HIT:          0 MISS:          0
cpu0_L1I RFO          ACCESS:          0 HIT:          0 MISS:          0
cpu0_L1I PREFETCH     ACCESS:          0 HIT:          0 MISS:          0
cpu0_L1I WRITE        ACCESS:          0 HIT:          0 MISS:          0
cpu0_L1I TRANSLATION  ACCESS:          0 HIT:          0 MISS:          0
cpu0_L1I PREFETCH REQUESTED:          0 ISSUED:          0 USEFUL:          0 USELESS:          0
cpu0_L1I AVERAGE MISS LATENCY: 1516 cycles
cpu0_L1I TOTAL        ACCESS:          0 HIT:          0 MISS:          0
cpu0_L1I LOAD         ACCESS:          0 HIT:          0 MISS:          0
cpu0_L1I RFO          ACCESS:          0 HIT:          0 MISS:          0
cpu0_L1I PREFETCH     ACCESS:          0 HIT:          0 MISS:          0
cpu0_L1I WRITE        ACCESS:          0 HIT:          0 MISS:          0
cpu0_L1I TRANSLATION  ACCESS:          0 HIT:          0 MISS:          0
cpu0_L1I PREFETCH REQUESTED:          0 ISSUED:          0 USEFUL:          0 USELESS:          0
cpu0_L1I AVERAGE MISS LATENCY: 1516 cycles
cpu0_L1I TOTAL        ACCESS:          0 HIT:          0 MISS:          0
cpu0_L1I LOAD         ACCESS:          0 HIT:          0 MISS:          0
cpu0_L1I RFO          ACCESS:          0 HIT:          0 MISS:          0
cpu0_L1I PREFETCH     ACCESS:          0 HIT:          0 MISS:          0
cpu0_L1I WRITE        ACCESS:          0 HIT:          0 MISS:          0
cpu0_L1I TRANSLATION  ACCESS:          0 HIT:          0 MISS:          0
cpu0_L1I PREFETCH REQUESTED:          0 ISSUED:          0 USEFUL:          0 USELESS:          0
cpu0_L1I AVERAGE MISS LATENCY: 1516 cycles
cpu0_L2C TOTAL        ACCESS:    5288570 HIT:    1460888 MISS:    3827682
cpu0_L2C LOAD         ACCESS:    3447277 HIT:     399703 MISS:    3047574
cpu0_L2C RFO          ACCESS:     761091 HIT:         18 MISS:     761073
cpu0_L2C PREFETCH     ACCESS:          0 HIT:          0 MISS:          0
cpu0_L2C WRITE        ACCESS:    1028311 HIT:    1028231 MISS:         80
cpu0_L2C TRANSLATION  ACCESS:      51891 HIT:      32936 MISS:      18955
cpu0_L2C PREFETCH REQUESTED:          0 ISSUED:          0 USEFUL:          0 USELESS:          0
cpu0_L2C AVERAGE MISS LATENCY: 3035 cycles
cpu0_L2C TOTAL        ACCESS:          0 HIT:          0 MISS:          0
cpu0_L2C LOAD         ACCESS:          0 HIT:          0 MISS:          0
cpu0_L2C RFO          ACCESS:          0 HIT:          0 MISS:          0
cpu0_L2C PREFETCH     ACCESS:          0 HIT:          0 MISS:          0
cpu0_L2C WRITE        ACCESS:          0 HIT:          0 MISS:          0
cpu0_L2C TRANSLATION  ACCESS:          0 HIT:          0 MISS:          0
cpu0_L2C PREFETCH REQUESTED:          0 ISSUED:          0 USEFUL:          0 USELESS:          0
cpu0_L2C AVERAGE MISS LATENCY: 3035 cycles
cpu0_L2C TOTAL        ACCESS:          0 HIT:          0 MISS:          0
cpu0_L2C LOAD         ACCESS:          0 HIT:          0 MISS:          0
cpu0_L2C RFO          ACCESS:          0 HIT:          0 MISS:          0
cpu0_L2C PREFETCH     ACCESS:          0 HIT:          0 MISS:          0
cpu0_L2C WRITE        ACCESS:          0 HIT:          0 MISS:          0
cpu0_L2C TRANSLATION  ACCESS:          0 HIT:          0 MISS:          0
cpu0_L2C PREFETCH REQUESTED:          0 ISSUED:          0 USEFUL:          0 USELESS:          0
cpu0_L2C AVERAGE MISS LATENCY: 3035 cycles
cpu0_L2C TOTAL        ACCESS:          0 HIT:          0 MISS:          0
cpu0_L2C LOAD         ACCESS:          0 HIT:          0 MISS:          0
cpu0_L2C RFO          ACCESS:          0 HIT:          0 MISS:          0
cpu0_L2C PREFETCH     ACCESS:          0 HIT:          0 MISS:          0
cpu0_L2C WRITE        ACCESS:          0 HIT:          0 MISS:          0
cpu0_L2C TRANSLATION  ACCESS:          0 HIT:          0 MISS:          0
cpu0_L2C PREFETCH REQUESTED:          0 ISSUED:          0 USEFUL:          0 USELESS:          0
cpu0_L2C AVERAGE MISS LATENCY: 3035 cycles
cpu0_STLB TOTAL        ACCESS:      84449 HIT:       1526 MISS:      82923
cpu0_STLB LOAD         ACCESS:      84449 HIT:       1526 MISS:      82923
cpu0_STLB RFO          ACCESS:          0 HIT:          0 MISS:          0
cpu0_STLB PREFETCH     ACCESS:          0 HIT:          0 MISS:          0
cpu0_STLB WRITE        ACCESS:          0 HIT:          0 MISS:          0
cpu0_STLB TRANSLATION  ACCESS:          0 HIT:          0 MISS:          0
cpu0_STLB PREFETCH REQUESTED:          0 ISSUED:          0 USEFUL:          0 USELESS:          0
cpu0_STLB AVERAGE MISS LATENCY: 771.9 cycles
cpu0_STLB TOTAL        ACCESS:          0 HIT:          0 MISS:          0
cpu0_STLB LOAD         ACCESS:          0 HIT:          0 MISS:          0
cpu0_STLB RFO          ACCESS:          0 HIT:          0 MISS:          0
cpu0_STLB PREFETCH     ACCESS:          0 HIT:          0 MISS:          0
cpu0_STLB WRITE        ACCESS:          0 HIT:          0 MISS:          0
cpu0_STLB TRANSLATION  ACCESS:          0 HIT:          0 MISS:          0
cpu0_STLB PREFETCH REQUESTED:          0 ISSUED:          0 USEFUL:          0 USELESS:          0
cpu0_STLB AVERAGE MISS LATENCY: 771.9 cycles
cpu0_STLB TOTAL        ACCESS:          0 HIT:          0 MISS:          0
cpu0_STLB LOAD         ACCESS:          0 HIT:          0 MISS:          0
cpu0_STLB RFO          ACCESS:          0 HIT:          0 MISS:          0
cpu0_STLB PREFETCH     ACCESS:          0 HIT:          0 MISS:          0
cpu0_STLB WRITE        ACCESS:          0 HIT:          0 MISS:          0
cpu0_STLB TRANSLATION  ACCESS:          0 HIT:          0 MISS:          0
cpu0_STLB PREFETCH REQUESTED:          0 ISSUED:          0 USEFUL:          0 USELESS:          0
cpu0_STLB AVERAGE MISS LATENCY: 771.9 cycles
cpu0_STLB TOTAL        ACCESS:          0 HIT:          0 MISS:          0
cpu0_STLB LOAD         ACCESS:          0 HIT:          0 MISS:          0
cpu0_STLB RFO          ACCESS:          0 HIT:          0 MISS:          0
cpu0_STLB PREFETCH     ACCESS:          0 HIT:          0 MISS:          0
cpu0_STLB WRITE        ACCESS:          0 HIT:          0 MISS:          0
cpu0_STLB TRANSLATION  ACCESS:          0 HIT:          0 MISS:          0
cpu0_STLB PREFETCH REQUESTED:          0 ISSUED:          0 USEFUL:          0 USELESS:          0
cpu0_STLB AVERAGE MISS LATENCY: 771.9 cycles
cpu1_DTLB TOTAL        ACCESS:          0 HIT:          0 MISS:          0
cpu1_DTLB LOAD         ACCESS:          0 HIT:          0 MISS:          0
cpu1_DTLB RFO          ACCESS:          0 HIT:          0 MISS:          0
cpu1_DTLB PREFETCH     ACCESS:          0 HIT:          0 MISS:          0
cpu1_DTLB WRITE        ACCESS:          0 HIT:          0 MISS:          0
cpu1_DTLB TRANSLATION  ACCESS:          0 HIT:          0 MISS:          0
cpu1_DTLB PREFETCH REQUESTED:          0 ISSUED:          0 USEFUL:          0 USELESS:          0
cpu1_DTLB AVERAGE MISS LATENCY: 9.612 cycles
cpu1_DTLB TOTAL        ACCESS:  215633949 HIT:  172554720 MISS:   43079229
cpu1_DTLB LOAD         ACCESS:  215633949 HIT:  172554720 MISS:   43079229
cpu1_DTLB RFO          ACCESS:          0 HIT:          0 MISS:          0
cpu1_DTLB PREFETCH     ACCESS:          0 HIT:          0 MISS:          0
cpu1_DTLB WRITE        ACCESS:          0 HIT:          0 MISS:          0
cpu1_DTLB TRANSLATION  ACCESS:          0 HIT:          0 MISS:          0
cpu1_DTLB PREFETCH REQUESTED:          0 ISSUED:          0 USEFUL:          0 USELESS:          0
cpu1_DTLB AVERAGE MISS LATENCY: 9.612 cycles
cpu1_DTLB TOTAL        ACCESS:          0 HIT:          0 MISS:          0
cpu1_DTLB LOAD         ACCESS:          0 HIT:          0 MISS:          0
cpu1_DTLB RFO          ACCESS:          0 HIT:          0 MISS:          0
cpu1_DTLB PREFETCH     ACCESS:          0 HIT:          0 MISS:          0
cpu1_DTLB WRITE        ACCESS:          0 HIT:          0 MISS:          0
cpu1_DTLB TRANSLATION  ACCESS:          0 HIT:          0 MISS:          0
cpu1_DTLB PREFETCH REQUESTED:          0 ISSUED:          0 USEFUL:          0 USELESS:          0
cpu1_DTLB AVERAGE MISS LATENCY: 9.612 cycles
cpu1_DTLB TOTAL        ACCESS:          0 HIT:          0 MISS:          0
cpu1_DTLB LOAD         ACCESS:          0 HIT:          0 MISS:          0
cpu1_DTLB RFO          ACCESS:          0 HIT:          0 MISS:          0
cpu1_DTLB PREFETCH     ACCESS:          0 HIT:          0 MISS:          0
cpu1_DTLB WRITE        ACCESS:          0 HIT:          0 MISS:          0
cpu1_DTLB TRANSLATION  ACCESS:          0 HIT:          0 MISS:          0
cpu1_DTLB PREFETCH REQUESTED:          0 ISSUED:          0 USEFUL:          0 USELESS:          0
cpu1_DTLB AVERAGE MISS LATENCY: 9.612 cycles
cpu1_ITLB TOTAL        ACCESS:          0 HIT:          0 MISS:          0
cpu1_ITLB LOAD         ACCESS:          0 HIT:          0 MISS:          0
cpu1_ITLB RFO          ACCESS:          0 HIT:          0 MISS:          0
cpu1_ITLB PREFETCH     ACCESS:          0 HIT:          0 MISS:          0
cpu1_ITLB WRITE        ACCESS:          0 HIT:          0 MISS:          0
cpu1_ITLB TRANSLATION  ACCESS:          0 HIT:          0 MISS:          0
cpu1_ITLB PREFETCH REQUESTED:          0 ISSUED:          0 USEFUL:          0 USELESS:          0
cpu1_ITLB AVERAGE MISS LATENCY: 2040 cycles
cpu1_ITLB TOTAL        ACCESS:  126801382 HIT:  126801368 MISS:         14
cpu1_ITLB LOAD         ACCESS:  126801382 HIT:  126801368 MISS:         14
cpu1_ITLB RFO          ACCESS:          0 HIT:          0 MISS:          0
cpu1_ITLB PREFETCH     ACCESS:          0 HIT:          0 MISS:          0
cpu1_ITLB WRITE        ACCESS:          0 HIT:          0 MISS:          0
cpu1_ITLB TRANSLATION  ACCESS:          0 HIT:          0 MISS:          0
cpu1_ITLB PREFETCH REQUESTED:          0 ISSUED:          0 USEFUL:          0 USELESS:          0
cpu1_ITLB AVERAGE MISS LATENCY: 2040 cycles
cpu1_ITLB TOTAL        ACCESS:          0 HIT:          0 MISS:          0
cpu1_ITLB LOAD         ACCESS:          0 HIT:          0 MISS:          0
cpu1_ITLB RFO          ACCESS:          0 HIT:          0 MISS:          0
cpu1_ITLB PREFETCH     ACCESS:          0 HIT:          0 MISS:          0
cpu1_ITLB WRITE        ACCESS:          0 HIT:          0 MISS:          0
cpu1_ITLB TRANSLATION  ACCESS:          0 HIT:          0 MISS:          0
cpu1_ITLB PREFETCH REQUESTED:          0 ISSUED:          0 USEFUL:          0 USELESS:          0
cpu1_ITLB AVERAGE MISS LATENCY: 2040 cycles
cpu1_ITLB TOTAL        ACCESS:          0 HIT:          0 MISS:          0
cpu1_ITLB LOAD         ACCESS:          0 HIT:          0 MISS:          0
cpu1_ITLB RFO          ACCESS:          0 HIT:          0 MISS:          0
cpu1_ITLB PREFETCH     ACCESS:          0 HIT:          0 MISS:          0
cpu1_ITLB WRITE        ACCESS:          0 HIT:          0 MISS:          0
cpu1_ITLB TRANSLATION  ACCESS:          0 HIT:          0 MISS:          0
cpu1_ITLB PREFETCH REQUESTED:          0 ISSUED:          0 USEFUL:          0 USELESS:          0
cpu1_ITLB AVERAGE MISS LATENCY: 2040 cycles
cpu1_L1D TOTAL        ACCESS:          0 HIT:          0 MISS:          0
cpu1_L1D LOAD         ACCESS:          0 HIT:          0 MISS:          0
cpu1_L1D RFO          ACCESS:          0 HIT:          0 MISS:          0
cpu1_L1D PREFETCH     ACCESS:          0 HIT:          0 MISS:          0
cpu1_L1D WRITE        ACCESS:          0 HIT:          0 MISS:          0
cpu1_L1D TRANSLATION  ACCESS:          0 HIT:          0 MISS:          0
cpu1_L1D PREFETCH REQUESTED:          0 ISSUED:          0 USEFUL:          0 USELESS:          0
cpu1_L1D AVERAGE MISS LATENCY: 117 cycles
cpu1_L1D TOTAL        ACCESS:  284195186 HIT:  208111147 MISS:   76084039
cpu1_L1D LOAD         ACCESS:  201451309 HIT:  132346706 MISS:   69104603
cpu1_L1D RFO          ACCESS:          0 HIT:          0 MISS:          0
cpu1_L1D PREFETCH     ACCESS:          0 HIT:          0 MISS:          0
cpu1_L1D WRITE        ACCESS:   82677712 HIT:   75763908 MISS:    6913804
cpu1_L1D TRANSLATION  ACCESS:      66165 HIT:        533 MISS:      65632
cpu1_L1D PREFETCH REQUESTED:          0 ISSUED:          0 USEFUL:          0 USELESS:          0
cpu1_L1D AVERAGE MISS LATENCY: 117 cycles
cpu1_L1D TOTAL        ACCESS:          0 HIT:          0 MISS:          0
cpu1_L1D LOAD         ACCESS:          0 HIT:          0 MISS:          0
cpu1_L1D RFO          ACCESS:          0 HIT:          0 MISS:          0
cpu1_L1D PREFETCH     ACCESS:          0 HIT:          0 MISS:          0
cpu1_L1D WRITE        ACCESS:          0 HIT:          0 MISS:          0
cpu1_L1D TRANSLATION  ACCESS:          0 HIT:          0 MISS:          0
cpu1_L1D PREFETCH REQUESTED:          0 ISSUED:          0 USEFUL:          0 USELESS:          0
cpu1_L1D AVERAGE MISS LATENCY: 117 cycles
cpu1_L1D TOTAL        ACCESS:          0 HIT:          0 MISS:          0
cpu1_L1D LOAD         ACCESS:          0 HIT:          0 MISS:          0
cpu1_L1D RFO          ACCESS:          0 HIT:          0 MISS:          0
cpu1_L1D PREFETCH     ACCESS:          0 HIT:          0 MISS:          0
cpu1_L1D WRITE        ACCESS:          0 HIT:          0 MISS:          0
cpu1_L1D TRANSLATION  ACCESS:          0 HIT:          0 MISS:          0
cpu1_L1D PREFETCH REQUESTED:          0 ISSUED:          0 USEFUL:          0 USELESS:          0
cpu1_L1D AVERAGE MISS LATENCY: 117 cycles
cpu1_L1I TOTAL        ACCESS:          0 HIT:          0 MISS:          0
cpu1_L1I LOAD         ACCESS:          0 HIT:          0 MISS:          0
cpu1_L1I RFO          ACCESS:          0 HIT:          0 MISS:          0
cpu1_L1I PREFETCH     ACCESS:          0 HIT:          0 MISS:          0
cpu1_L1I WRITE        ACCESS:          0 HIT:          0 MISS:          0
cpu1_L1I TRANSLATION  ACCESS:          0 HIT:          0 MISS:          0
cpu1_L1I PREFETCH REQUESTED:          0 ISSUED:          0 USEFUL:          0 USELESS:          0
cpu1_L1I AVERAGE MISS LATENCY: 5.927 cycles
cpu1_L1I TOTAL        ACCESS:  167621462 HIT:  125894166 MISS:   41727296
cpu1_L1I LOAD         ACCESS:  167621462 HIT:  125894166 MISS:   41727296
cpu1_L1I RFO          ACCESS:          0 HIT:          0 MISS:          0
cpu1_L1I PREFETCH     ACCESS:          0 HIT:          0 MISS:          0
cpu1_L1I WRITE        ACCESS:          0 HIT:          0 MISS:          0
cpu1_L1I TRANSLATION  ACCESS:          0 HIT:          0 MISS:          0
cpu1_L1I PREFETCH REQUESTED:          0 ISSUED:          0 USEFUL:          0 USELESS:          0
cpu1_L1I AVERAGE MISS LATENCY: 5.927 cycles
cpu1_L1I TOTAL        ACCESS:          0 HIT:          0 MISS:          0
cpu1_L1I LOAD         ACCESS:          0 HIT:          0 MISS:          0
cpu1_L1I RFO          ACCESS:          0 HIT:          0 MISS:          0
cpu1_L1I PREFETCH     ACCESS:          0 HIT:          0 MISS:          0
cpu1_L1I WRITE        ACCESS:          0 HIT:          0 MISS:          0
cpu1_L1I TRANSLATION  ACCESS:          0 HIT:          0 MISS:          0
cpu1_L1I PREFETCH REQUESTED:          0 ISSUED:          0 USEFUL:          0 USELESS:          0
cpu1_L1I AVERAGE MISS LATENCY: 5.927 cycles
cpu1_L1I TOTAL        ACCESS:          0 HIT:          0 MISS:          0
cpu1_L1I LOAD         ACCESS:          0 HIT:          0 MISS:          0
cpu1_L1I RFO          ACCESS:          0 HIT:          0 MISS:          0
cpu1_L1I PREFETCH     ACCESS:          0 HIT:          0 MISS:          0
cpu1_L1I WRITE        ACCESS:          0 HIT:          0 MISS:          0
cpu1_L1I TRANSLATION  ACCESS:          0 HIT:          0 MISS:          0
cpu1_L1I PREFETCH REQUESTED:          0 ISSUED:          0 USEFUL:          0 USELESS:          0
cpu1_L1I AVERAGE MISS LATENCY: 5.927 cycles
cpu1_L2C TOTAL        ACCESS:          0 HIT:          0 MISS:          0
cpu1_L2C LOAD         ACCESS:          0 HIT:          0 MISS:          0
cpu1_L2C RFO          ACCESS:          0 HIT:          0 MISS:          0
cpu1_L2C PREFETCH     ACCESS:          0 HIT:          0 MISS:          0
cpu1_L2C WRITE        ACCESS:          0 HIT:          0 MISS:          0
cpu1_L2C TRANSLATION  ACCESS:          0 HIT:          0 MISS:          0
cpu1_L2C PREFETCH REQUESTED:          0 ISSUED:          0 USEFUL:          0 USELESS:          0
cpu1_L2C AVERAGE MISS LATENCY: 1967 cycles
cpu1_L2C TOTAL        ACCESS:  107971181 HIT:  103077994 MISS:    4893187
cpu1_L2C LOAD         ACCESS:   95881491 HIT:   91654971 MISS:    4226520
cpu1_L2C RFO          ACCESS:    5706611 HIT:    5092439 MISS:     614172
cpu1_L2C PREFETCH     ACCESS:          0 HIT:          0 MISS:          0
cpu1_L2C WRITE        ACCESS:    6317514 HIT:    6316947 MISS:        567
cpu1_L2C TRANSLATION  ACCESS:      65565 HIT:      13637 MISS:      51928
cpu1_L2C PREFETCH REQUESTED:          0 ISSUED:          0 USEFUL:          0 USELESS:          0
cpu1_L2C AVERAGE MISS LATENCY: 1967 cycles
cpu1_L2C TOTAL        ACCESS:          0 HIT:          0 MISS:          0
cpu1_L2C LOAD         ACCESS:          0 HIT:          0 MISS:          0
cpu1_L2C RFO          ACCESS:          0 HIT:          0 MISS:          0
cpu1_L2C PREFETCH     ACCESS:          0 HIT:          0 MISS:          0
cpu1_L2C WRITE        ACCESS:          0 HIT:          0 MISS:          0
cpu1_L2C TRANSLATION  ACCESS:          0 HIT:          0 MISS:          0
cpu1_L2C PREFETCH REQUESTED:          0 ISSUED:          0 USEFUL:          0 USELESS:          0
cpu1_L2C AVERAGE MISS LATENCY: 1967 cycles
cpu1_L2C TOTAL        ACCESS:          0 HIT:          0 MISS:          0
cpu1_L2C LOAD         ACCESS:          0 HIT:          0 MISS:          0
cpu1_L2C RFO          ACCESS:          0 HIT:          0 MISS:          0
cpu1_L2C PREFETCH     ACCESS:          0 HIT:          0 MISS:          0
cpu1_L2C WRITE        ACCESS:          0 HIT:          0 MISS:          0
cpu1_L2C TRANSLATION  ACCESS:          0 HIT:          0 MISS:          0
cpu1_L2C PREFETCH REQUESTED:          0 ISSUED:          0 USEFUL:          0 USELESS:          0
cpu1_L2C AVERAGE MISS LATENCY: 1967 cycles
cpu1_STLB TOTAL        ACCESS:          0 HIT:          0 MISS:          0
cpu1_STLB LOAD         ACCESS:          0 HIT:          0 MISS:          0
cpu1_STLB RFO          ACCESS:          0 HIT:          0 MISS:          0
cpu1_STLB PREFETCH     ACCESS:          0 HIT:          0 MISS:          0
cpu1_STLB WRITE        ACCESS:          0 HIT:          0 MISS:          0
cpu1_STLB TRANSLATION  ACCESS:          0 HIT:          0 MISS:          0
cpu1_STLB PREFETCH REQUESTED:          0 ISSUED:          0 USEFUL:          0 USELESS:          0
cpu1_STLB AVERAGE MISS LATENCY: 2781 cycles
cpu1_STLB TOTAL        ACCESS:   40271537 HIT:   40227806 MISS:      43731
cpu1_STLB LOAD         ACCESS:   40271537 HIT:   40227806 MISS:      43731
cpu1_STLB RFO          ACCESS:          0 HIT:          0 MISS:          0
cpu1_STLB PREFETCH     ACCESS:          0 HIT:          0 MISS:          0
cpu1_STLB WRITE        ACCESS:          0 HIT:          0 MISS:          0
cpu1_STLB TRANSLATION  ACCESS:          0 HIT:          0 MISS:          0
cpu1_STLB PREFETCH REQUESTED:          0 ISSUED:          0 USEFUL:          0 USELESS:          0
cpu1_STLB AVERAGE MISS LATENCY: 2781 cycles
cpu1_STLB TOTAL        ACCESS:          0 HIT:          0 MISS:          0
cpu1_STLB LOAD         ACCESS:          0 HIT:          0 MISS:          0
cpu1_STLB RFO          ACCESS:          0 HIT:          0 MISS:          0
cpu1_STLB PREFETCH     ACCESS:          0 HIT:          0 MISS:          0
cpu1_STLB WRITE        ACCESS:          0 HIT:          0 MISS:          0
cpu1_STLB TRANSLATION  ACCESS:          0 HIT:          0 MISS:          0
cpu1_STLB PREFETCH REQUESTED:          0 ISSUED:          0 USEFUL:          0 USELESS:          0
cpu1_STLB AVERAGE MISS LATENCY: 2781 cycles
cpu1_STLB TOTAL        ACCESS:          0 HIT:          0 MISS:          0
cpu1_STLB LOAD         ACCESS:          0 HIT:          0 MISS:          0
cpu1_STLB RFO          ACCESS:          0 HIT:          0 MISS:          0
cpu1_STLB PREFETCH     ACCESS:          0 HIT:          0 MISS:          0
cpu1_STLB WRITE        ACCESS:          0 HIT:          0 MISS:          0
cpu1_STLB TRANSLATION  ACCESS:          0 HIT:          0 MISS:          0
cpu1_STLB PREFETCH REQUESTED:          0 ISSUED:          0 USEFUL:          0 USELESS:          0
cpu1_STLB AVERAGE MISS LATENCY: 2781 cycles
cpu2_DTLB TOTAL        ACCESS:          0 HIT:          0 MISS:          0
cpu2_DTLB LOAD         ACCESS:          0 HIT:          0 MISS:          0
cpu2_DTLB RFO          ACCESS:          0 HIT:          0 MISS:          0
cpu2_DTLB PREFETCH     ACCESS:          0 HIT:          0 MISS:          0
cpu2_DTLB WRITE        ACCESS:          0 HIT:          0 MISS:          0
cpu2_DTLB TRANSLATION  ACCESS:          0 HIT:          0 MISS:          0
cpu2_DTLB PREFETCH REQUESTED:          0 ISSUED:          0 USEFUL:          0 USELESS:          0
cpu2_DTLB AVERAGE MISS LATENCY: 79.82 cycles
cpu2_DTLB TOTAL        ACCESS:          0 HIT:          0 MISS:          0
cpu2_DTLB LOAD         ACCESS:          0 HIT:          0 MISS:          0
cpu2_DTLB RFO          ACCESS:          0 HIT:          0 MISS:          0
cpu2_DTLB PREFETCH     ACCESS:          0 HIT:          0 MISS:          0
cpu2_DTLB WRITE        ACCESS:          0 HIT:          0 MISS:          0
cpu2_DTLB TRANSLATION  ACCESS:          0 HIT:          0 MISS:          0
cpu2_DTLB PREFETCH REQUESTED:          0 ISSUED:          0 USEFUL:          0 USELESS:          0
cpu2_DTLB AVERAGE MISS LATENCY: 79.82 cycles
cpu2_DTLB TOTAL        ACCESS:   24556151 HIT:   24248455 MISS:     307696
cpu2_DTLB LOAD         ACCESS:   24556151 HIT:   24248455 MISS:     307696
cpu2_DTLB RFO          ACCESS:          0 HIT:          0 MISS:          0
cpu2_DTLB PREFETCH     ACCESS:          0 HIT:          0 MISS:          0
cpu2_DTLB WRITE        ACCESS:          0 HIT:          0 MISS:          0
cpu2_DTLB TRANSLATION  ACCESS:          0 HIT:          0 MISS:          0
cpu2_DTLB PREFETCH REQUESTED:          0 ISSUED:          0 USEFUL:          0 USELESS:          0
cpu2_DTLB AVERAGE MISS LATENCY: 79.82 cycles
cpu2_DTLB TOTAL        ACCESS:          0 HIT:          0 MISS:          0
cpu2_DTLB LOAD         ACCESS:          0 HIT:          0 MISS:          0
cpu2_DTLB RFO          ACCESS:          0 HIT:          0 MISS:          0
cpu2_DTLB PREFETCH     ACCESS:          0 HIT:          0 MISS:          0
cpu2_DTLB WRITE        ACCESS:          0 HIT:          0 MISS:          0
cpu2_DTLB TRANSLATION  ACCESS:          0 HIT:          0 MISS:          0
cpu2_DTLB PREFETCH REQUESTED:          0 ISSUED:          0 USEFUL:          0 USELESS:          0
cpu2_DTLB AVERAGE MISS LATENCY: 79.82 cycles
cpu2_ITLB TOTAL        ACCESS:          0 HIT:          0 MISS:          0
cpu2_ITLB LOAD         ACCESS:          0 HIT:          0 MISS:          0
cpu2_ITLB RFO          ACCESS:          0 HIT:          0 MISS:          0
cpu2_ITLB PREFETCH     ACCESS:          0 HIT:          0 MISS:          0
cpu2_ITLB WRITE        ACCESS:          0 HIT:          0 MISS:          0
cpu2_ITLB TRANSLATION  ACCESS:          0 HIT:          0 MISS:          0
cpu2_ITLB PREFETCH REQUESTED:          0 ISSUED:          0 USEFUL:          0 USELESS:          0
cpu2_ITLB AVERAGE MISS LATENCY: -nan cycles
cpu2_ITLB TOTAL        ACCESS:          0 HIT:          0 MISS:          0
cpu2_ITLB LOAD         ACCESS:          0 HIT:          0 MISS:          0
cpu2_ITLB RFO          ACCESS:          0 HIT:          0 MISS:          0
cpu2_ITLB PREFETCH     ACCESS:          0 HIT:          0 MISS:          0
cpu2_ITLB WRITE        ACCESS:          0 HIT:          0 MISS:          0
cpu2_ITLB TRANSLATION  ACCESS:          0 HIT:          0 MISS:          0
cpu2_ITLB PREFETCH REQUESTED:          0 ISSUED:          0 USEFUL:          0 USELESS:          0
cpu2_ITLB AVERAGE MISS LATENCY: -nan cycles
cpu2_ITLB TOTAL        ACCESS:          0 HIT:          0 MISS:          0
cpu2_ITLB LOAD         ACCESS:          0 HIT:          0 MISS:          0
cpu2_ITLB RFO          ACCESS:          0 HIT:          0 MISS:          0
cpu2_ITLB PREFETCH     ACCESS:          0 HIT:          0 MISS:          0
cpu2_ITLB WRITE        ACCESS:          0 HIT:          0 MISS:          0
cpu2_ITLB TRANSLATION  ACCESS:          0 HIT:          0 MISS:          0
cpu2_ITLB PREFETCH REQUESTED:          0 ISSUED:          0 USEFUL:          0 USELESS:          0
cpu2_ITLB AVERAGE MISS LATENCY: -nan cycles
cpu2_ITLB TOTAL        ACCESS:          0 HIT:          0 MISS:          0
cpu2_ITLB LOAD         ACCESS:          0 HIT:          0 MISS:          0
cpu2_ITLB RFO          ACCESS:          0 HIT:          0 MISS:          0
cpu2_ITLB PREFETCH     ACCESS:          0 HIT:          0 MISS:          0
cpu2_ITLB WRITE        ACCESS:          0 HIT:          0 MISS:          0
cpu2_ITLB TRANSLATION  ACCESS:          0 HIT:          0 MISS:          0
cpu2_ITLB PREFETCH REQUESTED:          0 ISSUED:          0 USEFUL:          0 USELESS:          0
cpu2_ITLB AVERAGE MISS LATENCY: -nan cycles
cpu2_L1D TOTAL        ACCESS:          0 HIT:          0 MISS:          0
cpu2_L1D LOAD         ACCESS:          0 HIT:          0 MISS:          0
cpu2_L1D RFO          ACCESS:          0 HIT:          0 MISS:          0
cpu2_L1D PREFETCH     ACCESS:          0 HIT:          0 MISS:          0
cpu2_L1D WRITE        ACCESS:          0 HIT:          0 MISS:          0
cpu2_L1D TRANSLATION  ACCESS:          0 HIT:          0 MISS:          0
cpu2_L1D PREFETCH REQUESTED:          0 ISSUED:          0 USEFUL:          0 USELESS:          0
cpu2_L1D AVERAGE MISS LATENCY: 1517 cycles
cpu2_L1D TOTAL        ACCESS:          0 HIT:          0 MISS:          0
cpu2_L1D LOAD         ACCESS:          0 HIT:          0 MISS:          0
cpu2_L1D RFO          ACCESS:          0 HIT:          0 MISS:          0
cpu2_L1D PREFETCH     ACCESS:          0 HIT:          0 MISS:          0
cpu2_L1D WRITE        ACCESS:          0 HIT:          0 MISS:          0
cpu2_L1D TRANSLATION  ACCESS:          0 HIT:          0 MISS:          0
cpu2_L1D PREFETCH REQUESTED:          0 ISSUED:          0 USEFUL:          0 USELESS:          0
cpu2_L1D AVERAGE MISS LATENCY: 1517 cycles
cpu2_L1D TOTAL        ACCESS:   33836546 HIT:   19510712 MISS:   14325834
cpu2_L1D LOAD         ACCESS:    6140240 HIT:    2841081 MISS:    3299159
cpu2_L1D RFO          ACCESS:          0 HIT:          0 MISS:          0
cpu2_L1D PREFETCH     ACCESS:          0 HIT:          0 MISS:          0
cpu2_L1D WRITE        ACCESS:   27584732 HIT:   16669572 MISS:   10915160
cpu2_L1D TRANSLATION  ACCESS:     111574 HIT:         59 MISS:     111515
cpu2_L1D PREFETCH REQUESTED:          0 ISSUED:          0 USEFUL:          0 USELESS:          0
cpu2_L1D AVERAGE MISS LATENCY: 1517 cycles
cpu2_L1D TOTAL        ACCESS:          0 HIT:          0 MISS:          0
cpu2_L1D LOAD         ACCESS:          0 HIT:          0 MISS:          0
cpu2_L1D RFO          ACCESS:          0 HIT:          0 MISS:          0
cpu2_L1D PREFETCH     ACCESS:          0 HIT:          0 MISS:          0
cpu2_L1D WRITE        ACCESS:          0 HIT:          0 MISS:          0
cpu2_L1D TRANSLATION  ACCESS:          0 HIT:          0 MISS:          0
cpu2_L1D PREFETCH REQUESTED:          0 ISSUED:          0 USEFUL:          0 USELESS:          0
cpu2_L1D AVERAGE MISS LATENCY: 1517 cycles
cpu2_L1I TOTAL        ACCESS:          0 HIT:          0 MISS:          0
cpu2_L1I LOAD         ACCESS:          0 HIT:          0 MISS:          0
cpu2_L1I RFO          ACCESS:          0 HIT:          0 MISS:          0
cpu2_L1I PREFETCH     ACCESS:          0 HIT:          0 MISS:          0
cpu2_L1I WRITE        ACCESS:          0 HIT:          0 MISS:          0
cpu2_L1I TRANSLATION  ACCESS:          0 HIT:          0 MISS:          0
cpu2_L1I PREFETCH REQUESTED:          0 ISSUED:          0 USEFUL:          0 USELESS:          0
cpu2_L1I AVERAGE MISS LATENCY: -nan cycles
cpu2_L1I TOTAL        ACCESS:          0 HIT:          0 MISS:          0
cpu2_L1I LOAD         ACCESS:          0 HIT:          0 MISS:          0
cpu2_L1I RFO          ACCESS:          0 HIT:          0 MISS:          0
cpu2_L1I PREFETCH     ACCESS:          0 HIT:          0 MISS:          0
cpu2_L1I WRITE        ACCESS:          0 HIT:          0 MISS:          0
cpu2_L1I TRANSLATION  ACCESS:          0 HIT:          0 MISS:          0
cpu2_L1I PREFETCH REQUESTED:          0 ISSUED:          0 USEFUL:          0 USELESS:          0
cpu2_L1I AVERAGE MISS LATENCY: -nan cycles
cpu2_L1I TOTAL        ACCESS:          0 HIT:          0 MISS:          0
cpu2_L1I LOAD         ACCESS:          0 HIT:          0 MISS:          0
cpu2_L1I RFO          ACCESS:          0 HIT:          0 MISS:          0
cpu2_L1I PREFETCH     ACCESS:          0 HIT:          0 MISS:          0
cpu2_L1I WRITE        ACCESS:          0 HIT:          0 MISS:          0
cpu2_L1I TRANSLATION  ACCESS:          0 HIT:          0 MISS:          0
cpu2_L1I PREFETCH REQUESTED:          0 ISSUED:          0 USEFUL:          0 USELESS:          0
cpu2_L1I AVERAGE MISS LATENCY: -nan cycles
cpu2_L1I TOTAL        ACCESS:          0 HIT:          0 MISS:          0
cpu2_L1I LOAD         ACCESS:          0 HIT:          0 MISS:          0
cpu2_L1I RFO          ACCESS:          0 HIT:          0 MISS:          0
cpu2_L1I PREFETCH     ACCESS:          0 HIT:          0 MISS:          0
cpu2_L1I WRITE        ACCESS:          0 HIT:          0 MISS:          0
cpu2_L1I TRANSLATION  ACCESS:          0 HIT:          0 MISS:          0
cpu2_L1I PREFETCH REQUESTED:          0 ISSUED:          0 USEFUL:          0 USELESS:          0
cpu2_L1I AVERAGE MISS LATENCY: -nan cycles
cpu2_L2C TOTAL        ACCESS:          0 HIT:          0 MISS:          0
cpu2_L2C LOAD         ACCESS:          0 HIT:          0 MISS:          0
cpu2_L2C RFO          ACCESS:          0 HIT:          0 MISS:          0
cpu2_L2C PREFETCH     ACCESS:          0 HIT:          0 MISS:          0
cpu2_L2C WRITE        ACCESS:          0 HIT:          0 MISS:          0
cpu2_L2C TRANSLATION  ACCESS:          0 HIT:          0 MISS:          0
[...]
cpu2_L1I WRITE        ACCESS:          0 HIT:          0 MISS:          0
cpu2_L1I TRANSLATION  ACCESS:          0 HIT:          0 MISS:          0
cpu2_L1I PREFETCH REQUESTED:          0 ISSUED:          0 USEFUL:          0 USELESS:          0
cpu2_L1I AVERAGE MISS LATENCY: -nan cycles
cpu2_L1I TOTAL        ACCESS:          0 HIT:          0 MISS:          0
cpu2_L1I LOAD         ACCESS:          0 HIT:          0 MISS:          0
cpu2_L1I RFO          ACCESS:          0 HIT:          0 MISS:          0
cpu2_L1I PREFETCH     ACCESS:          0 HIT:          0 MISS:          0
cpu2_L1I WRITE        ACCESS:          0 HIT:          0 MISS:          0
cpu2_L1I TRANSLATION  ACCESS:          0 HIT:          0 MISS:          0
cpu2_L1I PREFETCH REQUESTED:          0 ISSUED:          0 USEFUL:          0 USELESS:          0
cpu2_L1I AVERAGE MISS LATENCY: -nan cycles
cpu2_L2C TOTAL        ACCESS:          0 HIT:          0 MISS:          0
cpu2_L2C LOAD         ACCESS:          0 HIT:          0 MISS:          0
cpu2_L2C RFO          ACCESS:          0 HIT:          0 MISS:          0
cpu2_L2C PREFETCH     ACCESS:          0 HIT:          0 MISS:          0
cpu2_L2C WRITE        ACCESS:          0 HIT:          0 MISS:          0
cpu2_L2C TRANSLATION  ACCESS:          0 HIT:          0 MISS:          0
cpu2_L2C PREFETCH REQUESTED:          0 ISSUED:          0 USEFUL:          0 USELESS:          0
cpu2_L2C AVERAGE MISS LATENCY: 3283 cycles
cpu2_L2C TOTAL        ACCESS:          0 HIT:          0 MISS:          0
cpu2_L2C LOAD         ACCESS:          0 HIT:          0 MISS:          0
cpu2_L2C RFO          ACCESS:          0 HIT:          0 MISS:          0
cpu2_L2C PREFETCH     ACCESS:          0 HIT:          0 MISS:          0
cpu2_L2C WRITE        ACCESS:          0 HIT:          0 MISS:          0
cpu2_L2C TRANSLATION  ACCESS:          0 HIT:          0 MISS:          0
cpu2_L2C PREFETCH REQUESTED:          0 ISSUED:          0 USEFUL:          0 USELESS:          0
cpu2_L2C AVERAGE MISS LATENCY: 3283 cycles
cpu2_L2C TOTAL        ACCESS:   22031021 HIT:   14816941 MISS:    7214080
cpu2_L2C LOAD         ACCESS:    1783010 HIT:         20 MISS:    1782990
cpu2_L2C RFO          ACCESS:   10068142 HIT:    4637864 MISS:    5430278
cpu2_L2C PREFETCH     ACCESS:          0 HIT:          0 MISS:          0
cpu2_L2C WRITE        ACCESS:   10068354 HIT:   10068354 MISS:          0
cpu2_L2C TRANSLATION  ACCESS:     111515 HIT:     110703 MISS:        812
cpu2_L2C PREFETCH REQUESTED:          0 ISSUED:          0 USEFUL:          0 USELESS:          0
cpu2_L2C AVERAGE MISS LATENCY: 3283 cycles
cpu2_L2C TOTAL        ACCESS:          0 HIT:          0 MISS:          0
cpu2_L2C LOAD         ACCESS:          0 HIT:          0 MISS:          0
cpu2_L2C RFO          ACCESS:          0 HIT:          0 MISS:          0
cpu2_L2C PREFETCH     ACCESS:          0 HIT:          0 MISS:          0
cpu2_L2C WRITE        ACCESS:          0 HIT:          0 MISS:          0
cpu2_L2C TRANSLATION  ACCESS:          0 HIT:          0 MISS:          0
cpu2_L2C PREFETCH REQUESTED:          0 ISSUED:          0 USEFUL:          0 USELESS:          0
cpu2_L2C AVERAGE MISS LATENCY: 3283 cycles
cpu2_STLB TOTAL        ACCESS:          0 HIT:          0 MISS:          0
cpu2_STLB LOAD         ACCESS:          0 HIT:          0 MISS:          0
cpu2_STLB RFO          ACCESS:          0 HIT:          0 MISS:          0
cpu2_STLB PREFETCH     ACCESS:          0 HIT:          0 MISS:          0
cpu2_STLB WRITE        ACCESS:          0 HIT:          0 MISS:          0
cpu2_STLB TRANSLATION  ACCESS:          0 HIT:          0 MISS:          0
cpu2_STLB PREFETCH REQUESTED:          0 ISSUED:          0 USEFUL:          0 USELESS:          0
cpu2_STLB AVERAGE MISS LATENCY: 251.9 cycles
cpu2_STLB TOTAL        ACCESS:          0 HIT:          0 MISS:          0
cpu2_STLB LOAD         ACCESS:          0 HIT:          0 MISS:          0
cpu2_STLB RFO          ACCESS:          0 HIT:          0 MISS:          0
cpu2_STLB PREFETCH     ACCESS:          0 HIT:          0 MISS:          0
cpu2_STLB WRITE        ACCESS:          0 HIT:          0 MISS:          0
cpu2_STLB TRANSLATION  ACCESS:          0 HIT:          0 MISS:          0
cpu2_STLB PREFETCH REQUESTED:          0 ISSUED:          0 USEFUL:          0 USELESS:          0
cpu2_STLB AVERAGE MISS LATENCY: 251.9 cycles
cpu2_STLB TOTAL        ACCESS:     205423 HIT:      93959 MISS:     111464
cpu2_STLB LOAD         ACCESS:     205423 HIT:      93959 MISS:     111464
cpu2_STLB RFO          ACCESS:          0 HIT:          0 MISS:          0
cpu2_STLB PREFETCH     ACCESS:          0 HIT:          0 MISS:          0
cpu2_STLB WRITE        ACCESS:          0 HIT:          0 MISS:          0
cpu2_STLB TRANSLATION  ACCESS:          0 HIT:          0 MISS:          0
cpu2_STLB PREFETCH REQUESTED:          0 ISSUED:          0 USEFUL:          0 USELESS:          0
cpu2_STLB AVERAGE MISS LATENCY: 251.9 cycles
cpu2_STLB TOTAL        ACCESS:          0 HIT:          0 MISS:          0
cpu2_STLB LOAD         ACCESS:          0 HIT:          0 MISS:          0
cpu2_STLB RFO          ACCESS:          0 HIT:          0 MISS:          0
cpu2_STLB PREFETCH     ACCESS:          0 HIT:          0 MISS:          0
cpu2_STLB WRITE        ACCESS:          0 HIT:          0 MISS:          0
cpu2_STLB TRANSLATION  ACCESS:          0 HIT:          0 MISS:          0
cpu2_STLB PREFETCH REQUESTED:          0 ISSUED:          0 USEFUL:          0 USELESS:          0
cpu2_STLB AVERAGE MISS LATENCY: 251.9 cycles
cpu3_DTLB TOTAL        ACCESS:          0 HIT:          0 MISS:          0
cpu3_DTLB LOAD         ACCESS:          0 HIT:          0 MISS:          0
cpu3_DTLB RFO          ACCESS:          0 HIT:          0 MISS:          0
cpu3_DTLB PREFETCH     ACCESS:          0 HIT:          0 MISS:          0
cpu3_DTLB WRITE        ACCESS:          0 HIT:          0 MISS:          0
cpu3_DTLB TRANSLATION  ACCESS:          0 HIT:          0 MISS:          0
cpu3_DTLB PREFETCH REQUESTED:          0 ISSUED:          0 USEFUL:          0 USELESS:          0
cpu3_DTLB AVERAGE MISS LATENCY: 43.11 cycles
cpu3_DTLB TOTAL        ACCESS:          0 HIT:          0 MISS:          0
cpu3_DTLB LOAD         ACCESS:          0 HIT:          0 MISS:          0
cpu3_DTLB RFO          ACCESS:          0 HIT:          0 MISS:          0
cpu3_DTLB PREFETCH     ACCESS:          0 HIT:          0 MISS:          0
cpu3_DTLB WRITE        ACCESS:          0 HIT:          0 MISS:          0
cpu3_DTLB TRANSLATION  ACCESS:          0 HIT:          0 MISS:          0
cpu3_DTLB PREFETCH REQUESTED:          0 ISSUED:          0 USEFUL:          0 USELESS:          0
cpu3_DTLB AVERAGE MISS LATENCY: 43.11 cycles
cpu3_DTLB TOTAL        ACCESS:          0 HIT:          0 MISS:          0
cpu3_DTLB LOAD         ACCESS:          0 HIT:          0 MISS:          0
cpu3_DTLB RFO          ACCESS:          0 HIT:          0 MISS:          0
cpu3_DTLB PREFETCH     ACCESS:          0 HIT:          0 MISS:          0
cpu3_DTLB WRITE        ACCESS:          0 HIT:          0 MISS:          0
cpu3_DTLB TRANSLATION  ACCESS:          0 HIT:          0 MISS:          0
cpu3_DTLB PREFETCH REQUESTED:          0 ISSUED:          0 USEFUL:          0 USELESS:          0
cpu3_DTLB AVERAGE MISS LATENCY: 43.11 cycles
cpu3_DTLB TOTAL        ACCESS:   30057416 HIT:   29881936 MISS:     175480
cpu3_DTLB LOAD         ACCESS:   30057416 HIT:   29881936 MISS:     175480
cpu3_DTLB RFO          ACCESS:          0 HIT:          0 MISS:          0
cpu3_DTLB PREFETCH     ACCESS:          0 HIT:          0 MISS:          0
cpu3_DTLB WRITE        ACCESS:          0 HIT:          0 MISS:          0
cpu3_DTLB TRANSLATION  ACCESS:          0 HIT:          0 MISS:          0
cpu3_DTLB PREFETCH REQUESTED:          0 ISSUED:          0 USEFUL:          0 USELESS:          0
cpu3_DTLB AVERAGE MISS LATENCY: 43.11 cycles
cpu3_ITLB TOTAL        ACCESS:          0 HIT:          0 MISS:          0
cpu3_ITLB LOAD         ACCESS:          0 HIT:          0 MISS:          0
cpu3_ITLB RFO          ACCESS:          0 HIT:          0 MISS:          0
cpu3_ITLB PREFETCH     ACCESS:          0 HIT:          0 MISS:          0
cpu3_ITLB WRITE        ACCESS:          0 HIT:          0 MISS:          0
cpu3_ITLB TRANSLATION  ACCESS:          0 HIT:          0 MISS:          0
cpu3_ITLB PREFETCH REQUESTED:          0 ISSUED:          0 USEFUL:          0 USELESS:          0
cpu3_ITLB AVERAGE MISS LATENCY: 199.8 cycles
cpu3_ITLB TOTAL        ACCESS:          0 HIT:          0 MISS:          0
cpu3_ITLB LOAD         ACCESS:          0 HIT:          0 MISS:          0
cpu3_ITLB RFO          ACCESS:          0 HIT:          0 MISS:          0
cpu3_ITLB PREFETCH     ACCESS:          0 HIT:          0 MISS:          0
cpu3_ITLB WRITE        ACCESS:          0 HIT:          0 MISS:          0
cpu3_ITLB TRANSLATION  ACCESS:          0 HIT:          0 MISS:          0
cpu3_ITLB PREFETCH REQUESTED:          0 ISSUED:          0 USEFUL:          0 USELESS:          0
cpu3_ITLB AVERAGE MISS LATENCY: 199.8 cycles
cpu3_ITLB TOTAL        ACCESS:          0 HIT:          0 MISS:          0
cpu3_ITLB LOAD         ACCESS:          0 HIT:          0 MISS:          0
cpu3_ITLB RFO          ACCESS:          0 HIT:          0 MISS:          0
cpu3_ITLB PREFETCH     ACCESS:          0 HIT:          0 MISS:          0
cpu3_ITLB WRITE        ACCESS:          0 HIT:          0 MISS:          0
cpu3_ITLB TRANSLATION  ACCESS:          0 HIT:          0 MISS:          0
cpu3_ITLB PREFETCH REQUESTED:          0 ISSUED:          0 USEFUL:          0 USELESS:          0
cpu3_ITLB AVERAGE MISS LATENCY: 199.8 cycles
cpu3_ITLB TOTAL        ACCESS:    9381440 HIT:    9380050 MISS:       1390
cpu3_ITLB LOAD         ACCESS:    9381440 HIT:    9380050 MISS:       1390
cpu3_ITLB RFO          ACCESS:          0 HIT:          0 MISS:          0
cpu3_ITLB PREFETCH     ACCESS:          0 HIT:          0 MISS:          0
cpu3_ITLB WRITE        ACCESS:          0 HIT:          0 MISS:          0
cpu3_ITLB TRANSLATION  ACCESS:          0 HIT:          0 MISS:          0
cpu3_ITLB PREFETCH REQUESTED:          0 ISSUED:          0 USEFUL:          0 USELESS:          0
cpu3_ITLB AVERAGE MISS LATENCY: 199.8 cycles
cpu3_L1D TOTAL        ACCESS:          0 HIT:          0 MISS:          0
cpu3_L1D LOAD         ACCESS:          0 HIT:          0 MISS:          0
cpu3_L1D RFO          ACCESS:          0 HIT:          0 MISS:          0
cpu3_L1D PREFETCH     ACCESS:          0 HIT:          0 MISS:          0
cpu3_L1D WRITE        ACCESS:          0 HIT:          0 MISS:          0
cpu3_L1D TRANSLATION  ACCESS:          0 HIT:          0 MISS:          0
cpu3_L1D PREFETCH REQUESTED:          0 ISSUED:          0 USEFUL:          0 USELESS:          0
cpu3_L1D AVERAGE MISS LATENCY: 658 cycles
cpu3_L1D TOTAL        ACCESS:          0 HIT:          0 MISS:          0
cpu3_L1D LOAD         ACCESS:          0 HIT:          0 MISS:          0
cpu3_L1D RFO          ACCESS:          0 HIT:          0 MISS:          0
cpu3_L1D PREFETCH     ACCESS:          0 HIT:          0 MISS:          0
cpu3_L1D WRITE        ACCESS:          0 HIT:          0 MISS:          0
cpu3_L1D TRANSLATION  ACCESS:          0 HIT:          0 MISS:          0
cpu3_L1D PREFETCH REQUESTED:          0 ISSUED:          0 USEFUL:          0 USELESS:          0
cpu3_L1D AVERAGE MISS LATENCY: 658 cycles
cpu3_L1D TOTAL        ACCESS:          0 HIT:          0 MISS:          0
cpu3_L1D LOAD         ACCESS:          0 HIT:          0 MISS:          0
cpu3_L1D RFO          ACCESS:          0 HIT:          0 MISS:          0
cpu3_L1D PREFETCH     ACCESS:          0 HIT:          0 MISS:          0
cpu3_L1D WRITE        ACCESS:          0 HIT:          0 MISS:          0
cpu3_L1D TRANSLATION  ACCESS:          0 HIT:          0 MISS:          0
cpu3_L1D PREFETCH REQUESTED:          0 ISSUED:          0 USEFUL:          0 USELESS:          0
cpu3_L1D AVERAGE MISS LATENCY: 658 cycles
cpu3_L1D TOTAL        ACCESS:   40324229 HIT:   39498511 MISS:     825718
cpu3_L1D LOAD         ACCESS:   19733053 HIT:   19439150 MISS:     293903
cpu3_L1D RFO          ACCESS:          0 HIT:          0 MISS:          0
cpu3_L1D PREFETCH     ACCESS:          0 HIT:          0 MISS:          0
cpu3_L1D WRITE        ACCESS:   20572880 HIT:   20057606 MISS:     515274
cpu3_L1D TRANSLATION  ACCESS:      18296 HIT:       1755 MISS:      16541
cpu3_L1D PREFETCH REQUESTED:          0 ISSUED:          0 USEFUL:          0 USELESS:          0
cpu3_L1D AVERAGE MISS LATENCY: 658 cycles
cpu3_L1I TOTAL        ACCESS:          0 HIT:          0 MISS:          0
cpu3_L1I LOAD         ACCESS:          0 HIT:          0 MISS:          0
cpu3_L1I RFO          ACCESS:          0 HIT:          0 MISS:          0
cpu3_L1I PREFETCH     ACCESS:          0 HIT:          0 MISS:          0
cpu3_L1I WRITE        ACCESS:          0 HIT:          0 MISS:          0
cpu3_L1I TRANSLATION  ACCESS:          0 HIT:          0 MISS:          0
cpu3_L1I PREFETCH REQUESTED:          0 ISSUED:          0 USEFUL:          0 USELESS:          0
cpu3_L1I AVERAGE MISS LATENCY: 34.31 cycles
cpu3_L1I TOTAL        ACCESS:          0 HIT:          0 MISS:          0
cpu3_L1I LOAD         ACCESS:          0 HIT:          0 MISS:          0
cpu3_L1I RFO          ACCESS:          0 HIT:          0 MISS:          0
cpu3_L1I PREFETCH     ACCESS:          0 HIT:          0 MISS:          0
cpu3_L1I WRITE        ACCESS:          0 HIT:          0 MISS:          0
cpu3_L1I TRANSLATION  ACCESS:          0 HIT:          0 MISS:          0
cpu3_L1I PREFETCH REQUESTED:          0 ISSUED:          0 USEFUL:          0 USELESS:          0
cpu3_L1I AVERAGE MISS LATENCY: 34.31 cycles
cpu3_L1I TOTAL        ACCESS:          0 HIT:          0 MISS:          0
cpu3_L1I LOAD         ACCESS:          0 HIT:          0 MISS:          0
cpu3_L1I RFO          ACCESS:          0 HIT:          0 MISS:          0
cpu3_L1I PREFETCH     ACCESS:          0 HIT:          0 MISS:          0
cpu3_L1I WRITE        ACCESS:          0 HIT:          0 MISS:          0
cpu3_L1I TRANSLATION  ACCESS:          0 HIT:          0 MISS:          0
cpu3_L1I PREFETCH REQUESTED:          0 ISSUED:          0 USEFUL:          0 USELESS:          0
cpu3_L1I AVERAGE MISS LATENCY: 34.31 cycles
cpu3_L1I TOTAL        ACCESS:   12133387 HIT:   11446222 MISS:     687165
cpu3_L1I LOAD         ACCESS:   12133387 HIT:   11446222 MISS:     687165
cpu3_L1I RFO          ACCESS:          0 HIT:          0 MISS:          0
cpu3_L1I PREFETCH     ACCESS:          0 HIT:          0 MISS:          0
cpu3_L1I WRITE        ACCESS:          0 HIT:          0 MISS:          0
cpu3_L1I TRANSLATION  ACCESS:          0 HIT:          0 MISS:          0
cpu3_L1I PREFETCH REQUESTED:          0 ISSUED:          0 USEFUL:          0 USELESS:          0
cpu3_L1I AVERAGE MISS LATENCY: 34.31 cycles
cpu3_L2C TOTAL        ACCESS:          0 HIT:          0 MISS:          0
cpu3_L2C LOAD         ACCESS:          0 HIT:          0 MISS:          0
cpu3_L2C RFO          ACCESS:          0 HIT:          0 MISS:          0
cpu3_L2C PREFETCH     ACCESS:          0 HIT:          0 MISS:          0
cpu3_L2C WRITE        ACCESS:          0 HIT:          0 MISS:          0
cpu3_L2C TRANSLATION  ACCESS:          0 HIT:          0 MISS:          0
cpu3_L2C PREFETCH REQUESTED:          0 ISSUED:          0 USEFUL:          0 USELESS:          0
cpu3_L2C AVERAGE MISS LATENCY: 4125 cycles
cpu3_L2C TOTAL        ACCESS:          0 HIT:          0 MISS:          0
cpu3_L2C LOAD         ACCESS:          0 HIT:          0 MISS:          0
cpu3_L2C RFO          ACCESS:          0 HIT:          0 MISS:          0
cpu3_L2C PREFETCH     ACCESS:          0 HIT:          0 MISS:          0
cpu3_L2C WRITE        ACCESS:          0 HIT:          0 MISS:          0
cpu3_L2C TRANSLATION  ACCESS:          0 HIT:          0 MISS:          0
cpu3_L2C PREFETCH REQUESTED:          0 ISSUED:          0 USEFUL:          0 USELESS:          0
cpu3_L2C AVERAGE MISS LATENCY: 4125 cycles
cpu3_L2C TOTAL        ACCESS:          0 HIT:          0 MISS:          0
cpu3_L2C LOAD         ACCESS:          0 HIT:          0 MISS:          0
cpu3_L2C RFO          ACCESS:          0 HIT:          0 MISS:          0
cpu3_L2C PREFETCH     ACCESS:          0 HIT:          0 MISS:          0
cpu3_L2C WRITE        ACCESS:          0 HIT:          0 MISS:          0
cpu3_L2C TRANSLATION  ACCESS:          0 HIT:          0 MISS:          0
cpu3_L2C PREFETCH REQUESTED:          0 ISSUED:          0 USEFUL:          0 USELESS:          0
cpu3_L2C AVERAGE MISS LATENCY: 4125 cycles
cpu3_L2C TOTAL        ACCESS:    1083408 HIT:     938748 MISS:     144660
cpu3_L2C LOAD         ACCESS:     738675 HIT:     616302 MISS:     122373
cpu3_L2C RFO          ACCESS:     124577 HIT:     107629 MISS:      16948
cpu3_L2C PREFETCH     ACCESS:          0 HIT:          0 MISS:          0
cpu3_L2C WRITE        ACCESS:     203651 HIT:     203433 MISS:        218
cpu3_L2C TRANSLATION  ACCESS:      16505 HIT:      11384 MISS:       5121
cpu3_L2C PREFETCH REQUESTED:          0 ISSUED:          0 USEFUL:          0 USELESS:          0
cpu3_L2C AVERAGE MISS LATENCY: 4125 cycles
cpu3_STLB TOTAL        ACCESS:          0 HIT:          0 MISS:          0
cpu3_STLB LOAD         ACCESS:          0 HIT:          0 MISS:          0
cpu3_STLB RFO          ACCESS:          0 HIT:          0 MISS:          0
cpu3_STLB PREFETCH     ACCESS:          0 HIT:          0 MISS:          0
cpu3_STLB WRITE        ACCESS:          0 HIT:          0 MISS:          0
cpu3_STLB TRANSLATION  ACCESS:          0 HIT:          0 MISS:          0
cpu3_STLB PREFETCH REQUESTED:          0 ISSUED:          0 USEFUL:          0 USELESS:          0
cpu3_STLB AVERAGE MISS LATENCY: 616.7 cycles
cpu3_STLB TOTAL        ACCESS:          0 HIT:          0 MISS:          0
cpu3_STLB LOAD         ACCESS:          0 HIT:          0 MISS:          0
cpu3_STLB RFO          ACCESS:          0 HIT:          0 MISS:          0
cpu3_STLB PREFETCH     ACCESS:          0 HIT:          0 MISS:          0
cpu3_STLB WRITE        ACCESS:          0 HIT:          0 MISS:          0
cpu3_STLB TRANSLATION  ACCESS:          0 HIT:          0 MISS:          0
cpu3_STLB PREFETCH REQUESTED:          0 ISSUED:          0 USEFUL:          0 USELESS:          0
cpu3_STLB AVERAGE MISS LATENCY: 616.7 cycles
cpu3_STLB TOTAL        ACCESS:          0 HIT:          0 MISS:          0
cpu3_STLB LOAD         ACCESS:          0 HIT:          0 MISS:          0
cpu3_STLB RFO          ACCESS:          0 HIT:          0 MISS:          0
cpu3_STLB PREFETCH     ACCESS:          0 HIT:          0 MISS:          0
cpu3_STLB WRITE        ACCESS:          0 HIT:          0 MISS:          0
cpu3_STLB TRANSLATION  ACCESS:          0 HIT:          0 MISS:          0
cpu3_STLB PREFETCH REQUESTED:          0 ISSUED:          0 USEFUL:          0 USELESS:          0
cpu3_STLB AVERAGE MISS LATENCY: 616.7 cycles
cpu3_STLB TOTAL        ACCESS:     118745 HIT:     100449 MISS:      18296
cpu3_STLB LOAD         ACCESS:     118745 HIT:     100449 MISS:      18296
cpu3_STLB RFO          ACCESS:          0 HIT:          0 MISS:          0
cpu3_STLB PREFETCH     ACCESS:          0 HIT:          0 MISS:          0
cpu3_STLB WRITE        ACCESS:          0 HIT:          0 MISS:          0
cpu3_STLB TRANSLATION  ACCESS:          0 HIT:          0 MISS:          0
cpu3_STLB PREFETCH REQUESTED:          0 ISSUED:          0 USEFUL:          0 USELESS:          0
cpu3_STLB AVERAGE MISS LATENCY: 616.7 cycles

DRAM Statistics

Channel 0 RQ ROW_BUFFER_HIT:    1928413
  ROW_BUFFER_MISS:   13047698
 AVG DBUS CONGESTED CYCLE: 3.998
WQ ROW_BUFFER_HIT: Channel 0 
  ROW_BUFFER_MISS:     140664
  FULL:    7912925
