WARNING: physical memory size is smaller than virtual memory size.
WARNING: option --warmup_instructions is deprecated. Use --warmup-instructions instead.
WARNING: option --simulation_instructions is deprecated. Use --simulation-instructions instead.

*** ChampSim Multicore Out-of-Order Simulator ***
Warmup Instructions: 50000000
Simulation Instructions: 150000000
Number of CPUs: 4
Page size: 4096

Off-chip DRAM Size: 4 GiB Channels: 1 Width: 64-bit Data Race: 3200 MT/s
Heartbeat CPU 0 instructions: 10000001 cycles: 2503009 heartbeat IPC: 3.995 cumulative IPC: 3.995 (Simulation time: 00 hr 02 min 29 sec)
Heartbeat CPU 3 instructions: 10000002 cycles: 2515423 heartbeat IPC: 3.975 cumulative IPC: 3.975 (Simulation time: 00 hr 02 min 30 sec)
Heartbeat CPU 1 instructions: 10000002 cycles: 3006586 heartbeat IPC: 3.326 cumulative IPC: 3.326 (Simulation time: 00 hr 03 min 03 sec)
Heartbeat CPU 2 instructions: 10000004 cycles: 3318570 heartbeat IPC: 3.013 cumulative IPC: 3.013 (Simulation time: 00 hr 03 min 21 sec)
Heartbeat CPU 0 instructions: 20000003 cycles: 5020201 heartbeat IPC: 3.973 cumulative IPC: 3.984 (Simulation time: 00 hr 05 min 00 sec)
Heartbeat CPU 3 instructions: 20000002 cycles: 5025681 heartbeat IPC: 3.984 cumulative IPC: 3.98 (Simulation time: 00 hr 05 min 00 sec)
Heartbeat CPU 1 instructions: 20000002 cycles: 6014148 heartbeat IPC: 3.325 cumulative IPC: 3.325 (Simulation time: 00 hr 06 min 00 sec)
Heartbeat CPU 2 instructions: 20000004 cycles: 6617189 heartbeat IPC: 3.032 cumulative IPC: 3.022 (Simulation time: 00 hr 06 min 36 sec)
Heartbeat CPU 0 instructions: 30000003 cycles: 7520201 heartbeat IPC: 4 cumulative IPC: 3.989 (Simulation time: 00 hr 07 min 36 sec)
Heartbeat CPU 3 instructions: 30000001 cycles: 7541113 heartbeat IPC: 3.975 cumulative IPC: 3.978 (Simulation time: 00 hr 07 min 37 sec)
Heartbeat CPU 1 instructions: 30000002 cycles: 9019949 heartbeat IPC: 3.327 cumulative IPC: 3.326 (Simulation time: 00 hr 09 min 12 sec)
Heartbeat CPU 2 instructions: 30000000 cycles: 9872746 heartbeat IPC: 3.072 cumulative IPC: 3.039 (Simulation time: 00 hr 10 min 06 sec)
Heartbeat CPU 0 instructions: 40000003 cycles: 10020201 heartbeat IPC: 4 cumulative IPC: 3.992 (Simulation time: 00 hr 10 min 14 sec)
Heartbeat CPU 3 instructions: 40000001 cycles: 10056554 heartbeat IPC: 3.975 cumulative IPC: 3.978 (Simulation time: 00 hr 10 min 16 sec)
Heartbeat CPU 1 instructions: 40000003 cycles: 12027887 heartbeat IPC: 3.325 cumulative IPC: 3.326 (Simulation time: 00 hr 12 min 08 sec)
Heartbeat CPU 0 instructions: 50000003 cycles: 12520201 heartbeat IPC: 4 cumulative IPC: 3.994 (Simulation time: 00 hr 12 min 39 sec)
Warmup finished CPU 0 instructions: 50000003 cycles: 12520202 cumulative IPC: 3.994 (Simulation time: 00 hr 12 min 39 sec)
Heartbeat CPU 3 instructions: 50000002 cycles: 12571977 heartbeat IPC: 3.975 cumulative IPC: 3.977 (Simulation time: 00 hr 12 min 41 sec)
Warmup finished CPU 3 instructions: 50000002 cycles: 12571978 cumulative IPC: 3.977 (Simulation time: 00 hr 12 min 41 sec)
Heartbeat CPU 2 instructions: 40000002 cycles: 13166595 heartbeat IPC: 3.036 cumulative IPC: 3.038 (Simulation time: 00 hr 13 min 15 sec)
Heartbeat CPU 0 instructions: 60000003 cycles: 15020201 heartbeat IPC: 4 cumulative IPC: 3.995 (Simulation time: 00 hr 15 min 18 sec)
Heartbeat CPU 1 instructions: 50000001 cycles: 15035363 heartbeat IPC: 3.325 cumulative IPC: 3.325 (Simulation time: 00 hr 15 min 20 sec)
Warmup finished CPU 1 instructions: 50000001 cycles: 15035364 cumulative IPC: 3.325 (Simulation time: 00 hr 15 min 20 sec)
Heartbeat CPU 3 instructions: 60000001 cycles: 15087375 heartbeat IPC: 3.976 cumulative IPC: 3.977 (Simulation time: 00 hr 15 min 24 sec)
Heartbeat CPU 2 instructions: 50000004 cycles: 16466470 heartbeat IPC: 3.03 cumulative IPC: 3.036 (Simulation time: 00 hr 16 min 52 sec)
Warmup finished CPU 2 instructions: 50000004 cycles: 16466471 cumulative IPC: 3.036 (Simulation time: 00 hr 16 min 52 sec)
Warmup complete CPU 0 instructions: 65785079 cycles: 16466471 cumulative IPC: 3.995 (Simulation time: 00 hr 16 min 52 sec)
Warmup complete CPU 1 instructions: 54782910 cycles: 16466471 cumulative IPC: 3.327 (Simulation time: 00 hr 16 min 52 sec)
Warmup complete CPU 2 instructions: 50000004 cycles: 16466471 cumulative IPC: 3.036 (Simulation time: 00 hr 16 min 52 sec)
Warmup complete CPU 3 instructions: 65495820 cycles: 16466471 cumulative IPC: 3.978 (Simulation time: 00 hr 16 min 52 sec)
Heartbeat CPU 0 instructions: 70000004 cycles: 33261468 heartbeat IPC: 0.5482 cumulative IPC: 0.251 (Simulation time: 00 hr 22 min 51 sec)
Heartbeat CPU 3 instructions: 70000003 cycles: 37245841 heartbeat IPC: 0.4513 cumulative IPC: 0.2168 (Simulation time: 00 hr 24 min 14 sec)
Heartbeat CPU 0 instructions: 80000002 cycles: 78236424 heartbeat IPC: 0.2223 cumulative IPC: 0.2301 (Simulation time: 00 hr 38 min 19 sec)
Heartbeat CPU 3 instructions: 80000003 cycles: 88167423 heartbeat IPC: 0.1964 cumulative IPC: 0.2023 (Simulation time: 00 hr 41 min 45 sec)
Heartbeat CPU 0 instructions: 90000003 cycles: 123165751 heartbeat IPC: 0.2226 cumulative IPC: 0.2269 (Simulation time: 00 hr 53 min 47 sec)
Heartbeat CPU 3 instructions: 90000004 cycles: 142540652 heartbeat IPC: 0.1839 cumulative IPC: 0.1944 (Simulation time: 01 hr 00 min 22 sec)
Heartbeat CPU 0 instructions: 100000004 cycles: 166304411 heartbeat IPC: 0.2318 cumulative IPC: 0.2283 (Simulation time: 01 hr 08 min 30 sec)
Heartbeat CPU 3 instructions: 100000000 cycles: 199495830 heartbeat IPC: 0.1756 cumulative IPC: 0.1885 (Simulation time: 01 hr 19 min 57 sec)
Heartbeat CPU 0 instructions: 110000002 cycles: 209932943 heartbeat IPC: 0.2292 cumulative IPC: 0.2285 (Simulation time: 01 hr 23 min 27 sec)
Heartbeat CPU 0 instructions: 120000000 cycles: 244566622 heartbeat IPC: 0.2887 cumulative IPC: 0.2377 (Simulation time: 01 hr 35 min 45 sec)
Heartbeat CPU 3 instructions: 110000002 cycles: 264326559 heartbeat IPC: 0.1542 cumulative IPC: 0.1796 (Simulation time: 01 hr 42 min 53 sec)
Heartbeat CPU 1 instructions: 60000000 cycles: 274781905 heartbeat IPC: 0.0385 cumulative IPC: 0.0202 (Simulation time: 01 hr 46 min 31 sec)
Heartbeat CPU 0 instructions: 130000003 cycles: 278977944 heartbeat IPC: 0.2906 cumulative IPC: 0.2446 (Simulation time: 01 hr 47 min 56 sec)
Heartbeat CPU 0 instructions: 140000001 cycles: 313113335 heartbeat IPC: 0.293 cumulative IPC: 0.2502 (Simulation time: 01 hr 59 min 49 sec)
Heartbeat CPU 3 instructions: 120000003 cycles: 328705103 heartbeat IPC: 0.1553 cumulative IPC: 0.1746 (Simulation time: 02 hr 05 min 03 sec)
Heartbeat CPU 0 instructions: 150000003 cycles: 346935465 heartbeat IPC: 0.2957 cumulative IPC: 0.2548 (Simulation time: 02 hr 11 min 13 sec)
Heartbeat CPU 3 instructions: 130000001 cycles: 380655890 heartbeat IPC: 0.1925 cumulative IPC: 0.1771 (Simulation time: 02 hr 22 min 33 sec)
Heartbeat CPU 0 instructions: 160000001 cycles: 383831204 heartbeat IPC: 0.271 cumulative IPC: 0.2565 (Simulation time: 02 hr 23 min 34 sec)
Heartbeat CPU 0 instructions: 170000001 cycles: 420459787 heartbeat IPC: 0.273 cumulative IPC: 0.258 (Simulation time: 02 hr 36 min 08 sec)
Heartbeat CPU 3 instructions: 140000004 cycles: 432182586 heartbeat IPC: 0.1941 cumulative IPC: 0.1792 (Simulation time: 02 hr 40 min 16 sec)
Heartbeat CPU 0 instructions: 180000003 cycles: 457088702 heartbeat IPC: 0.273 cumulative IPC: 0.2592 (Simulation time: 02 hr 49 min 06 sec)
Heartbeat CPU 2 instructions: 60000000 cycles: 480830539 heartbeat IPC: 0.02153 cumulative IPC: 0.02153 (Simulation time: 02 hr 57 min 29 sec)
Heartbeat CPU 3 instructions: 150000004 cycles: 482828374 heartbeat IPC: 0.1974 cumulative IPC: 0.1812 (Simulation time: 02 hr 58 min 10 sec)
Heartbeat CPU 0 instructions: 190000003 cycles: 493655178 heartbeat IPC: 0.2735 cumulative IPC: 0.2603 (Simulation time: 03 hr 01 min 58 sec)
Heartbeat CPU 0 instructions: 200000003 cycles: 535173542 heartbeat IPC: 0.2409 cumulative IPC: 0.2587 (Simulation time: 03 hr 16 min 50 sec)
Heartbeat CPU 3 instructions: 160000000 cycles: 541531790 heartbeat IPC: 0.1703 cumulative IPC: 0.18 (Simulation time: 03 hr 19 min 04 sec)
Heartbeat CPU 0 instructions: 210000001 cycles: 573476688 heartbeat IPC: 0.2611 cumulative IPC: 0.2589 (Simulation time: 03 hr 30 min 16 sec)
Simulation finished CPU 0 instructions: 150000004 cycles: 576964547 cumulative IPC: 0.26 (Simulation time: 03 hr 37 min 19 sec)
Heartbeat CPU 3 instructions: 170000001 cycles: 594116048 heartbeat IPC: 0.1902 cumulative IPC: 0.1809 (Simulation time: 03 hr 37 min 33 sec)
Heartbeat CPU 0 instructions: 220000001 cycles: 610621437 heartbeat IPC: 0.2692 cumulative IPC: 0.2596 (Simulation time: 03 hr 43 min 16 sec)
Heartbeat CPU 3 instructions: 180000000 cycles: 645869231 heartbeat IPC: 0.1932 cumulative IPC: 0.1819 (Simulation time: 03 hr 55 min 24 sec)
Heartbeat CPU 0 instructions: 230000004 cycles: 647866104 heartbeat IPC: 0.2685 cumulative IPC: 0.2601 (Simulation time: 03 hr 56 min 04 sec)
Heartbeat CPU 0 instructions: 240000001 cycles: 684880866 heartbeat IPC: 0.2702 cumulative IPC: 0.2606 (Simulation time: 04 hr 08 min 31 sec)
Heartbeat CPU 3 instructions: 190000003 cycles: 697745443 heartbeat IPC: 0.1928 cumulative IPC: 0.1828 (Simulation time: 04 hr 13 min 09 sec)
Heartbeat CPU 0 instructions: 250000003 cycles: 721432170 heartbeat IPC: 0.2736 cumulative IPC: 0.2613 (Simulation time: 04 hr 21 min 34 sec)
Heartbeat CPU 3 instructions: 200000003 cycles: 749101901 heartbeat IPC: 0.1947 cumulative IPC: 0.1836 (Simulation time: 04 hr 31 min 06 sec)
Heartbeat CPU 0 instructions: 260000004 cycles: 757327091 heartbeat IPC: 0.2786 cumulative IPC: 0.2621 (Simulation time: 04 hr 34 min 00 sec)
Heartbeat CPU 1 instructions: 70000004 cycles: 774624527 heartbeat IPC: 0.02001 cumulative IPC: 0.02007 (Simulation time: 04 hr 39 min 52 sec)
Heartbeat CPU 0 instructions: 270000004 cycles: 793552158 heartbeat IPC: 0.2761 cumulative IPC: 0.2628 (Simulation time: 04 hr 46 min 22 sec)
Heartbeat CPU 3 instructions: 210000000 cycles: 800462956 heartbeat IPC: 0.1947 cumulative IPC: 0.1843 (Simulation time: 04 hr 48 min 43 sec)
Heartbeat CPU 0 instructions: 280000004 cycles: 830814797 heartbeat IPC: 0.2684 cumulative IPC: 0.2631 (Simulation time: 04 hr 59 min 10 sec)
Simulation finished CPU 3 instructions: 150000000 cycles: 814754458 cumulative IPC: 0.1841 (Simulation time: 04 hr 59 min 20 sec)
Heartbeat CPU 3 instructions: 220000000 cycles: 859907713 heartbeat IPC: 0.1682 cumulative IPC: 0.1832 (Simulation time: 05 hr 09 min 09 sec)
Heartbeat CPU 0 instructions: 290000003 cycles: 871752112 heartbeat IPC: 0.2443 cumulative IPC: 0.2622 (Simulation time: 05 hr 13 min 09 sec)
Heartbeat CPU 2 instructions: 70000001 cycles: 882653514 heartbeat IPC: 0.02489 cumulative IPC: 0.02309 (Simulation time: 05 hr 16 min 48 sec)
Heartbeat CPU 3 instructions: 230000001 cycles: 909909717 heartbeat IPC: 0.2 cumulative IPC: 0.1841 (Simulation time: 05 hr 26 min 01 sec)
Heartbeat CPU 0 instructions: 300000000 cycles: 917170672 heartbeat IPC: 0.2202 cumulative IPC: 0.26 (Simulation time: 05 hr 28 min 30 sec)
Heartbeat CPU 3 instructions: 240000002 cycles: 958525577 heartbeat IPC: 0.2057 cumulative IPC: 0.1852 (Simulation time: 05 hr 42 min 34 sec)
Heartbeat CPU 0 instructions: 310000000 cycles: 961944680 heartbeat IPC: 0.2233 cumulative IPC: 0.2583 (Simulation time: 05 hr 43 min 42 sec)
Heartbeat CPU 0 instructions: 320000003 cycles: 1006619432 heartbeat IPC: 0.2238 cumulative IPC: 0.2567 (Simulation time: 05 hr 59 min 06 sec)
Heartbeat CPU 3 instructions: 250000001 cycles: 1007319646 heartbeat IPC: 0.2049 cumulative IPC: 0.1862 (Simulation time: 05 hr 59 min 20 sec)
Heartbeat CPU 0 instructions: 330000002 cycles: 1054408408 heartbeat IPC: 0.2093 cumulative IPC: 0.2546 (Simulation time: 06 hr 16 min 03 sec)
Heartbeat CPU 3 instructions: 260000003 cycles: 1060700854 heartbeat IPC: 0.1873 cumulative IPC: 0.1863 (Simulation time: 06 hr 18 min 12 sec)
Heartbeat CPU 0 instructions: 340000002 cycles: 1119556237 heartbeat IPC: 0.1535 cumulative IPC: 0.2486 (Simulation time: 06 hr 38 min 51 sec)
Heartbeat CPU 3 instructions: 270000004 cycles: 1139107026 heartbeat IPC: 0.1275 cumulative IPC: 0.1822 (Simulation time: 06 hr 45 min 32 sec)
Heartbeat CPU 0 instructions: 350000000 cycles: 1167152468 heartbeat IPC: 0.2101 cumulative IPC: 0.247 (Simulation time: 06 hr 55 min 24 sec)
Heartbeat CPU 3 instructions: 280000004 cycles: 1192550905 heartbeat IPC: 0.1871 cumulative IPC: 0.1824 (Simulation time: 07 hr 04 min 08 sec)
Heartbeat CPU 0 instructions: 360000001 cycles: 1210132280 heartbeat IPC: 0.2327 cumulative IPC: 0.2465 (Simulation time: 07 hr 10 min 25 sec)
Heartbeat CPU 0 instructions: 370000000 cycles: 1253081540 heartbeat IPC: 0.2328 cumulative IPC: 0.246 (Simulation time: 07 hr 25 min 38 sec)
Heartbeat CPU 3 instructions: 290000002 cycles: 1254344426 heartbeat IPC: 0.1618 cumulative IPC: 0.1814 (Simulation time: 07 hr 26 min 04 sec)
Heartbeat CPU 1 instructions: 80000002 cycles: 1270547940 heartbeat IPC: 0.02016 cumulative IPC: 0.02011 (Simulation time: 07 hr 31 min 50 sec)
Heartbeat CPU 0 instructions: 380000002 cycles: 1290870225 heartbeat IPC: 0.2646 cumulative IPC: 0.2466 (Simulation time: 07 hr 38 min 58 sec)
Heartbeat CPU 3 instructions: 300000002 cycles: 1324539232 heartbeat IPC: 0.1425 cumulative IPC: 0.1793 (Simulation time: 07 hr 51 min 08 sec)
Heartbeat CPU 0 instructions: 390000001 cycles: 1325170378 heartbeat IPC: 0.2915 cumulative IPC: 0.2477 (Simulation time: 07 hr 51 min 20 sec)
Heartbeat CPU 2 instructions: 80000003 cycles: 1343603436 heartbeat IPC: 0.02169 cumulative IPC: 0.02261 (Simulation time: 07 hr 57 min 37 sec)
Heartbeat CPU 0 instructions: 400000001 cycles: 1358725195 heartbeat IPC: 0.298 cumulative IPC: 0.249 (Simulation time: 08 hr 02 min 52 sec)
Heartbeat CPU 3 instructions: 310000002 cycles: 1380773854 heartbeat IPC: 0.1778 cumulative IPC: 0.1792 (Simulation time: 08 hr 10 min 57 sec)
Heartbeat CPU 0 instructions: 410000000 cycles: 1387544894 heartbeat IPC: 0.347 cumulative IPC: 0.2511 (Simulation time: 08 hr 13 min 27 sec)
Heartbeat CPU 0 instructions: 420000004 cycles: 1416901460 heartbeat IPC: 0.3406 cumulative IPC: 0.2529 (Simulation time: 08 hr 23 min 42 sec)
Heartbeat CPU 3 instructions: 320000004 cycles: 1431821605 heartbeat IPC: 0.1959 cumulative IPC: 0.1798 (Simulation time: 08 hr 28 min 50 sec)
Heartbeat CPU 0 instructions: 430000003 cycles: 1448066030 heartbeat IPC: 0.3209 cumulative IPC: 0.2544 (Simulation time: 08 hr 34 min 28 sec)
Heartbeat CPU 0 instructions: 440000001 cycles: 1483093828 heartbeat IPC: 0.2855 cumulative IPC: 0.2552 (Simulation time: 08 hr 46 min 41 sec)
Heartbeat CPU 3 instructions: 330000002 cycles: 1492116975 heartbeat IPC: 0.1659 cumulative IPC: 0.1792 (Simulation time: 08 hr 49 min 56 sec)
Heartbeat CPU 0 instructions: 450000000 cycles: 1512884216 heartbeat IPC: 0.3357 cumulative IPC: 0.2568 (Simulation time: 08 hr 57 min 14 sec)
Heartbeat CPU 0 instructions: 460000003 cycles: 1542938978 heartbeat IPC: 0.3327 cumulative IPC: 0.2583 (Simulation time: 09 hr 07 min 46 sec)
Heartbeat CPU 3 instructions: 340000001 cycles: 1545310201 heartbeat IPC: 0.188 cumulative IPC: 0.1796 (Simulation time: 09 hr 08 min 39 sec)
Heartbeat CPU 0 instructions: 470000001 cycles: 1573502854 heartbeat IPC: 0.3272 cumulative IPC: 0.2596 (Simulation time: 09 hr 18 min 27 sec)
Heartbeat CPU 3 instructions: 350000004 cycles: 1606161952 heartbeat IPC: 0.1643 cumulative IPC: 0.179 (Simulation time: 09 hr 30 min 08 sec)
Heartbeat CPU 0 instructions: 480000001 cycles: 1610851634 heartbeat IPC: 0.2677 cumulative IPC: 0.2598 (Simulation time: 09 hr 31 min 48 sec)
Heartbeat CPU 0 instructions: 490000000 cycles: 1640912668 heartbeat IPC: 0.3327 cumulative IPC: 0.2611 (Simulation time: 09 hr 42 min 18 sec)
Heartbeat CPU 3 instructions: 360000000 cycles: 1661715808 heartbeat IPC: 0.18 cumulative IPC: 0.179 (Simulation time: 09 hr 49 min 24 sec)
Heartbeat CPU 2 instructions: 90000000 cycles: 1670343077 heartbeat IPC: 0.03061 cumulative IPC: 0.02419 (Simulation time: 09 hr 52 min 42 sec)
Heartbeat CPU 0 instructions: 500000000 cycles: 1670798195 heartbeat IPC: 0.3346 cumulative IPC: 0.2625 (Simulation time: 09 hr 52 min 51 sec)
Heartbeat CPU 0 instructions: 510000001 cycles: 1701096198 heartbeat IPC: 0.3301 cumulative IPC: 0.2637 (Simulation time: 10 hr 03 min 30 sec)
Heartbeat CPU 3 instructions: 370000004 cycles: 1715223887 heartbeat IPC: 0.1869 cumulative IPC: 0.1793 (Simulation time: 10 hr 08 min 28 sec)
Heartbeat CPU 0 instructions: 520000003 cycles: 1731866995 heartbeat IPC: 0.325 cumulative IPC: 0.2648 (Simulation time: 10 hr 14 min 31 sec)
Heartbeat CPU 0 instructions: 530000000 cycles: 1768828192 heartbeat IPC: 0.2706 cumulative IPC: 0.2649 (Simulation time: 10 hr 27 min 20 sec)
Heartbeat CPU 1 instructions: 90000000 cycles: 1773927681 heartbeat IPC: 0.01987 cumulative IPC: 0.02004 (Simulation time: 10 hr 29 min 11 sec)
Heartbeat CPU 3 instructions: 380000000 cycles: 1777839929 heartbeat IPC: 0.1597 cumulative IPC: 0.1786 (Simulation time: 10 hr 30 min 36 sec)
Heartbeat CPU 0 instructions: 540000004 cycles: 1800505785 heartbeat IPC: 0.3157 cumulative IPC: 0.2658 (Simulation time: 10 hr 38 min 39 sec)
Heartbeat CPU 0 instructions: 550000004 cycles: 1830639280 heartbeat IPC: 0.3319 cumulative IPC: 0.2669 (Simulation time: 10 hr 49 min 07 sec)
Heartbeat CPU 3 instructions: 390000002 cycles: 1832664211 heartbeat IPC: 0.1824 cumulative IPC: 0.1787 (Simulation time: 10 hr 49 min 53 sec)
Heartbeat CPU 0 instructions: 560000001 cycles: 1877626043 heartbeat IPC: 0.2128 cumulative IPC: 0.2655 (Simulation time: 11 hr 05 min 37 sec)
Heartbeat CPU 3 instructions: 400000002 cycles: 1904704861 heartbeat IPC: 0.1388 cumulative IPC: 0.1772 (Simulation time: 11 hr 15 min 08 sec)
Heartbeat CPU 0 instructions: 570000003 cycles: 1926623621 heartbeat IPC: 0.2041 cumulative IPC: 0.264 (Simulation time: 11 hr 22 min 49 sec)
Heartbeat CPU 0 instructions: 580000002 cycles: 1981186019 heartbeat IPC: 0.1833 cumulative IPC: 0.2617 (Simulation time: 11 hr 42 min 45 sec)
Heartbeat CPU 3 instructions: 410000001 cycles: 1983668847 heartbeat IPC: 0.1266 cumulative IPC: 0.1751 (Simulation time: 11 hr 43 min 36 sec)
Heartbeat CPU 0 instructions: 590000004 cycles: 2029215817 heartbeat IPC: 0.2082 cumulative IPC: 0.2604 (Simulation time: 11 hr 59 min 12 sec)
Heartbeat CPU 3 instructions: 420000001 cycles: 2052818910 heartbeat IPC: 0.1446 cumulative IPC: 0.1741 (Simulation time: 12 hr 07 min 22 sec)
Heartbeat CPU 2 instructions: 100000003 cycles: 2059900396 heartbeat IPC: 0.02567 cumulative IPC: 0.02447 (Simulation time: 12 hr 09 min 51 sec)
Heartbeat CPU 0 instructions: 600000000 cycles: 2079531424 heartbeat IPC: 0.1987 cumulative IPC: 0.2589 (Simulation time: 12 hr 16 min 36 sec)
Heartbeat CPU 0 instructions: 610000002 cycles: 2113776432 heartbeat IPC: 0.292 cumulative IPC: 0.2595 (Simulation time: 12 hr 28 min 54 sec)
Heartbeat CPU 3 instructions: 430000004 cycles: 2135765262 heartbeat IPC: 0.1206 cumulative IPC: 0.172 (Simulation time: 12 hr 36 min 51 sec)
Heartbeat CPU 0 instructions: 620000003 cycles: 2154480695 heartbeat IPC: 0.2457 cumulative IPC: 0.2592 (Simulation time: 12 hr 43 min 38 sec)
Heartbeat CPU 3 instructions: 440000003 cycles: 2185900189 heartbeat IPC: 0.1995 cumulative IPC: 0.1726 (Simulation time: 12 hr 55 min 42 sec)
Heartbeat CPU 0 instructions: 630000000 cycles: 2200403424 heartbeat IPC: 0.2178 cumulative IPC: 0.2583 (Simulation time: 13 hr 01 min 24 sec)
Heartbeat CPU 3 instructions: 450000004 cycles: 2244186999 heartbeat IPC: 0.1716 cumulative IPC: 0.1726 (Simulation time: 13 hr 17 min 27 sec)
Heartbeat CPU 0 instructions: 640000004 cycles: 2249551895 heartbeat IPC: 0.2035 cumulative IPC: 0.2571 (Simulation time: 13 hr 19 min 26 sec)
Heartbeat CPU 0 instructions: 650000003 cycles: 2294141787 heartbeat IPC: 0.2243 cumulative IPC: 0.2565 (Simulation time: 13 hr 35 min 08 sec)
Heartbeat CPU 3 instructions: 460000001 cycles: 2295801780 heartbeat IPC: 0.1937 cumulative IPC: 0.1731 (Simulation time: 13 hr 35 min 43 sec)
Heartbeat CPU 1 instructions: 100000004 cycles: 2328533673 heartbeat IPC: 0.01803 cumulative IPC: 0.01956 (Simulation time: 13 hr 47 min 47 sec)
Heartbeat CPU 0 instructions: 660000004 cycles: 2343629784 heartbeat IPC: 0.2021 cumulative IPC: 0.2553 (Simulation time: 13 hr 53 min 17 sec)
Heartbeat CPU 3 instructions: 470000002 cycles: 2351835777 heartbeat IPC: 0.1785 cumulative IPC: 0.1732 (Simulation time: 13 hr 56 min 06 sec)
Heartbeat CPU 2 instructions: 110000002 cycles: 2360326626 heartbeat IPC: 0.03329 cumulative IPC: 0.0256 (Simulation time: 13 hr 59 min 03 sec)
Heartbeat CPU 0 instructions: 670000002 cycles: 2389253612 heartbeat IPC: 0.2192 cumulative IPC: 0.2546 (Simulation time: 14 hr 09 min 10 sec)
Heartbeat CPU 3 instructions: 480000001 cycles: 2408535698 heartbeat IPC: 0.1764 cumulative IPC: 0.1733 (Simulation time: 14 hr 15 min 48 sec)
Heartbeat CPU 0 instructions: 680000004 cycles: 2438315998 heartbeat IPC: 0.2038 cumulative IPC: 0.2536 (Simulation time: 14 hr 26 min 22 sec)
Heartbeat CPU 3 instructions: 490000003 cycles: 2461189889 heartbeat IPC: 0.1899 cumulative IPC: 0.1736 (Simulation time: 14 hr 34 min 20 sec)
Heartbeat CPU 0 instructions: 690000004 cycles: 2484501193 heartbeat IPC: 0.2165 cumulative IPC: 0.2529 (Simulation time: 14 hr 42 min 35 sec)
Heartbeat CPU 3 instructions: 500000000 cycles: 2524293456 heartbeat IPC: 0.1585 cumulative IPC: 0.1733 (Simulation time: 14 hr 56 min 17 sec)
Heartbeat CPU 0 instructions: 700000003 cycles: 2535042594 heartbeat IPC: 0.1979 cumulative IPC: 0.2518 (Simulation time: 15 hr 00 min 00 sec)
Heartbeat CPU 0 instructions: 710000001 cycles: 2581004640 heartbeat IPC: 0.2176 cumulative IPC: 0.2512 (Simulation time: 15 hr 15 min 34 sec)
Heartbeat CPU 3 instructions: 510000004 cycles: 2584148461 heartbeat IPC: 0.1671 cumulative IPC: 0.1731 (Simulation time: 15 hr 16 min 40 sec)
Heartbeat CPU 0 instructions: 720000002 cycles: 2620162711 heartbeat IPC: 0.2554 cumulative IPC: 0.2513 (Simulation time: 15 hr 29 min 06 sec)
Heartbeat CPU 0 instructions: 730000003 cycles: 2656842250 heartbeat IPC: 0.2726 cumulative IPC: 0.2516 (Simulation time: 15 hr 41 min 39 sec)
Heartbeat CPU 3 instructions: 520000000 cycles: 2659997417 heartbeat IPC: 0.1318 cumulative IPC: 0.1719 (Simulation time: 15 hr 42 min 42 sec)
Heartbeat CPU 2 instructions: 120000000 cycles: 2666548613 heartbeat IPC: 0.03266 cumulative IPC: 0.02641 (Simulation time: 15 hr 44 min 54 sec)
Heartbeat CPU 0 instructions: 740000003 cycles: 2691345460 heartbeat IPC: 0.2898 cumulative IPC: 0.2521 (Simulation time: 15 hr 53 min 29 sec)
Heartbeat CPU 3 instructions: 530000000 cycles: 2725833958 heartbeat IPC: 0.1519 cumulative IPC: 0.1714 (Simulation time: 16 hr 05 min 41 sec)
Heartbeat CPU 0 instructions: 750000004 cycles: 2726351654 heartbeat IPC: 0.2857 cumulative IPC: 0.2525 (Simulation time: 16 hr 05 min 52 sec)
Heartbeat CPU 0 instructions: 760000004 cycles: 2760904018 heartbeat IPC: 0.2894 cumulative IPC: 0.253 (Simulation time: 16 hr 18 min 11 sec)
Heartbeat CPU 3 instructions: 540000000 cycles: 2785693942 heartbeat IPC: 0.1671 cumulative IPC: 0.1713 (Simulation time: 16 hr 27 min 02 sec)
Heartbeat CPU 0 instructions: 770000003 cycles: 2790775957 heartbeat IPC: 0.3348 cumulative IPC: 0.2538 (Simulation time: 16 hr 28 min 53 sec)
Heartbeat CPU 0 instructions: 780000000 cycles: 2820407636 heartbeat IPC: 0.3375 cumulative IPC: 0.2547 (Simulation time: 16 hr 39 min 43 sec)
Heartbeat CPU 3 instructions: 550000001 cycles: 2844362589 heartbeat IPC: 0.1704 cumulative IPC: 0.1713 (Simulation time: 16 hr 48 min 09 sec)
Heartbeat CPU 0 instructions: 790000003 cycles: 2856654025 heartbeat IPC: 0.2759 cumulative IPC: 0.255 (Simulation time: 16 hr 52 min 35 sec)
Heartbeat CPU 1 instructions: 110000000 cycles: 2871631811 heartbeat IPC: 0.01841 cumulative IPC: 0.01934 (Simulation time: 16 hr 57 min 47 sec)
Heartbeat CPU 0 instructions: 800000004 cycles: 2886477465 heartbeat IPC: 0.3353 cumulative IPC: 0.2558 (Simulation time: 17 hr 03 min 01 sec)
Heartbeat CPU 3 instructions: 560000004 cycles: 2900917976 heartbeat IPC: 0.1768 cumulative IPC: 0.1714 (Simulation time: 17 hr 07 min 58 sec)
Heartbeat CPU 0 instructions: 810000003 cycles: 2916580667 heartbeat IPC: 0.3322 cumulative IPC: 0.2566 (Simulation time: 17 hr 13 min 22 sec)
Heartbeat CPU 2 instructions: 130000003 cycles: 2942588044 heartbeat IPC: 0.03623 cumulative IPC: 0.02734 (Simulation time: 17 hr 22 min 51 sec)
Heartbeat CPU 0 instructions: 820000002 cycle