WARNING: physical memory size is smaller than virtual memory size.
WARNING: option --warmup_instructions is deprecated. Use --warmup-instructions instead.
WARNING: option --simulation_instructions is deprecated. Use --simulation-instructions instead.

*** ChampSim Multicore Out-of-Order Simulator ***
Warmup Instructions: 50000000
Simulation Instructions: 150000000
Number of CPUs: 4
Page size: 4096

Off-chip DRAM Size: 4 GiB Channels: 1 Width: 64-bit Data Race: 3200 MT/s
Heartbeat CPU 0 instructions: 10000003 cycles: 2500049 heartbeat IPC: 4 cumulative IPC: 4 (Simulation time: 00 hr 02 min 07 sec)
Heartbeat CPU 2 instructions: 10000003 cycles: 2500054 heartbeat IPC: 4 cumulative IPC: 4 (Simulation time: 00 hr 02 min 07 sec)
Heartbeat CPU 1 instructions: 10000000 cycles: 2521428 heartbeat IPC: 3.966 cumulative IPC: 3.966 (Simulation time: 00 hr 02 min 09 sec)
Heartbeat CPU 3 instructions: 10000000 cycles: 4826416 heartbeat IPC: 2.072 cumulative IPC: 2.072 (Simulation time: 00 hr 04 min 07 sec)
Heartbeat CPU 0 instructions: 20000003 cycles: 5000049 heartbeat IPC: 4 cumulative IPC: 4 (Simulation time: 00 hr 04 min 16 sec)
Heartbeat CPU 2 instructions: 20000003 cycles: 5000054 heartbeat IPC: 4 cumulative IPC: 4 (Simulation time: 00 hr 04 min 16 sec)
Heartbeat CPU 1 instructions: 20000003 cycles: 5056761 heartbeat IPC: 3.944 cumulative IPC: 3.955 (Simulation time: 00 hr 04 min 20 sec)
Heartbeat CPU 2 instructions: 30000003 cycles: 7500054 heartbeat IPC: 4 cumulative IPC: 4 (Simulation time: 00 hr 06 min 29 sec)
Heartbeat CPU 0 instructions: 30000002 cycles: 7517418 heartbeat IPC: 3.972 cumulative IPC: 3.991 (Simulation time: 00 hr 06 min 30 sec)
Heartbeat CPU 1 instructions: 30000003 cycles: 7556761 heartbeat IPC: 4 cumulative IPC: 3.97 (Simulation time: 00 hr 06 min 32 sec)
Heartbeat CPU 3 instructions: 20000000 cycles: 9647036 heartbeat IPC: 2.074 cumulative IPC: 2.073 (Simulation time: 00 hr 08 min 22 sec)
Heartbeat CPU 2 instructions: 40000003 cycles: 10000054 heartbeat IPC: 4 cumulative IPC: 4 (Simulation time: 00 hr 08 min 40 sec)
Heartbeat CPU 0 instructions: 40000001 cycles: 10034421 heartbeat IPC: 3.973 cumulative IPC: 3.986 (Simulation time: 00 hr 08 min 41 sec)
Heartbeat CPU 1 instructions: 40000000 cycles: 10190101 heartbeat IPC: 3.797 cumulative IPC: 3.925 (Simulation time: 00 hr 08 min 49 sec)
Heartbeat CPU 2 instructions: 50000001 cycles: 12500098 heartbeat IPC: 4 cumulative IPC: 4 (Simulation time: 00 hr 10 min 54 sec)
Warmup finished CPU 2 instructions: 50000001 cycles: 12500099 cumulative IPC: 4 (Simulation time: 00 hr 10 min 54 sec)
Heartbeat CPU 0 instructions: 50000000 cycles: 12536268 heartbeat IPC: 3.997 cumulative IPC: 3.988 (Simulation time: 00 hr 10 min 57 sec)
Warmup finished CPU 0 instructions: 50000000 cycles: 12536269 cumulative IPC: 3.988 (Simulation time: 00 hr 10 min 57 sec)
Heartbeat CPU 1 instructions: 50000002 cycles: 13324757 heartbeat IPC: 3.19 cumulative IPC: 3.752 (Simulation time: 00 hr 11 min 40 sec)
Warmup finished CPU 1 instructions: 50000002 cycles: 13324758 cumulative IPC: 3.752 (Simulation time: 00 hr 11 min 40 sec)
Heartbeat CPU 3 instructions: 30000001 cycles: 14473174 heartbeat IPC: 2.072 cumulative IPC: 2.073 (Simulation time: 00 hr 12 min 40 sec)
Heartbeat CPU 2 instructions: 60000001 cycles: 15000098 heartbeat IPC: 4 cumulative IPC: 4 (Simulation time: 00 hr 13 min 05 sec)
Heartbeat CPU 0 instructions: 60000000 cycles: 15036268 heartbeat IPC: 4 cumulative IPC: 3.99 (Simulation time: 00 hr 13 min 07 sec)
Heartbeat CPU 1 instructions: 60000003 cycles: 15917486 heartbeat IPC: 3.857 cumulative IPC: 3.769 (Simulation time: 00 hr 13 min 54 sec)
Heartbeat CPU 2 instructions: 70000001 cycles: 17500098 heartbeat IPC: 4 cumulative IPC: 4 (Simulation time: 00 hr 15 min 33 sec)
Heartbeat CPU 0 instructions: 70000004 cycles: 17537493 heartbeat IPC: 3.998 cumulative IPC: 3.991 (Simulation time: 00 hr 15 min 35 sec)
Heartbeat CPU 1 instructions: 70000003 cycles: 18428412 heartbeat IPC: 3.983 cumulative IPC: 3.798 (Simulation time: 00 hr 16 min 25 sec)
Heartbeat CPU 3 instructions: 40000000 cycles: 19297733 heartbeat IPC: 2.073 cumulative IPC: 2.073 (Simulation time: 00 hr 17 min 13 sec)
Heartbeat CPU 2 instructions: 80000001 cycles: 20000098 heartbeat IPC: 4 cumulative IPC: 4 (Simulation time: 00 hr 17 min 53 sec)
Heartbeat CPU 0 instructions: 80000002 cycles: 20045614 heartbeat IPC: 3.987 cumulative IPC: 3.991 (Simulation time: 00 hr 17 min 56 sec)
Heartbeat CPU 1 instructions: 80000002 cycles: 21028755 heartbeat IPC: 3.846 cumulative IPC: 3.804 (Simulation time: 00 hr 18 min 50 sec)
Heartbeat CPU 2 instructions: 90000001 cycles: 22500098 heartbeat IPC: 4 cumulative IPC: 4 (Simulation time: 00 hr 20 min 06 sec)
Heartbeat CPU 0 instructions: 90000002 cycles: 22553916 heartbeat IPC: 3.987 cumulative IPC: 3.99 (Simulation time: 00 hr 20 min 09 sec)
Heartbeat CPU 1 instructions: 90000003 cycles: 23539186 heartbeat IPC: 3.983 cumulative IPC: 3.823 (Simulation time: 00 hr 21 min 00 sec)
Heartbeat CPU 3 instructions: 50000001 cycles: 24118760 heartbeat IPC: 2.074 cumulative IPC: 2.073 (Simulation time: 00 hr 21 min 34 sec)
Warmup finished CPU 3 instructions: 50000001 cycles: 24118761 cumulative IPC: 2.073 (Simulation time: 00 hr 21 min 34 sec)
Warmup complete CPU 0 instructions: 96239266 cycles: 24118761 cumulative IPC: 3.99 (Simulation time: 00 hr 21 min 34 sec)
Warmup complete CPU 1 instructions: 92308617 cycles: 24118761 cumulative IPC: 3.827 (Simulation time: 00 hr 21 min 34 sec)
Warmup complete CPU 2 instructions: 96211949 cycles: 24118761 cumulative IPC: 3.989 (Simulation time: 00 hr 21 min 34 sec)
Warmup complete CPU 3 instructions: 50000001 cycles: 24118761 cumulative IPC: 2.073 (Simulation time: 00 hr 21 min 34 sec)
Heartbeat CPU 0 instructions: 100000003 cycles: 36734879 heartbeat IPC: 0.7052 cumulative IPC: 0.2981 (Simulation time: 00 hr 27 min 32 sec)
Heartbeat CPU 2 instructions: 100000004 cycles: 40583487 heartbeat IPC: 0.553 cumulative IPC: 0.2301 (Simulation time: 00 hr 29 min 23 sec)
Heartbeat CPU 1 instructions: 100000001 cycles: 44205708 heartbeat IPC: 0.4839 cumulative IPC: 0.3829 (Simulation time: 00 hr 31 min 10 sec)
Heartbeat CPU 0 instructions: 110000002 cycles: 61166126 heartbeat IPC: 0.4093 cumulative IPC: 0.3714 (Simulation time: 00 hr 39 min 31 sec)
Heartbeat CPU 3 instructions: 60000000 cycles: 63078652 heartbeat IPC: 0.2567 cumulative IPC: 0.2567 (Simulation time: 00 hr 40 min 28 sec)
Heartbeat CPU 1 instructions: 110000001 cycles: 66033257 heartbeat IPC: 0.4581 cumulative IPC: 0.4221 (Simulation time: 00 hr 41 min 55 sec)
Heartbeat CPU 2 instructions: 110000004 cycles: 67522146 heartbeat IPC: 0.3712 cumulative IPC: 0.3177 (Simulation time: 00 hr 42 min 39 sec)
Heartbeat CPU 0 instructions: 120000002 cycles: 87451331 heartbeat IPC: 0.3804 cumulative IPC: 0.3752 (Simulation time: 00 hr 52 min 34 sec)
Heartbeat CPU 1 instructions: 120000001 cycles: 88427426 heartbeat IPC: 0.4465 cumulative IPC: 0.4306 (Simulation time: 00 hr 53 min 01 sec)
Heartbeat CPU 2 instructions: 120000001 cycles: 95110297 heartbeat IPC: 0.3625 cumulative IPC: 0.3351 (Simulation time: 00 hr 56 min 18 sec)
Heartbeat CPU 3 instructions: 70000001 cycles: 98980151 heartbeat IPC: 0.2785 cumulative IPC: 0.2672 (Simulation time: 00 hr 58 min 13 sec)
Heartbeat CPU 1 instructions: 130000003 cycles: 109984430 heartbeat IPC: 0.4639 cumulative IPC: 0.439 (Simulation time: 01 hr 03 min 33 sec)
Heartbeat CPU 0 instructions: 130000001 cycles: 114357339 heartbeat IPC: 0.3717 cumulative IPC: 0.3741 (Simulation time: 01 hr 05 min 37 sec)
Heartbeat CPU 2 instructions: 130000002 cycles: 131056630 heartbeat IPC: 0.2782 cumulative IPC: 0.316 (Simulation time: 01 hr 13 min 39 sec)
Heartbeat CPU 1 instructions: 140000003 cycles: 133575878 heartbeat IPC: 0.4239 cumulative IPC: 0.4357 (Simulation time: 01 hr 14 min 52 sec)
Heartbeat CPU 3 instructions: 80000001 cycles: 137179332 heartbeat IPC: 0.2618 cumulative IPC: 0.2653 (Simulation time: 01 hr 16 min 33 sec)
Heartbeat CPU 0 instructions: 140000004 cycles: 143766471 heartbeat IPC: 0.34 cumulative IPC: 0.3657 (Simulation time: 01 hr 19 min 39 sec)
Heartbeat CPU 1 instructions: 150000001 cycles: 156792848 heartbeat IPC: 0.4307 cumulative IPC: 0.4348 (Simulation time: 01 hr 25 min 40 sec)
Heartbeat CPU 2 instructions: 140000000 cycles: 163808707 heartbeat IPC: 0.3053 cumulative IPC: 0.3135 (Simulation time: 01 hr 28 min 56 sec)
Heartbeat CPU 0 instructions: 150000003 cycles: 168892078 heartbeat IPC: 0.398 cumulative IPC: 0.3713 (Simulation time: 01 hr 31 min 23 sec)
Heartbeat CPU 3 instructions: 90000004 cycles: 174729630 heartbeat IPC: 0.2663 cumulative IPC: 0.2656 (Simulation time: 01 hr 34 min 09 sec)
Heartbeat CPU 1 instructions: 160000000 cycles: 180439112 heartbeat IPC: 0.4229 cumulative IPC: 0.433 (Simulation time: 01 hr 36 min 52 sec)
Heartbeat CPU 0 instructions: 160000003 cycles: 190841353 heartbeat IPC: 0.4556 cumulative IPC: 0.3824 (Simulation time: 01 hr 41 min 39 sec)
Heartbeat CPU 2 instructions: 150000001 cycles: 191727447 heartbeat IPC: 0.3582 cumulative IPC: 0.3209 (Simulation time: 01 hr 42 min 03 sec)
Heartbeat CPU 1 instructions: 170000003 cycles: 203627911 heartbeat IPC: 0.4312 cumulative IPC: 0.4328 (Simulation time: 01 hr 47 min 44 sec)
Heartbeat CPU 3 instructions: 100000003 cycles: 210825805 heartbeat IPC: 0.277 cumulative IPC: 0.2678 (Simulation time: 01 hr 51 min 08 sec)
Heartbeat CPU 0 instructions: 170000000 cycles: 212426708 heartbeat IPC: 0.4633 cumulative IPC: 0.3917 (Simulation time: 01 hr 51 min 53 sec)
Heartbeat CPU 2 instructions: 160000004 cycles: 216033964 heartbeat IPC: 0.4114 cumulative IPC: 0.3324 (Simulation time: 01 hr 53 min 38 sec)
Heartbeat CPU 1 instructions: 180000002 cycles: 227525292 heartbeat IPC: 0.4185 cumulative IPC: 0.4311 (Simulation time: 01 hr 59 min 08 sec)
Heartbeat CPU 2 instructions: 170000002 cycles: 229255467 heartbeat IPC: 0.7563 cumulative IPC: 0.3597 (Simulation time: 02 hr 00 min 00 sec)
Heartbeat CPU 0 instructions: 180000000 cycles: 238154054 heartbeat IPC: 0.3887 cumulative IPC: 0.3913 (Simulation time: 02 hr 04 min 16 sec)
Heartbeat CPU 2 instructions: 180000004 cycles: 246275046 heartbeat IPC: 0.5876 cumulative IPC: 0.3772 (Simulation time: 02 hr 08 min 03 sec)
Heartbeat CPU 3 instructions: 110000000 cycles: 249366413 heartbeat IPC: 0.2595 cumulative IPC: 0.2664 (Simulation time: 02 hr 09 min 35 sec)
Heartbeat CPU 1 instructions: 190000001 cycles: 251047794 heartbeat IPC: 0.4251 cumulative IPC: 0.4305 (Simulation time: 02 hr 10 min 26 sec)
Heartbeat CPU 0 instructions: 190000002 cycles: 260225354 heartbeat IPC: 0.4531 cumulative IPC: 0.3971 (Simulation time: 02 hr 14 min 59 sec)
Heartbeat CPU 2 instructions: 190000003 cycles: 264428991 heartbeat IPC: 0.5508 cumulative IPC: 0.3903 (Simulation time: 02 hr 17 min 03 sec)
Heartbeat CPU 1 instructions: 200000003 cycles: 270513736 heartbeat IPC: 0.5137 cumulative IPC: 0.4371 (Simulation time: 02 hr 19 min 56 sec)
Heartbeat CPU 0 instructions: 200000001 cycles: 278450024 heartbeat IPC: 0.5487 cumulative IPC: 0.408 (Simulation time: 02 hr 24 min 07 sec)
Heartbeat CPU 3 instructions: 120000002 cycles: 279201121 heartbeat IPC: 0.3352 cumulative IPC: 0.2744 (Simulation time: 02 hr 24 min 30 sec)
Heartbeat CPU 2 instructions: 200000001 cycles: 282726078 heartbeat IPC: 0.5465 cumulative IPC: 0.4013 (Simulation time: 02 hr 26 min 14 sec)
Heartbeat CPU 1 instructions: 210000003 cycles: 284553331 heartbeat IPC: 0.7123 cumulative IPC: 0.4519 (Simulation time: 02 hr 27 min 10 sec)
Heartbeat CPU 0 instructions: 210000003 cycles: 295212191 heartbeat IPC: 0.5966 cumulative IPC: 0.4196 (Simulation time: 02 hr 32 min 38 sec)
Heartbeat CPU 1 instructions: 220000001 cycles: 298792901 heartbeat IPC: 0.7023 cumulative IPC: 0.4649 (Simulation time: 02 hr 34 min 25 sec)
Heartbeat CPU 2 instructions: 210000001 cycles: 300160333 heartbeat IPC: 0.5736 cumulative IPC: 0.4122 (Simulation time: 02 hr 35 min 08 sec)
Heartbeat CPU 3 instructions: 130000000 cycles: 307432230 heartbeat IPC: 0.3542 cumulative IPC: 0.2824 (Simulation time: 02 hr 39 min 00 sec)
Heartbeat CPU 0 instructions: 220000004 cycles: 311950991 heartbeat IPC: 0.5974 cumulative IPC: 0.43 (Simulation time: 02 hr 41 min 28 sec)
Heartbeat CPU 1 instructions: 230000002 cycles: 313022591 heartbeat IPC: 0.7028 cumulative IPC: 0.4766 (Simulation time: 02 hr 41 min 59 sec)
Heartbeat CPU 2 instructions: 220000003 cycles: 317647375 heartbeat IPC: 0.5719 cumulative IPC: 0.4217 (Simulation time: 02 hr 44 min 28 sec)
Heartbeat CPU 0 instructions: 230000003 cycles: 330700032 heartbeat IPC: 0.5334 cumulative IPC: 0.4363 (Simulation time: 02 hr 50 min 46 sec)
Heartbeat CPU 1 instructions: 240000000 cycles: 335322621 heartbeat IPC: 0.4484 cumulative IPC: 0.4746 (Simulation time: 02 hr 53 min 02 sec)
Heartbeat CPU 2 instructions: 230000000 cycles: 338777302 heartbeat IPC: 0.4733 cumulative IPC: 0.4252 (Simulation time: 02 hr 54 min 49 sec)
Heartbeat CPU 3 instructions: 140000004 cycles: 339752114 heartbeat IPC: 0.3094 cumulative IPC: 0.2851 (Simulation time: 02 hr 55 min 20 sec)
Simulation finished CPU 1 instructions: 150000004 cycles: 317140002 cumulative IPC: 0.473 (Simulation time: 02 hr 56 min 09 sec)
Heartbeat CPU 0 instructions: 240000001 cycles: 350226147 heartbeat IPC: 0.5121 cumulative IPC: 0.4408 (Simulation time: 03 hr 00 min 48 sec)
Heartbeat CPU 1 instructions: 250000003 cycles: 355653419 heartbeat IPC: 0.4919 cumulative IPC: 0.4756 (Simulation time: 03 hr 03 min 25 sec)
Heartbeat CPU 2 instructions: 240000003 cycles: 357492701 heartbeat IPC: 0.5343 cumulative IPC: 0.4313 (Simulation time: 03 hr 04 min 17 sec)
Simulation finished CPU 0 instructions: 150000002 cycles: 337180248 cumulative IPC: 0.4449 (Simulation time: 03 hr 06 min 13 sec)
Simulation finished CPU 2 instructions: 150000003 cycles: 344787802 cumulative IPC: 0.4351 (Simulation time: 03 hr 09 min 54 sec)
Heartbeat CPU 0 instructions: 250000001 cycles: 368913107 heartbeat IPC: 0.5351 cumulative IPC: 0.4459 (Simulation time: 03 hr 09 min 54 sec)
Heartbeat CPU 3 instructions: 150000001 cycles: 369366500 heartbeat IPC: 0.3377 cumulative IPC: 0.2896 (Simulation time: 03 hr 10 min 09 sec)
Heartbeat CPU 1 instructions: 260000003 cycles: 373910523 heartbeat IPC: 0.5477 cumulative IPC: 0.4794 (Simulation time: 03 hr 12 min 18 sec)
Heartbeat CPU 2 instructions: 250000003 cycles: 375804882 heartbeat IPC: 0.5461 cumulative IPC: 0.4373 (Simulation time: 03 hr 13 min 18 sec)
Heartbeat CPU 1 instructions: 270000003 cycles: 393341571 heartbeat IPC: 0.5146 cumulative IPC: 0.4813 (Simulation time: 03 hr 21 min 31 sec)
Heartbeat CPU 0 instructions: 260000002 cycles: 395699863 heartbeat IPC: 0.3733 cumulative IPC: 0.4407 (Simulation time: 03 hr 22 min 32 sec)
Heartbeat CPU 2 instructions: 260000002 cycles: 402731335 heartbeat IPC: 0.3714 cumulative IPC: 0.4326 (Simulation time: 03 hr 25 min 39 sec)
Heartbeat CPU 3 instructions: 160000003 cycles: 409228369 heartbeat IPC: 0.2509 cumulative IPC: 0.2856 (Simulation time: 03 hr 28 min 34 sec)
Heartbeat CPU 0 instructions: 270000001 cycles: 424719036 heartbeat IPC: 0.3446 cumulative IPC: 0.4338 (Simulation time: 03 hr 36 min 00 sec)
Heartbeat CPU 1 instructions: 280000004 cycles: 427008583 heartbeat IPC: 0.297 cumulative IPC: 0.4659 (Simulation time: 03 hr 37 min 07 sec)
Heartbeat CPU 2 instructions: 270000000 cycles: 427136808 heartbeat IPC: 0.4097 cumulative IPC: 0.4312 (Simulation time: 03 hr 37 min 10 sec)
Heartbeat CPU 3 instructions: 170000001 cycles: 445295177 heartbeat IPC: 0.2773 cumulative IPC: 0.2849 (Simulation time: 03 hr 45 min 56 sec)
Heartbeat CPU 2 instructions: 280000000 cycles: 448189132 heartbeat IPC: 0.475 cumulative IPC: 0.4334 (Simulation time: 03 hr 47 min 18 sec)
Heartbeat CPU 0 instructions: 280000000 cycles: 450192813 heartbeat IPC: 0.3926 cumulative IPC: 0.4313 (Simulation time: 03 hr 48 min 18 sec)
Heartbeat CPU 1 instructions: 290000004 cycles: 450247800 heartbeat IPC: 0.4303 cumulative IPC: 0.4639 (Simulation time: 03 hr 48 min 19 sec)
Heartbeat CPU 2 instructions: 290000002 cycles: 469424227 heartbeat IPC: 0.4709 cumulative IPC: 0.4352 (Simulation time: 03 hr 57 min 20 sec)
Heartbeat CPU 1 instructions: 300000003 cycles: 473904389 heartbeat IPC: 0.4227 cumulative IPC: 0.4618 (Simulation time: 03 hr 59 min 32 sec)
Heartbeat CPU 0 instructions: 290000002 cycles: 478826019 heartbeat IPC: 0.3492 cumulative IPC: 0.4261 (Simulation time: 04 hr 02 min 01 sec)
Heartbeat CPU 3 instructions: 180000000 cycles: 479816102 heartbeat IPC: 0.2897 cumulative IPC: 0.2853 (Simulation time: 04 hr 02 min 29 sec)
Heartbeat CPU 2 instructions: 300000002 cycles: 484728933 heartbeat IPC: 0.6534 cumulative IPC: 0.4424 (Simulation time: 04 hr 05 min 05 sec)
Heartbeat CPU 1 instructions: 310000001 cycles: 493149267 heartbeat IPC: 0.5196 cumulative IPC: 0.4641 (Simulation time: 04 hr 09 min 26 sec)
Heartbeat CPU 2 instructions: 310000000 cycles: 499576801 heartbeat IPC: 0.6735 cumulative IPC: 0.4496 (Simulation time: 04 hr 12 min 43 sec)
Heartbeat CPU 0 instructions: 300000001 cycles: 500539817 heartbeat IPC: 0.4605 cumulative IPC: 0.4277 (Simulation time: 04 hr 13 min 11 sec)
Heartbeat CPU 3 instructions: 190000000 cycles: 509449458 heartbeat IPC: 0.3375 cumulative IPC: 0.2885 (Simulation time: 04 hr 17 min 50 sec)
Heartbeat CPU 1 instructions: 320000000 cycles: 512327307 heartbeat IPC: 0.5214 cumulative IPC: 0.4664 (Simulation time: 04 hr 19 min 19 sec)
Heartbeat CPU 2 instructions: 320000002 cycles: 515996589 heartbeat IPC: 0.609 cumulative IPC: 0.455 (Simulation time: 04 hr 21 min 08 sec)
Heartbeat CPU 0 instructions: 310000003 cycles: 524182239 heartbeat IPC: 0.423 cumulative IPC: 0.4275 (Simulation time: 04 hr 25 min 05 sec)
Heartbeat CPU 1 instructions: 330000000 cycles: 535180388 heartbeat IPC: 0.4376 cumulative IPC: 0.4651 (Simulation time: 04 hr 30 min 28 sec)
Heartbeat CPU 2 instructions: 330000004 cycles: 542093022 heartbeat IPC: 0.3832 cumulative IPC: 0.4514 (Simulation time: 04 hr 33 min 52 sec)
Heartbeat CPU 3 instructions: 200000004 cycles: 543614481 heartbeat IPC: 0.2927 cumulative IPC: 0.2887 (Simulation time: 04 hr 34 min 38 sec)
Simulation finished CPU 3 instructions: 150000003 cycles: 519495721 cumulative IPC: 0.2887 (Simulation time: 04 hr 34 min 38 sec)
Simulation complete CPU 0 instructions: 222527345 cycles: 519495721 cumulative IPC: 0.4284 (Simulation time: 04 hr 34 min 38 sec)
Simulation complete CPU 1 instructions: 241957861 cycles: 519495721 cumulative IPC: 0.4658 (Simulation time: 04 hr 34 min 38 sec)
Simulation complete CPU 2 instructions: 234618551 cycles: 519495721 cumulative IPC: 0.4516 (Simulation time: 04 hr 34 min 38 sec)
Simulation complete CPU 3 instructions: 150000003 cycles: 519495721 cumulative IPC: 0.2887 (Simulation time: 04 hr 34 min 38 sec)

ChampSim completed all CPUs

=== Simulation ===
CPU 0 runs /home/das/traces4_champsim/481.wrf-196B.champsimtrace.xzCPU 1 runs /home/das/traces4_champsim/481.wrf-1281B.champsimtrace.xzCPU 2 runs /home/das/traces4_champsim/481.wrf-816B.champsimtrace.xzCPU 3 runs /home/das/traces4_champsim/649.fotonik3d_s-10881B.champsimtrace.xz
Total Simulation Statistics (not including warmup)

CPU 0 cumulative IPC: 0.4284 instructions: 222527345 cycles: 519495721
CPU 0 Branch Prediction Accuracy: 99.95% MPKI: 0.01777 Average ROB Occupancy at Mispredict: 323.5
Branch type MPKI
BRANCH_DIRECT_JUMP: 0.000238
BRANCH_INDIRECT: 0
BRANCH_CONDITIONAL: 0.0174
BRANCH_DIRECT_CALL: 8.54e-05
BRANCH_INDIRECT_CALL: 0
BRANCH_RETURN: 6.74e-05


CPU 1 cumulative IPC: 0.4658 instructions: 241957861 cycles: 519495721
CPU 1 Branch Prediction Accuracy: 99.95% MPKI: 0.02438 Average ROB Occupancy at Mispredict: 308.8
Branch type MPKI
BRANCH_DIRECT_JUMP: 0.000302
BRANCH_INDIRECT: 0
BRANCH_CONDITIONAL: 0.0238
BRANCH_DIRECT_CALL: 0.000141
BRANCH_INDIRECT_CALL: 0
BRANCH_RETURN: 0.000141


CPU 2 cumulative IPC: 0.4516 instructions: 234618551 cycles: 519495721
CPU 2 Branch Prediction Accuracy: 99.95% MPKI: 0.02233 Average ROB Occupancy at Mispredict: 318.9
Branch type MPKI
BRANCH_DIRECT_JUMP: 0.000303
BRANCH_INDIRECT: 0
BRANCH_CONDITIONAL: 0.0218
BRANCH_DIRECT_CALL: 0.000115
BRANCH_INDIRECT_CALL: 0
BRANCH_RETURN: 0.000115


CPU 3 cumulative IPC: 0.2887 instructions: 150000003 cycles: 519495721
CPU 3 Branch Prediction Accuracy: 99.99% MPKI: 0.0008267 Average ROB Occupancy at Mispredict: 350.8
Branch type MPKI
BRANCH_DIRECT_JUMP: 0
BRANCH_INDIRECT: 0
BRANCH_CONDITIONAL: 0.000827
BRANCH_DIRECT_CALL: 0
BRANCH_INDIRECT_CALL: 0
BRANCH_RETURN: 0

LLC TOTAL        ACCESS:    1226508 HIT:     290852 MISS:     935656
LLC LOAD         ACCESS:     929167 HIT:      10825 MISS:     918342
LLC RFO          ACCESS:       3281 HIT:         10 MISS:       3271
LLC PREFETCH     ACCESS:          0 HIT:          0 MISS:          0
LLC WRITE        ACCESS:     293276 HIT:     279962 MISS:      13314
LLC TRANSLATION  ACCESS:        784 HIT:         55 MISS:        729
LLC PREFETCH REQUESTED:          0 ISSUED:          0 USEFUL:          0 USELESS:          0
LLC AVERAGE MISS LATENCY: 1158 cycles
LLC TOTAL        ACCESS:    2034851 HIT:     479391 MISS:    1555460
LLC LOAD         ACCESS:    1417455 HIT:      24780 MISS:    1392675
LLC RFO          ACCESS:     159684 HIT:       2122 MISS:     157562
LLC PREFETCH     ACCESS:          0 HIT:          0 MISS:          0
LLC WRITE        ACCESS:     455142 HIT:     451985 MISS:       3157
LLC TRANSLATION  ACCESS:       2570 HIT:        504 MISS:       2066
LLC PREFETCH REQUESTED:          0 ISSUED:          0 USEFUL:          0 USELESS:          0
LLC AVERAGE MISS LATENCY: 1158 cycles
LLC TOTAL        ACCESS:    2616798 HIT:     728749 MISS:    1888049
LLC LOAD         ACCESS:    1467184 HIT:      19557 MISS:    1447627
LLC RFO          ACCESS:     439244 HIT:       3509 MISS:     435735
LLC PREFETCH     ACCESS:          0 HIT:          0 MISS:          0
LLC WRITE        ACCESS:     707953 HIT:     705193 MISS:       2760
LLC TRANSLATION  ACCESS:       2417 HIT:        490 MISS:       1927
LLC PREFETCH REQUESTED:          0 ISSUED:          0 USEFUL:          0 USELESS:          0
LLC AVERAGE MISS LATENCY: 1158 cycles
LLC TOTAL        ACCESS:    4369636 HIT:    2040577 MISS:    2329059
LLC LOAD         ACCESS:    2885979 HIT:     580987 MISS:    2304992
LLC RFO          ACCESS:          0 HIT:          0 MISS:          0
LLC PREFETCH     ACCESS:          0 HIT:          0 MISS:          0
LLC WRITE        ACCESS:    1457209 HIT:    1457176 MISS:         33
LLC TRANSLATION  ACCESS:      26448 HIT:       2414 MISS:      24034
LLC PREFETCH REQUESTED:          0 ISSUED:          0 USEFUL:          0 USELESS:          0
LLC AVERAGE MISS LATENCY: 1158 cycles
cpu0_DTLB TOTAL        ACCESS:   28485038 HIT:   28452113 MISS:      32925
cpu0_DTLB LOAD         ACCESS:   28485038 HIT:   28452113 MISS:      32925
cpu0_DTLB RFO          ACCESS:          0 HIT:          0 MISS:          0
cpu0_DTLB PREFETCH     ACCESS:          0 HIT:          0 MISS:          0
cpu0_DTLB WRITE        ACCESS:          0 HIT:          0 MISS:          0
cpu0_DTLB TRANSLATION  ACCESS:          0 HIT:          0 MISS:          0
cpu0_DTLB PREFETCH REQUESTED:          0 ISSUED:          0 USEFUL:          0 USELESS:          0
cpu0_DTLB AVERAGE MISS LATENCY: 40.01 cycles
cpu0_DTLB TOTAL        ACCESS:          0 HIT:          0 MISS:          0
cpu0_DTLB LOAD         ACCESS:          0 HIT:          0 MISS:          0
cpu0_DTLB RFO          ACCESS:          0 HIT:          0 MISS:          0
cpu0_DTLB PREFETCH     ACCESS:          0 HIT:          0 MISS:          0
cpu0_DTLB WRITE        ACCESS:          0 HIT:          0 MISS:          0
cpu0_DTLB TRANSLATION  ACCESS:          0 HIT:          0 MISS:          0
cpu0_DTLB PREFETCH REQUESTED:          0 ISSUED:          0 USEFUL:          0 USELESS:          0
cpu0_DTLB AVERAGE MISS LATENCY: 40.01 cycles
cpu0_DTLB TOTAL        ACCESS:          0 HIT:          0 MISS:          0
cpu0_DTLB LOAD         ACCESS:          0 HIT:          0 MISS:          0
cpu0_DTLB RFO          ACCESS:          0 HIT:          0 MISS:          0
cpu0_DTLB PREFETCH     ACCESS:          0 HIT:          0 MISS:          0
cpu0_DTLB WRITE        ACCESS:          0 HIT:          0 MISS:          0
cpu0_DTLB TRANSLATION  ACCESS:          0 HIT:          0 MISS:          0
cpu0_DTLB PREFETCH REQUESTED:          0 ISSUED:          0 USEFUL:          0 USELESS:          0
cpu0_DTLB AVERAGE MISS LATENCY: 40.01 cycles
cpu0_DTLB TOTAL        ACCESS:          0 HIT:          0 MISS:          0
cpu0_DTLB LOAD         ACCESS:          0 HIT:          0 MISS:          0
cpu0_DTLB RFO          ACCESS:          0 HIT:          0 MISS:          0
cpu0_DTLB PREFETCH     ACCESS:          0 HIT:          0 MISS:          0
cpu0_DTLB WRITE        ACCESS:          0 HIT:          0 MISS:          0
cpu0_DTLB TRANSLATION  ACCESS:          0 HIT:          0 MISS:          0
cpu0_DTLB PREFETCH REQUESTED:          0 ISSUED:          0 USEFUL:          0 USELESS:          0
cpu0_DTLB AVERAGE MISS LATENCY: 40.01 cycles
cpu0_ITLB TOTAL        ACCESS:      19580 HIT:      19473 MISS:        107
cpu0_ITLB LOAD         ACCESS:      19580 HIT:      19473 MISS:        107
cpu0_ITLB RFO          ACCESS:          0 HIT:          0 MISS:          0
cpu0_ITLB PREFETCH     ACCESS:          0 HIT:          0 MISS:          0
cpu0_ITLB WRITE        ACCESS:          0 HIT:          0 MISS:          0
cpu0_ITLB TRANSLATION  ACCESS:          0 HIT:          0 MISS:          0
cpu0_ITLB PREFETCH REQUESTED:          0 ISSUED:          0 USEFUL:          0 USELESS:          0
cpu0_ITLB AVERAGE MISS LATENCY: 304.3 cycles
cpu0_ITLB TOTAL        ACCESS:          0 HIT:          0 MISS:          0
cpu0_ITLB LOAD         ACCESS:          0 HIT:          0 MISS:          0
cpu0_ITLB RFO          ACCESS:          0 HIT:          0 MISS:          0
cpu0_ITLB PREFETCH     ACCESS:          0 HIT:          0 MISS:          0
cpu0_ITLB WRITE        ACCESS:          0 HIT:          0 MISS:          0
cpu0_ITLB TRANSLATION  ACCESS:          0 HIT:          0 MISS:          0
cpu0_ITLB PREFETCH REQUESTED:          0 ISSUED:          0 USEFUL:          0 USELESS:          0
cpu0_ITLB AVERAGE MISS LATENCY: 304.3 cycles
cpu0_ITLB TOTAL        ACCESS:          0 HIT:          0 MISS:          0
cpu0_ITLB LOAD         ACCESS:          0 HIT:          0 MISS:          0
cpu0_ITLB RFO          ACCESS:          0 HIT:          0 MISS:          0
cpu0_ITLB PREFETCH     ACCESS:          0 HIT:          0 MISS:          0
cpu0_ITLB WRITE        ACCESS:          0 HIT:          0 MISS:          0
cpu0_ITLB TRANSLATION  ACCESS:          0 HIT:          0 MISS:          0
cpu0_ITLB PREFETCH REQUESTED:          0 ISSUED:          0 USEFUL:          0 USELESS:          0
cpu0_ITLB AVERAGE MISS LATENCY: 304.3 cycles
cpu0_ITLB TOTAL        ACCESS:          0 HIT:          0 MISS:          0
cpu0_ITLB LOAD         ACCESS:          0 HIT:          0 MISS:          0
cpu0_ITLB RFO          ACCESS:          0 HIT:          0 MISS:          0
cpu0_ITLB PREFETCH     ACCESS:          0 HIT:          0 MISS:          0
cpu0_ITLB WRITE        ACCESS:          0 HIT:          0 MISS:          0
cpu0_ITLB TRANSLATION  ACCESS:          0 HIT:          0 MISS:          0
cpu0_ITLB PREFETCH REQUESTED:          0 ISSUED:          0 USEFUL:          0 USELESS:          0
cpu0_ITLB AVERAGE MISS LATENCY: 304.3 cycles
cpu0_L1D TOTAL        ACCESS:   34873407 HIT:   30023538 MISS:    4849869
cpu0_L1D LOAD         ACCESS:   24030928 HIT:   19314987 MISS:    4715941
cpu0_L1D RFO          ACCESS:          0 HIT:          0 MISS:          0
cpu0_L1D PREFETCH     ACCESS:          0 HIT:          0 MISS:          0
cpu0_L1D WRITE        ACCESS:   10832909 HIT:   10702656 MISS:     130253
cpu0_L1D TRANSLATION  ACCESS:       9570 HIT:       5895 MISS:       3675
cpu0_L1D PREFETCH REQUESTED:          0 ISSUED:          0 USEFUL:          0 USELESS:          0
cpu0_L1D AVERAGE MISS LATENCY: 149.9 cycles
cpu0_L1D TOTAL        ACCESS:          0 HIT:          0 MISS:          0
cpu0_L1D LOAD         ACCESS:          0 HIT:          0 MISS:          0
cpu0_L1D RFO          ACCESS:          0 HIT:          0 MISS:          0
cpu0_L1D PREFETCH     ACCESS:          0 HIT:          0 MISS:          0
cpu0_L1D WRITE        ACCESS:          0 HIT:          0 MISS:          0
cpu0_L1D TRANSLATION  ACCESS:          0 HIT:          0 MISS:          0
cpu0_L1D PREFETCH REQUESTED:          0 ISSUED:          0 USEFUL:          0 USELESS:          0
cpu0_L1D AVERAGE MISS LATENCY: 149.9 cycles
cpu0_L1D TOTAL        ACCESS:          0 HIT:          0 MISS:          0
cpu0_L1D LOAD         ACCESS:          0 HIT:          0 MISS:          0
cpu0_L1D RFO          ACCESS:          0 HIT:          0 MISS:          0
cpu0_L1D PREFETCH     ACCESS:          0 HIT:          0 MISS:          0
cpu0_L1D WRITE        ACCESS:          0 HIT:          0 MISS:          0
cpu0_L1D TRANSLATION  ACCESS:          0 HIT:          0 MISS:          0
cpu0_L1D PREFETCH REQUESTED:          0 ISSUED:          0 USEFUL:          0 USELESS:          0
cpu0_L1D AVERAGE MISS LATENCY: 149.9 cycles
cpu0_L1D TOTAL        ACCESS:          0 HIT:          0 MISS:          0
cpu0_L1D LOAD         ACCESS:          0 HIT:          0 MISS:          0
cpu0_L1D RFO          ACCESS:          0 HIT:          0 MISS:          0
cpu0_L1D PREFETCH     ACCESS:          0 HIT:          0 MISS:          0
cpu0_L1D WRITE        ACCESS:          0 HIT:          0 MISS:          0
cpu0_L1D TRANSLATION  ACCESS:          0 HIT:          0 MISS:          0
cpu0_L1D PREFETCH REQUESTED:          0 ISSUED:          0 USEFUL:          0 USELESS:          0
cpu0_L1D AVERAGE MISS LATENCY: 149.9 cycles
cpu0_L1I TOTAL        ACCESS:      26486 HIT:      25554 MISS:        932
cpu0_L1I LOAD         ACCESS:      26486 HIT:      25554 MISS:        932
cpu0_L1I RFO          ACCESS:          0 HIT:          0 MISS:          0
cpu0_L1I PREFETCH     ACCESS:          0 HIT:          0 MISS:          0
cpu0_L1I WRITE        ACCESS:          0 HIT:          0 MISS:          0
cpu0_L1I TRANSLATION  ACCESS:          0 HIT:          0 MISS:          0
cpu0_L1I PREFETCH REQUESTED:          0 ISSUED:          0 USEFUL:          0 USELESS:          0
cpu0_L1I AVERAGE MISS LATENCY: 943.6 cycles
cpu0_L1I TOTAL        ACCESS:          0 HIT:          0 MISS:          0
cpu0_L1I LOAD         ACCESS:          0 HIT:          0 MISS:          0
cpu0_L1I RFO          ACCESS:          0 HIT:          0 MISS:          0
cpu0_L1I PREFETCH     ACCESS:          0 HIT:          0 MISS:          0
cpu0_L1I WRITE        ACCESS:          0 HIT:          0 MISS:          0
cpu0_L1I TRANSLATION  ACCESS:          0 HIT:          0 MISS:          0
cpu0_L1I PREFETCH REQUESTED:          0 ISSUED:          0 USEFUL:          0 USELESS:          0
cpu0_L1I AVERAGE MISS LATENCY: 943.6 cycles
cpu0_L1I TOTAL        ACCESS:          0 HIT:          0 MISS:          0
cpu0_L1I LOAD         ACCESS:          0 HIT:          0 MISS:          0
cpu0_L1I RFO          ACCESS:          0 HIT:          0 MISS:          0
cpu0_L1I PREFETCH     ACCESS:          0 HIT:          0 MISS:          0
cpu0_L1I WRITE        ACCESS:          0 HIT:          0 MISS:          0
cpu0_L1I TRANSLATION  ACCESS:          0 HIT:          0 MISS:          0
cpu0_L1I PREFETCH REQUESTED:          0 ISSUED:          0 USEFUL:          0 USELESS:          0
cpu0_L1I AVERAGE MISS LATENCY: 943.6 cycles
cpu0_L1I TOTAL        ACCESS:          0 HIT:          0 MISS:          0
cpu0_L1I LOAD         ACCESS:          0 HIT:          0 MISS:          0
cpu0_L1I RFO          ACCESS:          0 HIT:          0 MISS:          0
cpu0_L1I PREFETCH     ACCESS:          0 HIT:          0 MISS:          0
cpu0_L1I WRITE        ACCESS:          0 HIT:          0 MISS:          0
cpu0_L1I TRANSLATION  ACCESS:          0 HIT:          0 MISS:          0
cpu0_L1I PREFETCH REQUESTED:          0 ISSUED:          0 USEFUL:          0 USELESS:          0
cpu0_L1I AVERAGE MISS LATENCY: 943.6 cycles
cpu0_L2C TOTAL        ACCESS:    2384133 HIT:    1450784 MISS:     933349
cpu0_L2C LOAD         ACCESS:    1806277 HIT:     877110 MISS:     929167
cpu0_L2C RFO          ACCESS:      66514 HIT:      63233 MISS:       3281
cpu0_L2C PREFETCH     ACCESS:          0 HIT:          0 MISS:          0
cpu0_L2C WRITE        ACCESS:     507669 HIT:     507552 MISS:        117
cpu0_L2C TRANSLATION  ACCESS:       3673 HIT:       2889 MISS:        784
cpu0_L2C PREFETCH REQUESTED:          0 ISSUED:          0 USEFUL:          0 USELESS:          0
cpu0_L2C AVERAGE MISS LATENCY: 1088 cycles
cpu0_L2C TOTAL        ACCESS:          0 HIT:          0 MISS:          0
cpu0_L2C LOAD         ACCESS:          0 HIT:          0 MISS:          0
cpu0_L2C RFO          ACCESS:          0 HIT:          0 MISS:          0
cpu0_L2C PREFETCH     ACCESS:          0 HIT:          0 MISS:          0
cpu0_L2C WRITE        ACCESS:          0 HIT:          0 MISS:          0
cpu0_L2C TRANSLATION  ACCESS:          0 HIT:          0 MISS:          0
cpu0_L2C PREFETCH REQUESTED:          0 ISSUED:          0 USEFUL:          0 USELESS:          0
cpu0_L2C AVERAGE MISS LATENCY: 1088 cycles
cpu0_L2C TOTAL        ACCESS:          0 HIT:          0 MISS:          0
cpu0_L2C LOAD         ACCESS:          0 HIT:          0 MISS:          0
cpu0_L2C RFO          ACCESS:          0 HIT:          0 MISS:          0
cpu0_L2C PREFETCH     ACCESS:          0 HIT:          0 MISS:          0
cpu0_L2C WRITE        ACCESS:          0 HIT:          0 MISS:          0
cpu0_L2C TRANSLATION  ACCESS:          0 HIT:          0 MISS:          0
cpu0_L2C PREFETCH REQUESTED:          0 ISSUED:          0 USEFUL:          0 USELESS:          0
cpu0_L2C AVERAGE MISS LATENCY: 1088 cycles
cpu0_L2C TOTAL        ACCESS:          0 HIT:          0 MISS:          0
cpu0_L2C LOAD         ACCESS:          0 HIT:          0 MISS:          0
cpu0_L2C RFO          ACCESS:          0 HIT:          0 MISS:          0
cpu0_L2C PREFETCH     ACCESS:          0 HIT:          0 MISS:          0
cpu0_L2C WRITE        ACCESS:          0 HIT:          0 MISS:          0
cpu0_L2C TRANSLATION  ACCESS:          0 HIT:          0 MISS:          0
cpu0_L2C PREFETCH REQUESTED:          0 ISSUED:          0 USEFUL:          0 USELESS:          0
cpu0_L2C AVERAGE MISS LATENCY: 1088 cycles
cpu0_STLB TOTAL        ACCESS:      19816 HIT:      10264 MISS:       9552
cpu0_STLB LOAD         ACCESS:      19816 HIT:      10264 MISS:       9552
cpu0_STLB RFO          ACCESS:          0 HIT:          0 MISS:          0
cpu0_STLB PREFETCH     ACCESS:          0 HIT:          0 MISS:          0
cpu0_STLB WRITE        ACCESS:          0 HIT:          0 MISS:          0
cpu0_STLB TRANSLATION  ACCESS:          0 HIT:          0 MISS:          0
cpu0_STLB PREFETCH REQUESTED:          0 ISSUED:          0 USEFUL:          0 USELESS:          0
cpu0_STLB AVERAGE MISS LATENCY: 181.2 cycles
cpu0_STLB TOTAL        ACCESS:          0 HIT:          0 MISS:          0
cpu0_STLB LOAD         ACCESS:          0 HIT:          0 MISS:          0
cpu0_STLB RFO          ACCESS:          0 HIT:          0 MISS:          0
cpu0_STLB PREFETCH     ACCESS:          0 HIT:          0 MISS:          0
cpu0_STLB WRITE        ACCESS:          0 HIT:          0 MISS:          0
cpu0_STLB TRANSLATION  ACCESS:          0 HIT:          0 MISS:          0
cpu0_STLB PREFETCH REQUESTED:          0 ISSUED:          0 USEFUL:          0 USELESS:          0
cpu0_STLB AVERAGE MISS LATENCY: 181.2 cycles
cpu0_STLB TOTAL        ACCESS:          0 HIT:          0 MISS:          0
cpu0_STLB LOAD         ACCESS:          0 HIT:          0 MISS:          0
cpu0_STLB RFO          ACCESS:          0 HIT:          0 MISS:          0
cpu0_STLB PREFETCH     ACCESS:          0 HIT:          0 MISS:          0
cpu0_STLB WRITE        ACCESS:          0 HIT:          0 MISS:          0
cpu0_STLB TRANSLATION  ACCESS:          0 HIT:          0 MISS:          0
cpu0_STLB PREFETCH REQUESTED:          0 ISSUED:          0 USEFUL:          0 USELESS:          0
cpu0_STLB AVERAGE MISS LATENCY: 181.2 cycles
cpu0_STLB TOTAL        ACCESS:          0 HIT:          0 MISS:          0
cpu0_STLB LOAD         ACCESS:          0 HIT:          0 MISS:          0
cpu0_STLB RFO          ACCESS:          0 HIT:          0 MISS:          0
cpu0_STLB PREFETCH     ACCESS:          0 HIT:          0 MISS:          0
cpu0_STLB WRITE        ACCESS:          0 HIT:          0 MISS:          0
cpu0_STLB TRANSLATION  ACCESS:          0 HIT:          0 MISS:          0
cpu0_STLB PREFETCH REQUESTED:          0 ISSUED:          0 USEFUL:          0 USELESS:          0
cpu0_STLB AVERAGE MISS LATENCY: 181.2 cycles
cpu1_DTLB TOTAL        ACCESS:          0 HIT:          0 MISS:          0
cpu1_DTLB LOAD         ACCESS:          0 HIT:          0 MISS:          0
cpu1_DTLB RFO          ACCESS:          0 HIT:          0 MISS:          0
cpu1_DTLB PREFETCH     ACCESS:          0 HIT:          0 MISS:          0
cpu1_DTLB WRITE        ACCESS:          0 HIT:          0 MISS:          0
cpu1_DTLB TRANSLATION  ACCESS:          0 HIT:          0 MISS:          0
cpu1_DTLB PREFETCH REQUESTED:          0 ISSUED:          0 USEFUL:          0 USELESS:          0
cpu1_DTLB AVERAGE MISS LATENCY: 29.24 cycles
cpu1_DTLB TOTAL        ACCESS:   34884291 HIT:   34728832 MISS:     155459
cpu1_DTLB LOAD         ACCESS:   34884291 HIT:   34728832 MISS:     155459
cpu1_DTLB RFO          ACCESS:          0 HIT:          0 MISS:          0
cpu1_DTLB PREFETCH     ACCESS:          0 HIT:          0 MISS:          0
cpu1_DTLB WRITE        ACCESS:          0 HIT:          0 MISS:          0
cpu1_DTLB TRANSLATION  ACCESS:          0 HIT:          0 MISS:          0
cpu1_DTLB PREFETCH REQUESTED:          0 ISSUED:          0 USEFUL:          0 USELESS:          0
cpu1_DTLB AVERAGE MISS LATENCY: 29.24 cycles
cpu1_DTLB TOTAL        ACCESS:          0 HIT:          0 MISS:          0
cpu1_DTLB LOAD         ACCESS:          0 HIT:          0 MISS:          0
cpu1_DTLB RFO          ACCESS:          0 HIT:          0 MISS:          0
cpu1_DTLB PREFETCH     ACCESS:          0 HIT:          0 MISS:          0
cpu1_DTLB WRITE        ACCESS:          0 HIT:          0 MISS:          0
cpu1_DTLB TRANSLATION  ACCESS:          0 HIT:          0 MISS:          0
cpu1_DTLB PREFETCH REQUESTED:          0 ISSUED:          0 USEFUL:          0 USELESS:          0
cpu1_DTLB AVERAGE MISS LATENCY: 29.24 cycles
cpu1_DTLB TOTAL        ACCESS:          0 HIT:          0 MISS:          0
cpu1_DTLB LOAD         ACCESS:          0 HIT:          0 MISS:          0
cpu1_DTLB RFO          ACCESS:          0 HIT:          0 MISS:          0
cpu1_DTLB PREFETCH     ACCESS:          0 HIT:          0 MISS:          0
cpu1_DTLB WRITE        ACCESS:          0 HIT:          0 MISS:          0
cpu1_DTLB TRANSLATION  ACCESS:          0 HIT:          0 MISS:          0
cpu1_DTLB PREFETCH REQUESTED:          0 ISSUED:          0 USEFUL:          0 USELESS:          0
cpu1_DTLB AVERAGE MISS LATENCY: 29.24 cycles
cpu1_ITLB TOTAL        ACCESS:          0 HIT:          0 MISS:          0
cpu1_ITLB LOAD         ACCESS:          0 HIT:          0 MISS:          0
cpu1_ITLB RFO          ACCESS:          0 HIT:          0 MISS:          0
cpu1_ITLB PREFETCH     ACCESS:          0 HIT:          0 MISS:          0
cpu1_ITLB WRITE        ACCESS:          0 HIT:          0 MISS:          0
cpu1_ITLB TRANSLATION  ACCESS:          0 HIT:          0 MISS:          0
cpu1_ITLB PREFETCH REQUESTED:          0 ISSUED:          0 USEFUL:          0 USELESS:          0
cpu1_ITLB AVERAGE MISS LATENCY: 443.7 cycles
cpu1_ITLB TOTAL        ACCESS:      14358 HIT:      14303 MISS:         55
cpu1_ITLB LOAD         ACCESS:      14358 HIT:      14303 MISS:         55
cpu1_ITLB RFO          ACCESS:          0 HIT:          0 MISS:          0
cpu1_ITLB PREFETCH     ACCESS:          0 HIT:          0 MISS:          0
cpu1_ITLB WRITE        ACCESS:          0 HIT:          0 MISS:          0
cpu1_ITLB TRANSLATION  ACCESS:          0 HIT:          0 MISS:          0
cpu1_ITLB PREFETCH REQUESTED:          0 ISSUED:          0 USEFUL:          0 USELESS:          0
cpu1_ITLB AVERAGE MISS LATENCY: 443.7 cycles
cpu1_ITLB TOTAL        ACCESS:          0 HIT:          0 MISS:          0
cpu1_ITLB LOAD         ACCESS:          0 HIT:          0 MISS:          0
cpu1_ITLB RFO          ACCESS:          0 HIT:          0 MISS:          0
cpu1_ITLB PREFETCH     ACCESS:          0 HIT:          0 MISS:          0
cpu1_ITLB WRITE        ACCESS:          0 HIT:          0 MISS:          0
cpu1_ITLB TRANSLATION  ACCESS:          0 HIT:          0 MISS:          0
cpu1_ITLB PREFETCH REQUESTED:          0 ISSUED:          0 USEFUL:          0 USELESS:          0
cpu1_ITLB AVERAGE MISS LATENCY: 443.7 cycles
cpu1_ITLB TOTAL        ACCESS:          0 HIT:          0 MISS:          0
cpu1_ITLB LOAD         ACCESS:          0 HIT:          0 MISS:          0
cpu1_ITLB RFO          ACCESS:          0 HIT:          0 MISS:          0
cpu1_ITLB PREFETCH     ACCESS:          0 HIT:          0 MISS:          0
cpu1_ITLB WRITE        ACCESS:          0 HIT:          0 MISS:          0
cpu1_ITLB TRANSLATION  ACCESS:          0 HIT:          0 MISS:          0
cpu1_ITLB PREFETCH REQUESTED:          0 ISSUED:          0 USEFUL:          0 USELESS:          0
cpu1_ITLB AVERAGE MISS LATENCY: 443.7 cycles
cpu1_L1D TOTAL        ACCESS:          0 HIT:          0 MISS:          0
cpu1_L1D LOAD         ACCESS:          0 HIT:          0 MISS:          0
cpu1_L1D RFO          ACCESS:          0 HIT:          0 MISS:          0
cpu1_L1D PREFETCH     ACCESS:          0 HIT:          0 MISS:          0
cpu1_L1D WRITE        ACCESS:          0 HIT:          0 MISS:          0
cpu1_L1D TRANSLATION  ACCESS:          0 HIT:          0 MISS:          0
cpu1_L1D PREFETCH REQUESTED:          0 ISSUED:          0 USEFUL:          0 USELESS:          0
cpu1_L1D AVERAGE MISS LATENCY: 174 cycles
cpu1_L1D TOTAL        ACCESS:   44129576 HIT:   35721409 MISS:    8408167
cpu1_L1D LOAD         ACCESS:   27908243 HIT:   22345082 MISS:    5563161
cpu1_L1D RFO          ACCESS:          0 HIT:          0 MISS:          0
cpu1_L1D PREFETCH     ACCESS:          0 HIT:          0 MISS:          0
cpu1_L1D WRITE        ACCESS:   16192917 HIT:   13358062 MISS:    2834855
cpu1_L1D TRANSLATION  ACCESS:      28416 HIT:      18265 MISS:      10151
cpu1_L1D PREFETCH REQUESTED:          0 ISSUED:          0 USEFUL:          0 USELESS:          0
cpu1_L1D AVERAGE MISS LATENCY: 174 cycles
cpu1_L1D TOTAL        ACCESS:          0 HIT:          0 MISS:          0
cpu1_L1D LOAD         ACCESS:          0 HIT:          0 MISS:          0
cpu1_L1D RFO          ACCESS:          0 HIT:          0 MISS:          0
cpu1_L1D PREFETCH     ACCESS:          0 HIT:          0 MISS:          0
cpu1_L1D WRITE        ACCESS:          0 HIT:          0 MISS:          0
cpu1_L1D TRANSLATION  ACCESS:          0 HIT:          0 MISS:          0
cpu1_L1D PREFETCH REQUESTED:          0 ISSUED:          0 USEFUL:          0 USELESS:          0
cpu1_L1D AVERAGE MISS LATENCY: 174 cycles
cpu1_L1D TOTAL        ACCESS:          0 HIT:          0 MISS:          0
cpu1_L1D LOAD         ACCESS:          0 HIT:          0 MISS:          0
cpu1_L1D RFO          ACCESS:          0 HIT:          0 MISS:          0
cpu1_L1D PREFETCH     ACCESS:          0 HIT:          0 MISS:          0
cpu1_L1D WRITE        ACCESS:          0 HIT:          0 MISS:          0
cpu1_L1D TRANSLATION  ACCESS:          0 HIT:          0 MISS:          0
cpu1_L1D PREFETCH REQUESTED:          0 ISSUED:          0 USEFUL:          0 USELESS:          0
cpu1_L1D AVERAGE MISS LATENCY: 174 cycles
cpu1_L1I TOTAL        ACCESS:          0 HIT:          0 MISS:          0
cpu1_L1I LOAD         ACCESS:          0 HIT:          0 MISS:          0
cpu1_L1I RFO          ACCESS:          0 HIT:          0 MISS:          0
cpu1_L1I PREFETCH     ACCESS:          0 HIT:          0 MISS:          0
cpu1_L1I WRITE        ACCESS:          0 HIT:          0 MISS:          0
cpu1_L1I TRANSLATION  ACCESS:          0 HIT:          0 MISS:          0
cpu1_L1I PREFETCH REQUESTED:          0 ISSUED:          0 USEFUL:          0 USELESS:          0
cpu1_L1I AVERAGE MISS LATENCY: 888.8 cycles
cpu1_L1I TOTAL        ACCESS:      19615 HIT:      18505 MISS:       1110
cpu1_L1I LOAD         ACCESS:      19615 HIT:      18505 MISS:       1110
cpu1_L1I RFO          ACCESS:          0 HIT:          0 MISS:          0
cpu1_L1I PREFETCH     ACCESS:          0 HIT:          0 MISS:          0
cpu1_L1I WRITE        ACCESS:          0 HIT:          0 MISS:          0
cpu1_L1I TRANSLATION  ACCESS:          0 HIT:          0 MISS:          0
cpu1_L1I PREFETCH REQUESTED:          0 ISSUED:          0 USEFUL:          0 USELESS:          0
cpu1_L1I AVERAGE MISS LATENCY: 888.8 cycles
cpu1_L1I TOTAL        ACCESS:          0 HIT:          0 MISS:          0
cpu1_L1I LOAD         ACCESS:          0 HIT:          0 MISS:          0
cpu1_L1I RFO          ACCESS:          0 HIT:          0 MISS:          0
cpu1_L1I PREFETCH     ACCESS:          0 HIT:          0 MISS:          0
cpu1_L1I WRITE        ACCESS:          0 HIT:          0 MISS:          0
cpu1_L1I TRANSLATION  ACCESS:          0 HIT:          0 MISS:          0
cpu1_L1I PREFETCH REQUESTED:          0 ISSUED:          0 USEFUL:          0 USELESS:          0
cpu1_L1I AVERAGE MISS LATENCY: 888.8 cycles
cpu1_L1I TOTAL        ACCESS:          0 HIT:          0 MISS:          0
cpu1_L1I LOAD         ACCESS:          0 HIT:          0 MISS:          0
cpu1_L1I RFO          ACCESS:          0 HIT:          0 MISS:          0
cpu1_L1I PREFETCH     ACCESS:          0 HIT:          0 MISS:          0
cpu1_L1I WRITE        ACCESS:          0 HIT:          0 MISS:          0
cpu1_L1I TRANSLATION  ACCESS:          0 HIT:          0 MISS:          0
cpu1_L1I PREFETCH REQUESTED:          0 ISSUED:          0 USEFUL:          0 USELESS:          0
cpu1_L1I AVERAGE MISS LATENCY: 888.8 cycles
cpu1_L2C TOTAL        ACCESS:          0 HIT:          0 MISS:          0
cpu1_L2C LOAD         ACCESS:          0 HIT:          0 MISS:          0
cpu1_L2C RFO          ACCESS:          0 HIT:          0 MISS:          0
cpu1_L2C PREFETCH     ACCESS:          0 HIT:          0 MISS:          0
cpu1_L2C WRITE        ACCESS:          0 HIT:          0 MISS:          0
cpu1_L2C TRANSLATION  ACCESS:          0 HIT:          0 MISS:          0
cpu1_L2C PREFETCH REQUESTED:          0 ISSUED:          0 USEFUL:          0 USELESS:          0
cpu1_L2C AVERAGE MISS LATENCY: 1257 cycles
cpu1_L2C TOTAL        ACCESS:    3390559 HIT:    1810620 MISS:    1579939
cpu1_L2C LOAD         ACCESS:    2196225 HIT:     778770 MISS:    1417455
cpu1_L2C RFO          ACCESS:     372762 HIT:     213078 MISS:     159684
cpu1_L2C PREFETCH     ACCESS:          0 HIT:          0 MISS:          0
cpu1_L2C WRITE        ACCESS:     811445 HIT:     811215 MISS:        230
cpu1_L2C TRANSLATION  ACCESS:      10127 HIT:       7557 MISS:       2570
cpu1_L2C PREFETCH REQUESTED:          0 ISSUED:          0 USEFUL:          0 USELESS:          0
cpu1_L2C AVERAGE MISS LATENCY: 1257 cycles
cpu1_L2C TOTAL        ACCESS:          0 HIT:          0 MISS:          0
cpu1_L2C LOAD         ACCESS:          0 HIT:          0 MISS:          0
cpu1_L2C RFO          ACCESS:          0 HIT:          0 MISS:          0
cpu1_L2C PREFETCH     ACCESS:          0 HIT:          0 MISS:          0
cpu1_L2C WRITE        ACCESS:          0 HIT:          0 MISS:          0
cpu1_L2C TRANSLATION  ACCESS:          0 HIT:          0 MISS:          0
cpu1_L2C PREFETCH REQUESTED:          0 ISSUED:          0 USEFUL:          0 USELESS:          0
cpu1_L2C AVERAGE MISS LATENCY: 1257 cycles
cpu1_L2C TOTAL        ACCESS:          0 HIT:          0 MISS:          0
cpu1_L2C LOAD         ACCESS:          0 HIT:          0 MISS:          0
cpu1_L2C RFO          ACCESS:          0 HIT:          0 MISS:          0
cpu1_L2C PREFETCH     ACCESS:          0 HIT:          0 MISS:          0
cpu1_L2C WRITE        ACCESS:          0 HIT:          0 MISS:          0
cpu1_L2C TRANSLATION  ACCESS:          0 HIT:          0 MISS:          0
cpu1_L2C PREFETCH REQUESTED:          0 ISSUED:          0 USEFUL:          0 USELESS:          0
cpu1_L2C AVERAGE MISS LATENCY: 1257 cycles
cpu1_STLB TOTAL        ACCESS:          0 HIT:          0 MISS:          0
cpu1_STLB LOAD         ACCESS:          0 HIT:          0 MISS:          0
cpu1_STLB RFO          ACCESS:          0 HIT:          0 MISS:          0
cpu1_STLB PREFETCH     ACCESS:          0 HIT:          0 MISS:          0
cpu1_STLB WRITE        ACCESS:          0 HIT:          0 MISS:          0
cpu1_STLB TRANSLATION  ACCESS:          0 HIT:          0 MISS:          0
cpu1_STLB PREFETCH REQUESTED:          0 ISSUED:          0 USEFUL:          0 USELESS:          0
cpu1_STLB AVERAGE MISS LATENCY: 185.9 cycles
cpu1_STLB TOTAL        ACCESS:      91607 HIT:      63319 MISS:      28288
cpu1_STLB LOAD         ACCESS:      91607 HIT:      63319 MISS:      28288
cpu1_STLB RFO          ACCESS:          0 HIT:          0 MISS:          0
cpu1_STLB PREFETCH     ACCESS:          0 HIT:          0 MISS:          0
cpu1_STLB WRITE        ACCESS:          0 HIT:          0 MISS:          0
cpu1_STLB TRANSLATION  ACCESS:          0 HIT:          0 MISS:          0
cpu1_STLB PREFETCH REQUESTED:          0 ISSUED:          0 USEFUL:          0 USELESS:          0
cpu1_STLB AVERAGE MISS LATENCY: 185.9 cycles
cpu1_STLB TOTAL        ACCESS:          0 HIT:          0 MISS:          0
cpu1_STLB LOAD         ACCESS:          0 HIT:          0 MISS:          0
cpu1_STLB RFO          ACCESS:          0 HIT:          0 MISS:          0
cpu1_STLB PREFETCH     ACCESS:          0 HIT:          0 MISS:          0
cpu1_STLB WRITE        ACCESS:          0 HIT:          0 MISS:          0
cpu1_STLB TRANSLATION  ACCESS:          0 HIT:          0 MISS:          0
cpu1_STLB PREFETCH REQUESTED:          0 ISSUED:          0 USEFUL:          0 USELESS:          0
cpu1_STLB AVERAGE MISS LATENCY: 185.9 cycles
cpu1_STLB TOTAL        ACCESS:          0 HIT:          0 MISS:          0
cpu1_STLB LOAD         ACCESS:          0 HIT:          0 MISS:          0
cpu1_STLB RFO          ACCESS:          0 HIT:          0 MISS:          0
cpu1_STLB PREFETCH     ACCESS:          0 HIT:          0 MISS:          0
cpu1_STLB WRITE        ACCESS:          0 HIT:          0 MISS:          0
cpu1_STLB TRANSLATION  ACCESS:          0 HIT:          0 MISS:          0
cpu1_STLB PREFETCH REQUESTED:          0 ISSUED:          0 USEFUL:          0 USELESS:          0
cpu1_STLB AVERAGE MISS LATENCY: 185.9 cycles
cpu2_DTLB TOTAL        ACCESS:          0 HIT:          0 MISS:          0
cpu2_DTLB LOAD         ACCESS:          0 HIT:          0 MISS:          0
cpu2_DTLB RFO          ACCESS:          0 HIT:          0 MISS:          0
cpu2_DTLB PREFETCH     ACCESS:          0 HIT:          0 MISS:          0
cpu2_DTLB WRITE        ACCESS:          0 HIT:          0 MISS:          0
cpu2_DTLB TRANSLATION  ACCESS:          0 HIT:          0 MISS:          0
cpu2_DTLB PREFETCH REQUESTED:          0 ISSUED:          0 USEFUL:          0 USELESS:          0
cpu2_DTLB AVERAGE MISS LATENCY: 28.89 cycles
cpu2_DTLB TOTAL        ACCESS:          0 HIT:          0 MISS:          0
cpu2_DTLB LOAD         ACCESS:          0 HIT:          0 MISS:          0
cpu2_DTLB RFO          ACCESS:          0 HIT:          0 MISS:          0
cpu2_DTLB PREFETCH     ACCESS:          0 HIT:          0 MISS:          0
cpu2_DTLB WRITE        ACCESS:          0 HIT:          0 MISS:          0
cpu2_DTLB TRANSLATION  ACCESS:          0 HIT:          0 MISS:          0
cpu2_DTLB PREFETCH REQUESTED:          0 ISSUED:          0 USEFUL:          0 USELESS:          0
cpu2_DTLB AVERAGE MISS LATENCY: 28.89 cycles
cpu2_DTLB TOTAL        ACCESS:   33715036 HIT:   33527713 MISS:     187323
cpu2_DTLB LOAD         ACCESS:   33715036 HIT:   33527713 MISS:     187323
cpu2_DTLB RFO          ACCESS:          0 HIT:          0 MISS:          0
cpu2_DTLB PREFETCH     ACCESS:          0 HIT:          0 MISS:          0
cpu2_DTLB WRITE        ACCESS:          0 HIT:          0 MISS:          0
cpu2_DTLB TRANSLATION  ACCESS:          0 HIT:          0 MISS:          0
cpu2_DTLB PREFETCH REQUESTED:          0 ISSUED:          0 USEFUL:          0 USELESS:          0
cpu2_DTLB AVERAGE MISS LATENCY: 28.89 cycles
cpu2_DTLB TOTAL        ACCESS:          0 HIT:          0 MISS:          0
cpu2_DTLB LOAD         ACCESS:          0 HIT:          0 MISS:          0
cpu2_DTLB RFO          ACCESS:          0 HIT:          0 MISS:          0
cpu2_DTLB PREFETCH     ACCESS:          0 HIT:          0 MISS:          0
cpu2_DTLB WRITE        ACCESS:          0 HIT:          0 MISS:          0
cpu2_DTLB TRANSLATION  ACCESS:          0 HIT:          0 MISS:          0
cpu2_DTLB PREFETCH REQUESTED:          0 ISSUED:          0 USEFUL:          0 USELESS:          0
cpu2_DTLB AVERAGE MISS LATENCY: 28.89 cycles
cpu2_ITLB TOTAL        ACCESS:          0 HIT:          0 MISS:          0
cpu2_ITLB LOAD         ACCESS:          0 HIT:          0 MISS:          0
cpu2_ITLB RFO          ACCESS:          0 HIT:          0 MISS:          0
cpu2_ITLB PREFETCH     ACCESS:          0 HIT:          0 MISS:          0
cpu2_ITLB WRITE        ACCESS:          0 HIT:          0 MISS:          0
cpu2_ITLB TRANSLATION  ACCESS:          0 HIT:          0 MISS:          0
cpu2_ITLB PREFETCH REQUESTED:          0 ISSUED:          0 USEFUL:          0 USELESS:          0
cpu2_ITLB AVERAGE MISS LATENCY: 450.9 cycles
cpu2_ITLB TOTAL        ACCESS:          0 HIT:          0 MISS:          0
cpu2_ITLB LOAD         ACCESS:          0 HIT:          0 MISS:          0
cpu2_ITLB RFO          ACCESS:          0 HIT:          0 MISS:          0
cpu2_ITLB PREFETCH     ACCESS:          0 HIT:          0 MISS:          0
cpu2_ITLB WRITE        ACCESS:          0 HIT:          0 MISS:          0
cpu2_ITLB TRANSLATION  ACCESS:          0 HIT:          0 MISS:          0
cpu2_ITLB PREFETCH REQUESTED:          0 ISSUED:          0 USEFUL:          0 USELESS:          0
cpu2_ITLB AVERAGE MISS LATENCY: 450.9 cycles
cpu2_ITLB TOTAL        ACCESS:       1144 HIT:       1094 MISS:         50
cpu2_ITLB LOAD         ACCESS:       1144 HIT:       1094 MISS:         50
cpu2_ITLB RFO          ACCESS:          0 HIT:          0 MISS:          0
cpu2_ITLB PREFETCH     ACCESS:          0 HIT:          0 MISS:          0
cpu2_ITLB WRITE        ACCESS:          0 HIT:          0 MISS:          0
cpu2_ITLB TRANSLATION  ACCESS:          0 HIT:          0 MISS:          0
cpu2_ITLB PREFETCH REQUESTED:          0 ISSUED:          0 USEFUL:          0 USELESS:          0
cpu2_ITLB AVERAGE MISS LATENCY: 450.9 cycles
cpu2_ITLB TOTAL        ACCESS:          0 HIT:          0 MISS:          0
cpu2_ITLB LOAD         ACCESS:          0 HIT:          0 MISS:          0
cpu2_ITLB RFO          ACCESS:          0 HIT:          0 MISS:          0
cpu2_ITLB PREFETCH     ACCESS:          0 HIT:          0 MISS:          0
cpu2_ITLB WRITE        ACCESS:          0 HIT:          0 MISS:          0
cpu2_ITLB TRANSLATION  ACCESS:          0 HIT:          0 MISS:          0
cpu2_ITLB PREFETCH REQUESTED:          0 ISSUED:          0 USEFUL:          0 USELESS:          0
cpu2_ITLB AVERAGE MISS LATENCY: 450.9 cycles
cpu2_L1D TOTAL        ACCESS:          0 HIT:          0 MISS:          0
cpu2_L1D LOAD         ACCESS:          0 HIT:          0 MISS:          0
cpu2_L1D RFO          ACCESS:          0 HIT:          0 MISS:          0
cpu2_L1D PREFETCH     ACCESS:          0 HIT:          0 MISS:          0
cpu2_L1D WRITE        ACCESS:          0 HIT:          0 MISS:          0
cpu2_L1D TRANSLATION  ACCESS:          0 HIT:          0 MISS:          0
cpu2_L1D PREFETCH REQUESTED:          0 ISSUED:          0 USEFUL:          0 USELESS:          0
cpu2_L1D AVERAGE MISS LATENCY: 135.1 cycles
cpu2_L1D TOTAL        ACCESS:          0 HIT:          0 MISS:          0
cpu2_L1D LOAD         ACCESS:          0 HIT:          0 MISS:          0
cpu2_L1D RFO          ACCESS:          0 HIT:          0 MISS:          0
cpu2_L1D PREFETCH     ACCESS:          0 HIT:          0 MISS:          0
cpu2_L1D WRITE        ACCESS:          0 HIT:          0 MISS:          0
cpu2_L1D TRANSLATION  ACCESS:          0 HIT:          0 MISS:          0
cpu2_L1D PREFETCH REQUESTED:          0 ISSUED:          0 USEFUL:          0 USELESS:          0
cpu2_L1D AVERAGE MISS LATENCY: 135.1 cycles
cpu2_L1D TOTAL        ACCESS:   40687134 HIT:   29427411 MISS:   11259723
cpu2_L1D LOAD         ACCESS:   24007430 HIT:   18797507 MISS:    5209923
cpu2_L1D RFO          ACCESS:          0 HIT:          0 MISS:          0
cpu2_L1D PREFETCH     ACCESS:          0 HIT:          0 MISS:          0
cpu2_L1D WRITE        ACCESS:   16646481 HIT:   10609277 MISS:    6037204
cpu2_L1D TRANSLATION  ACCESS:      33223 HIT:      20627 MISS:      12596
cpu2_L1D PREFETCH REQUESTED:          0 ISSUED:          0 USEFUL:          0 USELESS:          0
cpu2_L1D AVERAGE MISS LATENCY: 135.1 cycles
cpu2_L1D TOTAL        ACCESS:          0 HIT:          0 MISS:          0
cpu2_L1D LOAD         ACCESS:          0 HIT:          0 MISS:          0
cpu2_L1D RFO          ACCESS:          0 HIT:          0 MISS:          0
cpu2_L1D PREFETCH     ACCESS:          0 HIT:          0 MISS:          0
cpu2_L1D WRITE        ACCESS:          0 HIT:          0 MISS:          0
cpu2_L1D TRANSLATION  ACCESS:          0 HIT:          0 MISS:          0
cpu2_L1D PREFETCH REQUESTED:          0 ISSUED:          0 USEFUL:          0 USELESS:          0
cpu2_L1D AVERAGE MISS LATENCY: 135.1 cycles
cpu2_L1I TOTAL        ACCESS:          0 HIT:          0 MISS:          0
cpu2_L1I LOAD         ACCESS:          0 HIT:          0 MISS:          0
cpu2_L1I RFO          ACCESS:          0 HIT:          0 MISS:          0
cpu2_L1I PREFETCH     ACCESS:          0 HIT:          0 MISS:          0
cpu2_L1I WRITE        ACCESS:          0 HIT:          0 MISS:          0
cpu2_L1I TRANSLATION  ACCESS:          0 HIT:          0 MISS:          0
cpu2_L1I PREFETCH REQUESTED:          0 ISSUED:          0 USEFUL:          0 USELESS:          0
cpu2_L1I AVERAGE MISS LATENCY: 859.9 cycles
cpu2_L1I TOTAL        ACCESS:          0 HIT:          0 MISS:          0
cpu2_L1I LOAD         ACCESS:          0 HIT:          0 MISS:          0
cpu2_L1I RFO          ACCESS:          0 HIT:          0 MISS:          0
cpu2_L1I PREFETCH     ACCESS:          0 HIT:          0 MISS:          0
cpu2_L1I WRITE        ACCESS:          0 HIT:          0 MISS:          0
cpu2_L1I TRANSLATION  ACCESS:          0 HIT:          0 MISS:          0
cpu2_L1I PREFETCH REQUESTED:          0 ISSUED:          0 USEFUL:          0 USELESS:          0
cpu2_L1I AVERAGE MISS LATENCY: 859.9 cycles
cpu2_L1I TOTAL        ACCESS:       1348 HIT:        387 MISS:        961
cpu2_L1I LOAD         ACCESS:       1348 HIT:        387 MISS:        961
cpu2_L1I RFO          ACCESS:          0 HIT:          0 MISS:          0
cpu2_L1I PREFETCH     ACCESS:          0 HIT:          0 MISS:          0
cpu2_L1I WRITE        ACCESS:          0 HIT:          0 MISS:          0
cpu2_L1I TRANSLATION  ACCESS:          0 HIT:          0 MISS:          0
cpu2_L1I PREFETCH REQUESTED:          0 ISSUED:          0 USEFUL:          0 USELESS:          0
cpu2_L1I AVERAGE MISS LATENCY: 859.9 cycles
cpu2_L1I TOTAL        ACCESS:          0 HIT:          0 MISS:          0
cpu2_L1I LOAD         ACCESS:          0 HIT:          0 MISS:          0
cpu2_L1I RFO          ACCESS:          0 HIT:          0 MISS:          0
cpu2_L1I PREFETCH     ACCESS:          0 HIT:          0 MISS:          0
cpu2_L1I WRITE        ACCESS:          0 HIT:          0 MISS:          0
cpu2_L1I TRANSLATION  ACCESS:          0 HIT:          0 MISS:          0
cpu2_L1I PREFETCH REQUESTED:          0 ISSUED:          0 USEFUL:          0 USELESS:          0
cpu2_L1I AVERAGE MISS LATENCY: 859.9 cycles
cpu2_L2C TOTAL        ACCESS:          0 HIT:          0 MISS:          0
cpu2_L2C LOAD         ACCESS:          0 HIT:          0 MISS:          0
cpu2_L2C RFO          ACCESS:          0 HIT:          0 MISS:          0
cpu2_L2C PREFETCH     ACCESS:          0 HIT:          0 MISS:          0
cpu2_L2C WRITE        ACCESS:          0 HIT:          0 MISS:          0
cpu2_L2C TRANSLATION  ACCESS:          0 HIT:          0 MISS:          0
cpu2_L2C PREFETCH REQUESTED:          0 ISSUED:          0 USEFUL:          0 USELESS:          0
cpu2_L2C AVERAGE MISS LATENCY: 1178 cycles
cpu2_L2C TOTAL        ACCESS:          0 HIT:          0 MISS:          0
cpu2_L2C LOAD         ACCESS:          0 HIT:          0 MISS:          0
cpu2_L2C RFO          ACCESS:          0 HIT:          0 MISS:          0
cpu2_L2C PREFETCH     ACCESS:          0 HIT:          0 MISS:          0
cpu2_L2C WRITE        ACCESS:          0 HIT:          0 MISS:          0
cpu2_L2C TRANSLATION  ACCESS:          0 HIT:          0 MISS:          0
cpu2_L2C PREFETCH REQUESTED:          0 ISSUED:          0 USEFUL:          0 USELESS:          0
cpu2_L2C AVERAGE MISS LATENCY: 1178 cycles
cpu2_L2C TOTAL        ACCESS:    3625456 HIT:    1716445 MISS:    1909011
cpu2_L2C LOAD         ACCESS:    2056172 HIT:     588988 MISS:    1467184
cpu2_L2C RFO          ACCESS:     581124 HIT:     141880 MISS:     439244
cpu2_L2C PREFETCH     ACCESS:          0 HIT:          0 MISS:          0
cpu2_L2C WRITE        ACCESS:     975571 HIT:     975405 MISS:        166
cpu2_L2C TRANSLATION  ACCESS:      12589 HIT:      10172 MISS:       2417
cpu2_L2C PREFETCH REQUESTED:          0 ISSUED:          0 USEFUL:          0 USELESS:          0
cpu2_L2C AVERAGE MISS LATENCY: 1178 cycles
cpu2_L2C TOTAL        ACCESS:          0 HIT:          0 MISS:          0
cpu2_L2C LOAD         ACCESS:          0 HIT:          0 MISS:          0
cpu2_L2C RFO          ACCESS:          0 HIT:          0 MISS:          0
cpu2_L2C PREFETCH     ACCESS:          0 HIT:          0 MISS:          0
cpu2_L2C WRITE        ACCESS:          0 HIT:          0 MISS:          0
cpu2_L2C TRANSLATION  ACCESS:          0 HIT:          0 MISS:          0
cpu2_L2C PREFETCH REQUESTED:          0 ISSUED:          0 USEFUL:          0 USELESS:          0
cpu2_L2C AVERAGE MISS LATENCY: 1178 cycles
cpu2_STLB TOTAL        ACCESS:          0 HIT:          0 MISS:          0
cpu2_STLB LOAD         ACCESS:          0 HIT:          0 MISS:          0
cpu2_STLB RFO          ACCESS:          0 HIT:          0 MISS:          0
cpu2_STLB PREFETCH     ACCESS:          0 HIT:          0 MISS:          0
cpu2_STLB WRITE        ACCESS:          0 HIT:          0 MISS:          0
cpu2_STLB TRANSLATION  ACCESS:          0 HIT:          0 MISS:          0
cpu2_STLB PREFETCH REQUESTED:          0 ISSUED:          0 USEFUL:          0 USELESS:          0
cpu2_STLB AVERAGE MISS LATENCY: 205.3 cycles
cpu2_STLB TOTAL        ACCESS:          0 HIT:          0 MISS:          0
cpu2_STLB LOAD         ACCESS:          0 HIT:          0 MISS:          0
cpu2_STLB RFO          ACCESS:          0 HIT:          0 MISS:          0
cpu2_STLB PREFETCH     ACCESS:          0 HIT:          0 MISS:          0
cpu2_STLB WRITE        ACCESS:          0 HIT:          0 MISS:          0
cpu2_STLB TRANSLATION  ACCESS:          0 HIT:          0 MISS:          0
cpu2_STLB PREFETCH REQUESTED:          0 ISSUED:          0 USEFUL:          0 USELESS:          0
cpu2_STLB AVERAGE MISS LATENCY: 205.3 cycles
cpu2_STLB TOTAL        ACCESS:      79080 HIT:      45972 MISS:      33108
cpu2_STLB LOAD         ACCESS:      79080 HIT:      45972 MISS:      33108
cpu2_STLB RFO          ACCESS:          0 HIT:          0 MISS:          0
cpu2_STLB PREFETCH     ACCESS:          0 HIT:          0 MISS:          0
cpu2_STLB WRITE        ACCESS:          0 HIT:          0 MISS:          0
cpu2_STLB TRANSLATION  ACCESS:          0 HIT:          0 MISS:          0
cpu2_STLB PREFETCH REQUESTED:          0 ISSUED:          0 USEFUL:          0 USELESS:          0
cpu2_STLB AVERAGE MISS LATENCY: 205.3 cycles
cpu2_STLB TOTAL        ACCESS:          0 HIT:          0 MISS:          0
cpu2_STLB LOAD         ACCESS:          0 HIT:          0 MISS:          0
cpu2_STLB RFO          ACCESS:          0 HIT:          0 MISS:          0
cpu2_STLB PREFETCH     ACCESS:          0 HIT:          0 MISS:          0
cpu2_STLB WRITE        ACCESS:          0 HIT:          0 MISS:          0
cpu2_STLB TRANSLATION  ACCESS:          0 HIT:          0 MISS:          0
cpu2_STLB PREFETCH REQUESTED:          0 ISSUED:          0 USEFUL:          0 USELESS:          0
cpu2_STLB AVERAGE MISS LATENCY: 205.3 cycles
cpu3_DTLB TOTAL        ACCESS:          0 HIT:          0 MISS:          0
cpu3_DTLB LOAD         ACCESS:          0 HIT:          0 MISS:          0
cpu3_DTLB RFO          ACCESS:          0 HIT:          0 MISS:          0
cpu3_DTLB PREFETCH     ACCESS:          0 HIT:          0 MISS:          0
cpu3_DTLB WRITE        ACCESS:          0 HIT:          0 MISS:          0
cpu3_DTLB TRANSLATION  ACCESS:          0 HIT:          0 MISS:          0
cpu3_DTLB PREFETCH REQUESTED:          0 ISSUED:          0 USEFUL:          0 USELESS:          0
cpu3_DTLB AVERAGE MISS LATENCY: 86.53 cycles
cpu3_DTLB TOTAL        ACCESS:          0 HIT:          0 MISS:          0
cpu3_DTLB LOAD         ACCESS:          0 HIT:          0 MISS:          0
cpu3_DTLB RFO          ACCESS:          0 HIT:          0 MISS:          0
cpu3_DTLB PREFETCH     ACCESS:          0 HIT:          0 MISS:          0
cpu3_DTLB WRITE        ACCESS:          0 HIT:          0 MISS:          0
cpu3_DTLB TRANSLATION  ACCESS:          0 HIT:          0 MISS:          0
cpu3_DTLB PREFETCH REQUESTED:          0 ISSUED:          0 USEFUL:          0 USELESS:          0
cpu3_DTLB AVERAGE MISS LATENCY: 86.53 cycles
cpu3_DTLB TOTAL        ACCESS:          0 HIT:          0 MISS:          0
cpu3_DTLB LOAD         ACCESS:          0 HIT:          0 MISS:          0
cpu3_DTLB RFO          ACCESS:          0 HIT:          0 MISS:          0
cpu3_DTLB PREFETCH     ACCESS:          0 HIT:          0 MISS:          0
cpu3_DTLB WRITE        ACCESS:          0 HIT:          0 MISS:          0
cpu3_DTLB TRANSLATION  ACCESS:          0 HIT:          0 MISS:          0
cpu3_DTLB PREFETCH REQUESTED:          0 ISSUED:          0 USEFUL:          0 USELESS:          0
cpu3_DTLB AVERAGE MISS LATENCY: 86.53 cycles
cpu3_DTLB TOTAL        ACCESS:   46742436 HIT:   45631970 MISS:    1110466
cpu3_DTLB LOAD         ACCESS:   46742436 HIT:   45631970 MISS:    1110466
cpu3_DTLB RFO          ACCESS:          0 HIT:          0 MISS:          0
cpu3_DTLB PREFETCH     ACCESS:          0 HIT:          0 MISS:          0
cpu3_DTLB WRITE        ACCESS:          0 HIT:          0 MISS:          0
cpu3_DTLB TRANSLATION  ACCESS:          0 HIT:          0 MISS:          0
cpu3_DTLB PREFETCH REQUESTED:          0 ISSUED:          0 USEFUL:          0 USELESS:          0
cpu3_DTLB AVERAGE MISS LATENCY: 86.53 cycles
cpu3_ITLB TOTAL        ACCESS:          0 HIT:          0 MISS:          0
cpu3_ITLB LOAD         ACCESS:          0 HIT:          0 MISS:          0
cpu3_ITLB RFO          ACCESS:          0 HIT:          0 MISS:          0
cpu3_ITLB PREFETCH     ACCESS:          0 HIT:          0 MISS:          0
cpu3_ITLB WRITE        ACCESS:          0 HIT:          0 MISS:          0
cpu3_ITLB TRANSLATION  ACCESS:          0 HIT:          0 MISS:          0
cpu3_ITLB PREFETCH REQUESTED:          0 ISSUED:          0 USEFUL:          0 USELESS:          0
cpu3_ITLB AVERAGE MISS LATENCY: -nan cycles
cpu3_ITLB TOTAL        ACCESS:          0 HIT:          0 MISS:          0
cpu3_ITLB LOAD         ACCESS:          0 HIT:          0 MISS:          0
cpu3_ITLB RFO          ACCESS:          0 HIT:          0 MISS:          0
cpu3_ITLB PREFETCH     ACCESS:          0 HIT:          0 MISS:          0
cpu3_ITLB WRITE        ACCESS:          0 HIT:          0 MISS:          0
cpu3_ITLB TRANSLATION  ACCESS:          0 HIT:          0 MISS:          0
cpu3_ITLB PREFETCH REQUESTED:          0 ISSUED:          0 USEFUL:          0 USELESS:          0
cpu3_ITLB AVERAGE MISS LATENCY: -nan cycles
cpu3_ITLB TOTAL        ACCESS:          0 HIT:          0 MISS:          0
cpu3_ITLB LOAD         ACCESS:          0 HIT:          0 MISS:          0
cpu3_ITLB RFO          ACCESS:          0 HIT:          0 MISS:          0
cpu3_ITLB PREFETCH     ACCESS:          0 HIT:          0 MISS:          0
cpu3_ITLB WRITE        ACCESS:          0 HIT:          0 MISS:          0
cpu3_ITLB TRANSLATION  ACCESS:          0 HIT:          0 MISS:          0
cpu3_ITLB PREFETCH REQUESTED:          0 ISSUED:          0 USEFUL:          0 USELESS:          0
cpu3_ITLB AVERAGE MISS LATENCY: -nan cycles
cpu3_ITLB TOTAL        ACCESS:          0 HIT:          0 MISS:          0
cpu3_ITLB LOAD         ACCESS:          0 HIT:          0 MISS:          0
cpu3_ITLB RFO          ACCESS:          0 HIT:          0 MISS:          0
cpu3_ITLB PREFETCH     ACCESS:          0 HIT:          0 MISS:          0
cpu3_ITLB WRITE        ACCESS:          0 HIT:          0 MISS:          0
cpu3_ITLB TRANSLATION  ACCESS:          0 HIT:          0 MISS:          0
cpu3_ITLB PREFETCH REQUESTED:          0 ISSUED:          0 USEFUL:          0 USELESS:          0
cpu3_ITLB AVERAGE MISS LATENCY: -nan cycles
cpu3_L1D TOTAL        ACCESS:          0 HIT:          0 MISS:          0
cpu3_L1D LOAD         ACCESS:          0 HIT:          0 MISS:          0
cpu3_L1D RFO          ACCESS:          0 HIT:          0 MISS:          0
cpu3_L1D PREFETCH     ACCESS:          0 HIT:          0 MISS:          0
cpu3_L1D WRITE        ACCESS:          0 HIT:          0 MISS:          0
cpu3_L1D TRANSLATION  ACCESS:          0 HIT:          0 MISS:          0
cpu3_L1D PREFETCH REQUESTED:          0 ISSUED:          0 USEFUL:          0 USELESS:          0
cpu3_L1D AVERAGE MISS LATENCY: 311.8 cycles
cpu3_L1D TOTAL        ACCESS:          0 HIT:          0 MISS:          0
cpu3_L1D LOAD         ACCESS:          0 HIT:          0 MISS:          0
cpu3_L1D RFO          ACCESS:          0 HIT:          0 MISS:          0
cpu3_L1D PREFETCH     ACCESS:          0 HIT:          0 MISS:          0
cpu3_L1D WRITE        ACCESS:          0 HIT:          0 MISS:          0
cpu3_L1D TRANSLATION  ACCESS:          0 HIT:          0 MISS:          0
cpu3_L1D PREFETCH REQUESTED:          0 ISSUED:          0 USEFUL:          0 USELESS:          0
cpu3_L1D AVERAGE MISS LATENCY: 311.8 cycles
cpu3_L1D TOTAL        ACCESS:          0 HIT:          0 MISS:          0
cpu3_L1D LOAD         ACCESS:          0 HIT:          0 MISS:          0
cpu3_L1D RFO          ACCESS:          0 HIT:          0 MISS:          0
cpu3_L1D PREFETCH     ACCESS:          0 HIT:          0 MISS:          0
cpu3_L1D WRITE        ACCESS:          0 HIT:          0 MISS:          0
cpu3_L1D TRANSLATION  ACCESS:          0 HIT:          0 MISS:          0
cpu3_L1D PREFETCH REQUESTED:          0 ISSUED:          0 USEFUL:          0 USELESS:          0
cpu3_L1D AVERAGE MISS LATENCY: 311.8 cycles
cpu3_L1D TOTAL        ACCESS:   49769394 HIT:   43672163 MISS:    6097231
cpu3_L1D LOAD         ACCESS:   39642295 HIT:   34016204 MISS:    5626091
cpu3_L1D RFO          ACCESS:          0 HIT:          0 MISS:          0
cpu3_L1D PREFETCH     ACCESS:          0 HIT:          0 MISS:          0
cpu3_L1D WRITE        ACCESS:    9616954 HIT:    9616954 MISS:          0
cpu3_L1D TRANSLATION  ACCESS:     510145 HIT:      39005 MISS:     471140
cpu3_L1D PREFETCH REQUESTED:          0 ISSUED:          0 USEFUL:          0 USELESS:          0
cpu3_L1D AVERAGE MISS LATENCY: 311.8 cycles
cpu3_L1I TOTAL        ACCESS:          0 HIT:          0 MISS:          0
cpu3_L1I LOAD         ACCESS:          0 HIT:          0 MISS:          0
cpu3_L1I RFO          ACCESS:          0 HIT:          0 MISS:          0
cpu3_L1I PREFETCH     ACCESS:          0 HIT:          0 MISS:          0
cpu3_L1I WRITE        ACCESS:          0 HIT:          0 MISS:          0
cpu3_L1I TRANSLATION  ACCESS:          0 HIT:          0 MISS:          0
cpu3_L1I PREFETCH REQUESTED:          0 ISSUED:          0 USEFUL:          0 USELESS:          0
cpu3_L1I AVERAGE MISS LATENCY: -nan cycles
cpu3_L1I TOTAL        ACCESS:          0 HIT:          0 MISS:          0
cpu3_L1I LOAD         ACCESS:          0 HIT:          0 MISS:          0
cpu3_L1I RFO          ACCESS:          0 HIT:          0 MISS:          0
cpu3_L1I PREFETCH     ACCESS:          0 HIT:          0 MISS:          0
cpu3_L1I WRITE        ACCESS:          0 HIT:          0 MISS:          0
cpu3_L1I TRANSLATION  ACCESS:          0 HIT:          0 MISS:          0
cpu3_L1I PREFETCH REQUESTED:          0 ISSUED:          0 USEFUL:          0 USELESS:          0
cpu3_L1I AVERAGE MISS LATENCY: -nan cycles
cpu3_L1I TOTAL        ACCESS:          0 HIT:          0 MISS:          0
cpu3_L1I LOAD         ACCESS:          0 HIT:          0 MISS:          0
cpu3_L1I RFO          ACCESS:          0 HIT:          0 MISS:          0
cpu3_L1I PREFETCH     ACCESS:          0 HIT:          0 MISS:          0
cpu3_L1I WRITE        ACCESS:          0 HIT:          0 MISS:          0
cpu3_L1I TRANSLATION  ACCESS:          0 HIT:          0 MISS:          0
cpu3_L1I PREFETCH REQUESTED:          0 ISSUED:          0 USEFUL:          0 USELESS:          0
cpu3_L1I AVERAGE MISS LATENCY: -nan cycles
cpu3_L1I TOTAL        ACCESS:          0 HIT:          0 MISS:          0
cpu3_L1I LOAD         ACCESS:          0 HIT:          0 MISS:          0
cpu3_L1I RFO          ACCESS:          0 HIT:          0 MISS:          0
cpu3_L1I PREFETCH     ACCESS:          0 HIT:          0 MISS:          0
cpu3_L1I WRITE        ACCESS:          0 HIT:          0 MISS:          0
cpu3_L1I TRANSLATION  ACCESS:          0 HIT:          0 MISS:          0
cpu3_L1I PREFETCH REQUESTED:          0 ISSUED:          0 USEFUL:          0 USELESS:          0
cpu3_L1I AVERAGE MISS LATENCY: -nan cycles
cpu3_L2C TOTAL        ACCESS:          0 HIT:          0 MISS:          0
cpu3_L2C LOAD         ACCESS:          0 HIT:          0 MISS:          0
cpu3_L2C RFO          ACCESS:          0 HIT:          0 MISS:          0
cpu3_L2C PREFETCH     ACCESS:          0 HIT:          0 MISS:          0
cpu3_L2C WRITE        ACCESS:          0 HIT:          0 MISS:          0
cpu3_L2C TRANSLATION  ACCESS:          0 HIT:          0 MISS:          0
cpu3_L2C PREFETCH REQUESTED:          0 ISSUED:          0 USEFUL:          0 USELESS:          0
cpu3_L2C AVERAGE MISS LATENCY: 918.5 cycles
cpu3_L2C TOTAL        ACCESS:          0 HIT:          0 MISS:          0
cpu3_L2C LOAD         ACCESS:          0 HIT:          0 MISS:          0
cpu3_L2C RFO          ACCESS:          0 HIT:          0 MISS:          0
cpu3_L2C PREFETCH     ACCESS:          0 HIT:          0 MISS:          0
cpu3_L2C WRITE        ACCESS:          0 HIT:          0 MISS:          0
cpu3_L2C TRANSLATION  ACCESS:          0 HIT:          0 MISS:          0
cpu3_L2C PREFETCH REQUESTED:          0 ISSUED:          0 USEFUL:          0 USELESS:          0
cpu3_L2C AVERAGE MISS LATENCY: 918.5 cycles
cpu3_L2C TOTAL        ACCESS:          0 HIT:          0 MISS:          0
cpu3_L2C LOAD         ACCESS:          0 HIT:          0 MISS:          0
cpu3_L2C RFO          ACCESS:          0 HIT:          0 MISS:          0
cpu3_L2C PREFETCH     ACCESS:          0 HIT:          0 MISS:          0
cpu3_L2C WRITE        ACCESS:          0 HIT:          0 MISS:          0
cpu3_L2C TRANSLATION  ACCESS:          0 HIT:          0 MISS:          0
cpu3_L2C PREFETCH REQUESTED:          0 ISSUED:          0 USEFUL:          0 USELESS:          0
cpu3_L2C AVERAGE MISS LATENCY: 918.5 cycles
cpu3_L2C TOTAL        ACCESS:    4814405 HIT:    1901977 MISS:    2912428
cpu3_L2C LOAD         ACCESS:    2886035 HIT:         55 MISS:    2885980
cpu3_L2C RFO          ACCESS:          0 HIT:          0 MISS:          0
cpu3_L2C PREFETCH     ACCESS:          0 HIT:          0 MISS:          0
cpu3_L2C WRITE        ACCESS:    1457232 HIT:    1457232 MISS:          0
cpu3_L2C TRANSLATION  ACCESS:     471138 HIT:     444690 MISS:      26448
cpu3_L2C PREFETCH REQUESTED:          0 ISSUED:          0 USEFUL:          0 USELESS:          0
cpu3_L2C AVERAGE MISS LATENCY: 918.5 cycles
cpu3_STLB TOTAL        ACCESS:          0 HIT:          0 MISS:          0
cpu3_STLB LOAD         ACCESS:          0 HIT:          0 MISS:          0
cpu3_STLB RFO          ACCESS:          0 HIT:          0 MISS:          0
cpu3_STLB PREFETCH     ACCESS:          0 HIT:          0 MISS:          0
cpu3_STLB WRITE        ACCESS:          0 HIT:          0 MISS:          0
cpu3_STLB TRANSLATION  ACCESS:          0 HIT:          0 MISS:          0
cpu3_STLB PREFETCH REQUESTED:          0 ISSUED:          0 USEFUL:          0 USELESS:          0
cpu3_STLB AVERAGE MISS LATENCY: 261.5 cycles
cpu3_STLB TOTAL        ACCESS:          0 HIT:          0 MISS:          0
cpu3_STLB LOAD         ACCESS:          0 HIT:          0 MISS:          0
cpu3_STLB RFO          ACCESS:          0 HIT:          0 MISS:          0
cpu3_STLB PREFETCH     ACCESS:          0 HIT:          0 MISS:          0
cpu3_STLB WRITE        ACCESS:          0 HIT:          0 MISS:          0
cpu3_STLB TRANSLATION  ACCESS:          0 HIT:          0 MISS:          0
cpu3_STLB PREFETCH REQUESTED:          0 ISSUED:          0 USEFUL:          0 USELESS:          0
cpu3_STLB AVERAGE MISS LATENCY: 261.5 cycles
cpu3_STLB TOTAL        ACCESS:          0 HIT:          0 MISS:          0
cpu3_STLB LOAD         ACCESS:          0 HIT:          0 MISS:          0
cpu3_STLB RFO          ACCESS:          0 HIT:          0 MISS:          0
cpu3_STLB PREFETCH     ACCESS:          0 HIT:          0 MISS:          0
cpu3_STLB WRITE        ACCESS:          0 HIT:          0 MISS:          0
cpu3_STLB TRANSLATION  ACCESS:          0 HIT:          0 MISS:          0
cpu3_STLB PREFETCH REQUESTED:          0 ISSUED:          0 USEFUL:          0 USELESS:          0
cpu3_STLB AVERAGE MISS LATENCY: 261.5 cycles
cpu3_STLB TOTAL        ACCESS:     723857 HIT:     214467 MISS:     509390
cpu3_STLB LOAD         ACCESS:     723857 HIT:     214467 MISS:     509390
cpu3_STLB RFO          ACCESS:          0 HIT:          0 MISS:          0
cpu3_STLB PREFETCH     ACCESS:          0 HIT:          0 MISS:          0
cpu3_STLB WRITE        ACCESS:          0 HIT:          0 MISS:          0
cpu3_STLB TRANSLATION  ACCESS:          0 HIT:          0 MISS:          0
cpu3_STLB PREFETCH REQUESTED:          0 ISSUED:          0 USEFUL:          0 USELESS:          0
cpu3_STLB AVERAGE MISS LATENCY: 261.5 cycles

Region of Interest Statistics

CPU 0 cumulative IPC: 0.4449 instructions: 150000002 cycles: 337180248
CPU 0 Branch Prediction Accuracy: 99.95% MPKI: 0.0181 Average ROB Occupancy at Mispredict: 319.3
Branch type MPKI
BRANCH_DIRECT_JUMP: 0.000293
BRANCH_INDIRECT: 0
BRANCH_CONDITIONAL: 0.0176
BRANCH_DIRECT_CALL: 9.33e-05
BRANCH_INDIRECT_CALL: 0
BRANCH_RETURN: 6.67e-05


CPU 1 cumulative IPC: 0.473 instructions: 150000004 cycles: 317140002
CPU 1 Branch Prediction Accuracy: 99.94% MPKI: 0.02339 Average ROB Occupancy at Mispredict: 312.3
Branch type MPKI
BRANCH_DIRECT_JUMP: 0.00036
BRANCH_INDIRECT: 0
BRANCH_CONDITIONAL: 0.0227
[...]
cpu2_L1I WRITE        ACCESS:          0 HIT:          0 MISS:          0
cpu2_L1I TRANSLATION  ACCESS:          0 HIT:          0 MISS:          0
cpu2_L1I PREFETCH REQUESTED:          0 ISSUED:          0 USEFUL:          0 USELESS:          0
cpu2_L1I AVERAGE MISS LATENCY: 859.9 cycles
cpu2_L1I TOTAL        ACCESS:          0 HIT:          0 MISS:          0
cpu2_L1I LOAD         ACCESS:          0 HIT:          0 MISS:          0
cpu2_L1I RFO          ACCESS:          0 HIT:          0 MISS:          0
cpu2_L1I PREFETCH     ACCESS:          0 HIT:          0 MISS:          0
cpu2_L1I WRITE        ACCESS:          0 HIT:          0 MISS:          0
cpu2_L1I TRANSLATION  ACCESS:          0 HIT:          0 MISS:          0
cpu2_L1I PREFETCH REQUESTED:          0 ISSUED:          0 USEFUL:          0 USELESS:          0
cpu2_L1I AVERAGE MISS LATENCY: 859.9 cycles
cpu2_L2C TOTAL        ACCESS:          0 HIT:          0 MISS:          0
cpu2_L2C LOAD         ACCESS:          0 HIT:          0 MISS:          0
cpu2_L2C RFO          ACCESS:          0 HIT:          0 MISS:          0
cpu2_L2C PREFETCH     ACCESS:          0 HIT:          0 MISS:          0
cpu2_L2C WRITE        ACCESS:          0 HIT:          0 MISS:          0
cpu2_L2C TRANSLATION  ACCESS:          0 HIT:          0 MISS:          0
cpu2_L2C PREFETCH REQUESTED:          0 ISSUED:          0 USEFUL:          0 USELESS:          0
cpu2_L2C AVERAGE MISS LATENCY: 1178 cycles
cpu2_L2C TOTAL        ACCESS:          0 HIT:          0 MISS:          0
cpu2_L2C LOAD         ACCESS:          0 HIT:          0 MISS:          0
cpu2_L2C RFO          ACCESS:          0 HIT:          0 MISS:          0
cpu2_L2C PREFETCH     ACCESS:          0 HIT:          0 MISS:          0
cpu2_L2C WRITE        ACCESS:          0 HIT:          0 MISS:          0
cpu2_L2C TRANSLATION  ACCESS:          0 HIT:          0 MISS:          0
cpu2_L2C PREFETCH REQUESTED:          0 ISSUED:          0 USEFUL:          0 USELESS:          0
cpu2_L2C AVERAGE MISS LATENCY: 1178 cycles
cpu2_L2C TOTAL        ACCESS:    2356001 HIT:    1002392 MISS:    1353609
cpu2_L2C LOAD         ACCESS:    1190196 HIT:     215438 MISS:     974758
cpu2_L2C RFO          ACCESS:     443475 HIT:      66172 MISS:     377303
cpu2_L2C PREFETCH     ACCESS:          0 HIT:          0 MISS:          0
cpu2_L2C WRITE        ACCESS:     714425 HIT:     714342 MISS:         83
cpu2_L2C TRANSLATION  ACCESS:       7905 HIT:       6440 MISS:       1465
cpu2_L2C PREFETCH REQUESTED:          0 ISSUED:          0 USEFUL:          0 USELESS:          0
cpu2_L2C AVERAGE MISS LATENCY: 1178 cycles
cpu2_L2C TOTAL        ACCESS:          0 HIT:          0 MISS:          0
cpu2_L2C LOAD         ACCESS:          0 HIT:          0 MISS:          0
cpu2_L2C RFO          ACCESS:          0 HIT:          0 MISS:          0
cpu2_L2C PREFETCH     ACCESS:          0 HIT:          0 MISS:          0
cpu2_L2C WRITE        ACCESS:          0 HIT:          0 MISS:          0
cpu2_L2C TRANSLATION  ACCESS:          0 HIT:          0 MISS:          0
cpu2_L2C PREFETCH REQUESTED:          0 ISSUED:          0 USEFUL:          0 USELESS:          0
cpu2_L2C AVERAGE MISS LATENCY: 1178 cycles
cpu2_STLB TOTAL        ACCESS:          0 HIT:          0 MISS:          0
cpu2_STLB LOAD         ACCESS:          0 HIT:          0 MISS:          0
cpu2_STLB RFO          ACCESS:          0 HIT:          0 MISS:          0
cpu2_STLB PREFETCH     ACCESS:          0 HIT:          0 MISS:          0
cpu2_STLB WRITE        ACCESS:          0 HIT:          0 MISS:          0
cpu2_STLB TRANSLATION  ACCESS:          0 HIT:          0 MISS:          0
cpu2_STLB PREFETCH REQUESTED:          0 ISSUED:          0 USEFUL:          0 USELESS:          0
cpu2_STLB AVERAGE MISS LATENCY: 205.3 cycles
cpu2_STLB TOTAL        ACCESS:          0 HIT:          0 MISS:          0
cpu2_STLB LOAD         ACCESS:          0 HIT:          0 MISS:          0
cpu2_STLB RFO          ACCESS:          0 HIT:          0 MISS:          0
cpu2_STLB PREFETCH     ACCESS:          0 HIT:          0 MISS:          0
cpu2_STLB WRITE        ACCESS:          0 HIT:          0 MISS:          0
cpu2_STLB TRANSLATION  ACCESS:          0 HIT:          0 MISS:          0
cpu2_STLB PREFETCH REQUESTED:          0 ISSUED:          0 USEFUL:          0 USELESS:          0
cpu2_STLB AVERAGE MISS LATENCY: 205.3 cycles
cpu2_STLB TOTAL        ACCESS:      27232 HIT:       4053 MISS:      23179
cpu2_STLB LOAD         ACCESS:      27232 HIT:       4053 MISS:      23179
cpu2_STLB RFO          ACCESS:          0 HIT:          0 MISS:          0
cpu2_STLB PREFETCH     ACCESS:          0 HIT:          0 MISS:          0
cpu2_STLB WRITE        ACCESS:          0 HIT:          0 MISS:          0
cpu2_STLB TRANSLATION  ACCESS:          0 HIT:          0 MISS:          0
cpu2_STLB PREFETCH REQUESTED:          0 ISSUED:          0 USEFUL:          0 USELESS:          0
cpu2_STLB AVERAGE MISS LATENCY: 205.3 cycles
cpu2_STLB TOTAL        ACCESS:          0 HIT:          0 MISS:          0
cpu2_STLB LOAD         ACCESS:          0 HIT:          0 MISS:          0
cpu2_STLB RFO          ACCESS:          0 HIT:          0 MISS:          0
cpu2_STLB PREFETCH     ACCESS:          0 HIT:          0 MISS:          0
cpu2_STLB WRITE        ACCESS:          0 HIT:          0 MISS:          0
cpu2_STLB TRANSLATION  ACCESS:          0 HIT:          0 MISS:          0
cpu2_STLB PREFETCH REQUESTED:          0 ISSUED:          0 USEFUL:          0 USELESS:          0
cpu2_STLB AVERAGE MISS LATENCY: 205.3 cycles
cpu3_DTLB TOTAL        ACCESS:          0 HIT:          0 MISS:          0
cpu3_DTLB LOAD         ACCESS:          0 HIT:          0 MISS:          0
cpu3_DTLB RFO          ACCESS:          0 HIT:          0 MISS:          0
cpu3_DTLB PREFETCH     ACCESS:          0 HIT:          0 MISS:          0
cpu3_DTLB WRITE        ACCESS:          0 HIT:          0 MISS:          0
cpu3_DTLB TRANSLATION  ACCESS:          0 HIT:          0 MISS:          0
cpu3_DTLB PREFETCH REQUESTED:          0 ISSUED:          0 USEFUL:          0 USELESS:          0
cpu3_DTLB AVERAGE MISS LATENCY: 86.53 cycles
cpu3_DTLB TOTAL        ACCESS:          0 HIT:          0 MISS:          0
cpu3_DTLB LOAD         ACCESS:          0 HIT:          0 MISS:          0
cpu3_DTLB RFO          ACCESS:          0 HIT:          0 MISS:          0
cpu3_DTLB PREFETCH     ACCESS:          0 HIT:          0 MISS:          0
cpu3_DTLB WRITE        ACCESS:          0 HIT:          0 MISS:          0
cpu3_DTLB TRANSLATION  ACCESS:          0 HIT:          0 MISS:          0
cpu3_DTLB PREFETCH REQUESTED:          0 ISSUED:          0 USEFUL:          0 USELESS:          0
cpu3_DTLB AVERAGE MISS LATENCY: 86.53 cycles
cpu3_DTLB TOTAL        ACCESS:          0 HIT:          0 MISS:          0
cpu3_DTLB LOAD         ACCESS:          0 HIT:          0 MISS:          0
cpu3_DTLB RFO          ACCESS:          0 HIT:          0 MISS:          0
cpu3_DTLB PREFETCH     ACCESS:          0 HIT:          0 MISS:          0
cpu3_DTLB WRITE        ACCESS:          0 HIT:          0 MISS:          0
cpu3_DTLB TRANSLATION  ACCESS:          0 HIT:          0 MISS:          0
cpu3_DTLB PREFETCH REQUESTED:          0 ISSUED:          0 USEFUL:          0 USELESS:          0
cpu3_DTLB AVERAGE MISS LATENCY: 86.53 cycles
cpu3_DTLB TOTAL        ACCESS:   46742436 HIT:   45631970 MISS:    1110466
cpu3_DTLB LOAD         ACCESS:   46742436 HIT:   45631970 MISS:    1110466
cpu3_DTLB RFO          ACCESS:          0 HIT:          0 MISS:          0
cpu3_DTLB PREFETCH     ACCESS:          0 HIT:          0 MISS:          0
cpu3_DTLB WRITE        ACCESS:          0 HIT:          0 MISS:          0
cpu3_DTLB TRANSLATION  ACCESS:          0 HIT:          0 MISS:          0
cpu3_DTLB PREFETCH REQUESTED:          0 ISSUED:          0 USEFUL:          0 USELESS:          0
cpu3_DTLB AVERAGE MISS LATENCY: 86.53 cycles
cpu3_ITLB TOTAL        ACCESS:          0 HIT:          0 MISS:          0
cpu3_ITLB LOAD         ACCESS:          0 HIT:          0 MISS:          0
cpu3_ITLB RFO          ACCESS:          0 HIT:          0 MISS:          0
cpu3_ITLB PREFETCH     ACCESS:          0 HIT:          0 MISS:          0
cpu3_ITLB WRITE        ACCESS:          0 HIT:          0 MISS:          0
cpu3_ITLB TRANSLATION  ACCESS:          0 HIT:          0 MISS:          0
cpu3_ITLB PREFETCH REQUESTED:          0 ISSUED:          0 USEFUL:          0 USELESS:          0
cpu3_ITLB AVERAGE MISS LATENCY: -nan cycles
cpu3_ITLB TOTAL        ACCESS:          0 HIT:          0 MISS:          0
cpu3_ITLB LOAD         ACCESS:          0 HIT:          0 MISS:          0
cpu3_ITLB RFO          ACCESS:          0 HIT:          0 MISS:          0
cpu3_ITLB PREFETCH     ACCESS:          0 HIT:          0 MISS:          0
cpu3_ITLB WRITE        ACCESS:          0 HIT:          0 MISS:          0
cpu3_ITLB TRANSLATION  ACCESS:          0 HIT:          0 MISS:          0
cpu3_ITLB PREFETCH REQUESTED:          0 ISSUED:          0 USEFUL:          0 USELESS:          0
cpu3_ITLB AVERAGE MISS LATENCY: -nan cycles
cpu3_ITLB TOTAL        ACCESS:          0 HIT:          0 MISS:          0
cpu3_ITLB LOAD         ACCESS:          0 HIT:          0 MISS:          0
cpu3_ITLB RFO          ACCESS:          0 HIT:          0 MISS:          0
cpu3_ITLB PREFETCH     ACCESS:          0 HIT:          0 MISS:          0
cpu3_ITLB WRITE        ACCESS:          0 HIT:          0 MISS:          0
cpu3_ITLB TRANSLATION  ACCESS:          0 HIT:          0 MISS:          0
cpu3_ITLB PREFETCH REQUESTED:          0 ISSUED:          0 USEFUL:          0 USELESS:          0
cpu3_ITLB AVERAGE MISS LATENCY: -nan cycles
cpu3_ITLB TOTAL        ACCESS:          0 HIT:          0 MISS:          0
cpu3_ITLB LOAD         ACCESS:          0 HIT:          0 MISS:          0
cpu3_ITLB RFO          ACCESS:          0 HIT:          0 MISS:          0
cpu3_ITLB PREFETCH     ACCESS:          0 HIT:          0 MISS:          0
cpu3_ITLB WRITE        ACCESS:          0 HIT:          0 MISS:          0
cpu3_ITLB TRANSLATION  ACCESS:          0 HIT:          0 MISS:          0
cpu3_ITLB PREFETCH REQUESTED:          0 ISSUED:          0 USEFUL:          0 USELESS:          0
cpu3_ITLB AVERAGE MISS LATENCY: -nan cycles
cpu3_L1D TOTAL        ACCESS:          0 HIT:          0 MISS:          0
cpu3_L1D LOAD         ACCESS:          0 HIT:          0 MISS:          0
cpu3_L1D RFO          ACCESS:          0 HIT:          0 MISS:          0
cpu3_L1D PREFETCH     ACCESS:          0 HIT:          0 MISS:          0
cpu3_L1D WRITE        ACCESS:          0 HIT:          0 MISS:          0
cpu3_L1D TRANSLATION  ACCESS:          0 HIT:          0 MISS:          0
cpu3_L1D PREFETCH REQUESTED:          0 ISSUED:          0 USEFUL:          0 USELESS:          0
cpu3_L1D AVERAGE MISS LATENCY: 311.8 cycles
cpu3_L1D TOTAL        ACCESS:          0 HIT:          0 MISS:          0
cpu3_L1D LOAD         ACCESS:          0 HIT:          0 MISS:          0
cpu3_L1D RFO          ACCESS:          0 HIT:          0 MISS:          0
cpu3_L1D PREFETCH     ACCESS:          0 HIT:          0 MISS:          0
cpu3_L1D WRITE        ACCESS:          0 HIT:          0 MISS:          0
cpu3_L1D TRANSLATION  ACCESS:          0 HIT:          0 MISS:          0
cpu3_L1D PREFETCH REQUESTED:          0 ISSUED:          0 USEFUL:          0 USELESS:          0
cpu3_L1D AVERAGE MISS LATENCY: 311.8 cycles
cpu3_L1D TOTAL        ACCESS:          0 HIT:          0 MISS:          0
cpu3_L1D LOAD         ACCESS:          0 HIT:          0 MISS:          0
cpu3_L1D RFO          ACCESS:          0 HIT:          0 MISS:          0
cpu3_L1D PREFETCH     ACCESS:          0 HIT:          0 MISS:          0
cpu3_L1D WRITE        ACCESS:          0 HIT:          0 MISS:          0
cpu3_L1D TRANSLATION  ACCESS:          0 HIT:          0 MISS:          0
cpu3_L1D PREFETCH REQUESTED:          0 ISSUED:          0 USEFUL:          0 USELESS:          0
cpu3_L1D AVERAGE MISS LATENCY: 311.8 cycles
cpu3_L1D TOTAL        ACCESS:   49769394 HIT:   43672163 MISS:    6097231
cpu3_L1D LOAD         ACCESS:   39642295 HIT:   34016204 MISS:    5626091
cpu3_L1D RFO          ACCESS:          0 HIT:          0 MISS:          0
cpu3_L1D PREFETCH     ACCESS:          0 HIT:          0 MISS:          0
cpu3_L1D WRITE        ACCESS:    9616954 HIT:    9616954 MISS:          0
cpu3_L1D TRANSLATION  ACCESS:     510145 HIT:      39005 MISS:     471140
cpu3_L1D PREFETCH REQUESTED:          0 ISSUED:          0 USEFUL:          0 USELESS:          0
cpu3_L1D AVERAGE MISS LATENCY: 311.8 cycles
cpu3_L1I TOTAL        ACCESS:          0 HIT:          0 MISS:          0
cpu3_L1I LOAD         ACCESS:          0 HIT:          0 MISS:          0
cpu3_L1I RFO          ACCESS:          0 HIT:          0 MISS:          0
cpu3_L1I PREFETCH     ACCESS:          0 HIT:          0 MISS:          0
cpu3_L1I WRITE        ACCESS:          0 HIT:          0 MISS:          0
cpu3_L1I TRANSLATION  ACCESS:          0 HIT:          0 MISS:          0
cpu3_L1I PREFETCH REQUESTED:          0 ISSUED:          0 USEFUL:          0 USELESS:          0
cpu3_L1I AVERAGE MISS LATENCY: -nan cycles
cpu3_L1I TOTAL        ACCESS:          0 HIT:          0 MISS:          0
cpu3_L1I LOAD         ACCESS:          0 HIT:          0 MISS:          0
cpu3_L1I RFO          ACCESS:          0 HIT:          0 MISS:          0
cpu3_L1I PREFETCH     ACCESS:          0 HIT:          0 MISS:          0
cpu3_L1I WRITE        ACCESS:          0 HIT:          0 MISS:          0
cpu3_L1I TRANSLATION  ACCESS:          0 HIT:          0 MISS:          0
cpu3_L1I PREFETCH REQUESTED:          0 ISSUED:          0 USEFUL:          0 USELESS:          0
cpu3_L1I AVERAGE MISS LATENCY: -nan cycles
cpu3_L1I TOTAL        ACCESS:          0 HIT:          0 MISS:          0
cpu3_L1I LOAD         ACCESS:          0 HIT:          0 MISS:          0
cpu3_L1I RFO          ACCESS:          0 HIT:          0 MISS:          0
cpu3_L1I PREFETCH     ACCESS:          0 HIT:          0 MISS:          0
cpu3_L1I WRITE        ACCESS:          0 HIT:          0 MISS:          0
cpu3_L1I TRANSLATION  ACCESS:          0 HIT:          0 MISS:          0
cpu3_L1I PREFETCH REQUESTED:          0 ISSUED:          0 USEFUL:          0 USELESS:          0
cpu3_L1I AVERAGE MISS LATENCY: -nan cycles
cpu3_L1I TOTAL        ACCESS:          0 HIT:          0 MISS:          0
cpu3_L1I LOAD         ACCESS:          0 HIT:          0 MISS:          0
cpu3_L1I RFO          ACCESS:          0 HIT:          0 MISS:          0
cpu3_L1I PREFETCH     ACCESS:          0 HIT:          0 MISS:          0
cpu3_L1I WRITE        ACCESS:          0 HIT:          0 MISS:          0
cpu3_L1I TRANSLATION  ACCESS:          0 HIT:          0 MISS:          0
cpu3_L1I PREFETCH REQUESTED:          0 ISSUED:          0 USEFUL:          0 USELESS:          0
cpu3_L1I AVERAGE MISS LATENCY: -nan cycles
cpu3_L2C TOTAL        ACCESS:          0 HIT:          0 MISS:          0
cpu3_L2C LOAD         ACCESS:          0 HIT:          0 MISS:          0
cpu3_L2C RFO          ACCESS:          0 HIT:          0 MISS:          0
cpu3_L2C PREFETCH     ACCESS:          0 HIT:          0 MISS:          0
cpu3_L2C WRITE        ACCESS:          0 HIT:          0 MISS:          0
cpu3_L2C TRANSLATION  ACCESS:          0 HIT:          0 MISS:          0
cpu3_L2C PREFETCH REQUESTED:          0 ISSUED:          0 USEFUL:          0 USELESS:          0
cpu3_L2C AVERAGE MISS LATENCY: 918.5 cycles
cpu3_L2C TOTAL        ACCESS:          0 HIT:          0 MISS:          0
cpu3_L2C LOAD         ACCESS:          0 HIT:          0 MISS:          0
cpu3_L2C RFO          ACCESS:          0 HIT:          0 MISS:          0
cpu3_L2C PREFETCH     ACCESS:          0 HIT:          0 MISS:          0
cpu3_L2C WRITE        ACCESS:          0 HIT:          0 MISS:          0
cpu3_L2C TRANSLATION  ACCESS:          0 HIT:          0 MISS:          0
cpu3_L2C PREFETCH REQUESTED:          0 ISSUED:          0 USEFUL:          0 USELESS:          0
cpu3_L2C AVERAGE MISS LATENCY: 918.5 cycles
cpu3_L2C TOTAL        ACCESS:          0 HIT:          0 MISS:          0
cpu3_L2C LOAD         ACCESS:          0 HIT:          0 MISS:          0
cpu3_L2C RFO          ACCESS:          0 HIT:          0 MISS:          0
cpu3_L2C PREFETCH     ACCESS:          0 HIT:          0 MISS:          0
cpu3_L2C WRITE        ACCESS:          0 HIT:          0 MISS:          0
cpu3_L2C TRANSLATION  ACCESS:          0 HIT:          0 MISS:          0
cpu3_L2C PREFETCH REQUESTED:          0 ISSUED:          0 USEFUL:          0 USELESS:          0
cpu3_L2C AVERAGE MISS LATENCY: 918.5 cycles
cpu3_L2C TOTAL        ACCESS:    4814405 HIT:    1901977 MISS:    2912428
cpu3_L2C LOAD         ACCESS:    2886035 HIT:         55 MISS:    2885980
cpu3_L2C RFO          ACCESS:          0 HIT:          0 MISS:          0
cpu3_L2C PREFETCH     ACCESS:          0 HIT:          0 MISS:          0
cpu3_L2C WRITE        ACCESS:    1457232 HIT:    1457232 MISS:          0
cpu3_L2C TRANSLATION  ACCESS:     471138 HIT:     444690 MISS:      26448
cpu3_L2C PREFETCH REQUESTED:          0 ISSUED:          0 USEFUL:          0 USELESS:          0
cpu3_L2C AVERAGE MISS LATENCY: 918.5 cycles
cpu3_STLB TOTAL        ACCESS:          0 HIT:          0 MISS:          0
cpu3_STLB LOAD         ACCESS:          0 HIT:          0 MISS:          0
cpu3_STLB RFO          ACCESS:          0 HIT:          0 MISS:          0
cpu3_STLB PREFETCH     ACCESS:          0 HIT:          0 MISS:          0
cpu3_STLB WRITE        ACCESS:          0 HIT:          0 MISS:          0
cpu3_STLB TRANSLATION  ACCESS:          0 HIT:          0 MISS:          0
cpu3_STLB PREFETCH REQUESTED:          0 ISSUED:          0 USEFUL:          0 USELESS:          0
cpu3_STLB AVERAGE MISS LATENCY: 261.5 cycles
cpu3_STLB TOTAL        ACCESS:          0 HIT:          0 MISS:          0
cpu3_STLB LOAD         ACCESS:          0 HIT:          0 MISS:          0
cpu3_STLB RFO          ACCESS:          0 HIT:          0 MISS:          0
cpu3_STLB PREFETCH     ACCESS:          0 HIT:          0 MISS:          0
cpu3_STLB WRITE        ACCESS:          0 HIT:          0 MISS:          0
cpu3_STLB TRANSLATION  ACCESS:          0 HIT:          0 MISS:          0
cpu3_STLB PREFETCH REQUESTED:          0 ISSUED:          0 USEFUL:          0 USELESS:          0
cpu3_STLB AVERAGE MISS LATENCY: 261.5 cycles
cpu3_STLB TOTAL        ACCESS:          0 HIT:          0 MISS:          0
cpu3_STLB LOAD         ACCESS:          0 HIT:          0 MISS:          0
cpu3_STLB RFO          ACCESS:          0 HIT:          0 MISS:          0
cpu3_STLB PREFETCH     ACCESS:          0 HIT:          0 MISS:          0
cpu3_STLB WRITE        ACCESS:          0 HIT:          0 MISS:          0
cpu3_STLB TRANSLATION  ACCESS:          0 HIT:          0 MISS:          0
cpu3_STLB PREFETCH REQUESTED:          0 ISSUED:          0 USEFUL:          0 USELESS:          0
cpu3_STLB AVERAGE MISS LATENCY: 261.5 cycles
cpu3_STLB TOTAL        ACCESS:     723857 HIT:     214467 MISS:     509390
cpu3_STLB LOAD         ACCESS:     723857 HIT:     214467 MISS:     509390
cpu3_STLB RFO          ACCESS:          0 HIT:          0 MISS:          0
cpu3_STLB PREFETCH     ACCESS:          0 HIT:          0 MISS:          0
cpu3_STLB WRITE        ACCESS:          0 HIT:          0 MISS:          0
cpu3_STLB TRANSLATION  ACCESS:          0 HIT:          0 MISS:          0
cpu3_STLB PREFETCH REQUESTED:          0 ISSUED:          0 USEFUL:          0 USELESS:          0
cpu3_STLB AVERAGE MISS LATENCY: 261.5 cycles

DRAM Statistics

Channel 0 RQ ROW_BUFFER_HIT:     912033
  ROW_BUFFER_MISS:    5776901
 AVG DBUS CONGESTED CYCLE: 3.991
WQ ROW_BUFFER_HIT: Channel 0 
  ROW_BUFFER_MISS:      14906
  FULL:    2896274
