WARNING: physical memory size is smaller than virtual memory size.
WARNING: option --warmup_instructions is deprecated. Use --warmup-instructions instead.
WARNING: option --simulation_instructions is deprecated. Use --simulation-instructions instead.

*** ChampSim Multicore Out-of-Order Simulator ***
Warmup Instructions: 50000000
Simulation Instructions: 150000000
Number of CPUs: 4
Page size: 4096

Off-chip DRAM Size: 4 GiB Channels: 1 Width: 64-bit Data Race: 3200 MT/s
Heartbeat CPU 3 instructions: 10000002 cycles: 2500054 heartbeat IPC: 4 cumulative IPC: 4 (Simulation time: 00 hr 02 min 15 sec)
Heartbeat CPU 0 instructions: 10000002 cycles: 2500289 heartbeat IPC: 4 cumulative IPC: 4 (Simulation time: 00 hr 02 min 15 sec)
Heartbeat CPU 1 instructions: 10000001 cycles: 2981613 heartbeat IPC: 3.354 cumulative IPC: 3.354 (Simulation time: 00 hr 02 min 41 sec)
Heartbeat CPU 2 instructions: 10000001 cycles: 3227032 heartbeat IPC: 3.099 cumulative IPC: 3.099 (Simulation time: 00 hr 02 min 54 sec)
Heartbeat CPU 3 instructions: 20000002 cycles: 5000054 heartbeat IPC: 4 cumulative IPC: 4 (Simulation time: 00 hr 04 min 34 sec)
Heartbeat CPU 0 instructions: 20000003 cycles: 5000539 heartbeat IPC: 4 cumulative IPC: 4 (Simulation time: 00 hr 04 min 34 sec)
Heartbeat CPU 1 instructions: 20000000 cycles: 5481693 heartbeat IPC: 4 cumulative IPC: 3.649 (Simulation time: 00 hr 05 min 02 sec)
Heartbeat CPU 2 instructions: 20000002 cycles: 6454994 heartbeat IPC: 3.098 cumulative IPC: 3.098 (Simulation time: 00 hr 05 min 54 sec)
Heartbeat CPU 3 instructions: 30000002 cycles: 7500054 heartbeat IPC: 4 cumulative IPC: 4 (Simulation time: 00 hr 06 min 49 sec)
Heartbeat CPU 0 instructions: 30000000 cycles: 7500716 heartbeat IPC: 4 cumulative IPC: 4 (Simulation time: 00 hr 06 min 49 sec)
Heartbeat CPU 1 instructions: 30000001 cycles: 8033978 heartbeat IPC: 3.918 cumulative IPC: 3.734 (Simulation time: 00 hr 07 min 18 sec)
Heartbeat CPU 2 instructions: 30000000 cycles: 9681519 heartbeat IPC: 3.099 cumulative IPC: 3.099 (Simulation time: 00 hr 08 min 47 sec)
Heartbeat CPU 3 instructions: 40000002 cycles: 10000054 heartbeat IPC: 4 cumulative IPC: 4 (Simulation time: 00 hr 09 min 06 sec)
Heartbeat CPU 0 instructions: 40000003 cycles: 10000847 heartbeat IPC: 4 cumulative IPC: 4 (Simulation time: 00 hr 09 min 06 sec)
Heartbeat CPU 1 instructions: 40000000 cycles: 10637784 heartbeat IPC: 3.841 cumulative IPC: 3.76 (Simulation time: 00 hr 09 min 42 sec)
Heartbeat CPU 3 instructions: 50000003 cycles: 12500108 heartbeat IPC: 4 cumulative IPC: 4 (Simulation time: 00 hr 11 min 28 sec)
Warmup finished CPU 3 instructions: 50000003 cycles: 12500109 cumulative IPC: 4 (Simulation time: 00 hr 11 min 28 sec)
Heartbeat CPU 0 instructions: 50000001 cycles: 12501166 heartbeat IPC: 3.999 cumulative IPC: 4 (Simulation time: 00 hr 11 min 28 sec)
Warmup finished CPU 0 instructions: 50000001 cycles: 12501167 cumulative IPC: 4 (Simulation time: 00 hr 11 min 28 sec)
Heartbeat CPU 2 instructions: 40000002 cycles: 12909919 heartbeat IPC: 3.098 cumulative IPC: 3.098 (Simulation time: 00 hr 11 min 50 sec)
Heartbeat CPU 1 instructions: 50000003 cycles: 13165719 heartbeat IPC: 3.956 cumulative IPC: 3.798 (Simulation time: 00 hr 12 min 04 sec)
Warmup finished CPU 1 instructions: 50000003 cycles: 13165720 cumulative IPC: 3.798 (Simulation time: 00 hr 12 min 04 sec)
Heartbeat CPU 3 instructions: 60000003 cycles: 15000108 heartbeat IPC: 4 cumulative IPC: 4 (Simulation time: 00 hr 13 min 45 sec)
Heartbeat CPU 0 instructions: 60000003 cycles: 15001383 heartbeat IPC: 4 cumulative IPC: 4 (Simulation time: 00 hr 13 min 45 sec)
Heartbeat CPU 1 instructions: 60000003 cycles: 15782686 heartbeat IPC: 3.821 cumulative IPC: 3.802 (Simulation time: 00 hr 14 min 36 sec)
Heartbeat CPU 2 instructions: 50000000 cycles: 16135717 heartbeat IPC: 3.1 cumulative IPC: 3.099 (Simulation time: 00 hr 15 min 00 sec)
Warmup finished CPU 2 instructions: 50000000 cycles: 16135718 cumulative IPC: 3.099 (Simulation time: 00 hr 15 min 00 sec)
Warmup complete CPU 0 instructions: 64537255 cycles: 16135718 cumulative IPC: 4 (Simulation time: 00 hr 15 min 00 sec)
Warmup complete CPU 1 instructions: 61412127 cycles: 16135718 cumulative IPC: 3.806 (Simulation time: 00 hr 15 min 00 sec)
Warmup complete CPU 2 instructions: 50000000 cycles: 16135718 cumulative IPC: 3.099 (Simulation time: 00 hr 15 min 00 sec)
Warmup complete CPU 3 instructions: 64542439 cycles: 16135718 cumulative IPC: 4 (Simulation time: 00 hr 15 min 00 sec)
Heartbeat CPU 0 instructions: 70000002 cycles: 23113414 heartbeat IPC: 1.233 cumulative IPC: 0.7829 (Simulation time: 00 hr 18 min 30 sec)
Heartbeat CPU 3 instructions: 70000000 cycles: 27811962 heartbeat IPC: 0.7805 cumulative IPC: 0.4674 (Simulation time: 00 hr 20 min 36 sec)
Heartbeat CPU 1 instructions: 70000000 cycles: 34024756 heartbeat IPC: 0.5482 cumulative IPC: 0.4801 (Simulation time: 00 hr 23 min 27 sec)
Heartbeat CPU 0 instructions: 80000001 cycles: 38848626 heartbeat IPC: 0.6355 cumulative IPC: 0.6808 (Simulation time: 00 hr 25 min 40 sec)
Heartbeat CPU 1 instructions: 80000004 cycles: 56319759 heartbeat IPC: 0.4485 cumulative IPC: 0.4626 (Simulation time: 00 hr 33 min 15 sec)
Heartbeat CPU 0 instructions: 90000004 cycles: 56942785 heartbeat IPC: 0.5527 cumulative IPC: 0.624 (Simulation time: 00 hr 33 min 31 sec)
Heartbeat CPU 3 instructions: 80000004 cycles: 57096287 heartbeat IPC: 0.3415 cumulative IPC: 0.3774 (Simulation time: 00 hr 33 min 36 sec)
Heartbeat CPU 0 instructions: 100000001 cycles: 69869664 heartbeat IPC: 0.7736 cumulative IPC: 0.66 (Simulation time: 00 hr 39 min 41 sec)
Heartbeat CPU 1 instructions: 90000003 cycles: 74399429 heartbeat IPC: 0.5531 cumulative IPC: 0.4907 (Simulation time: 00 hr 41 min 48 sec)
Heartbeat CPU 3 instructions: 90000002 cycles: 78000071 heartbeat IPC: 0.4784 cumulative IPC: 0.4115 (Simulation time: 00 hr 43 min 27 sec)
Heartbeat CPU 0 instructions: 110000003 cycles: 85014536 heartbeat IPC: 0.6603 cumulative IPC: 0.66 (Simulation time: 00 hr 46 min 39 sec)
Heartbeat CPU 1 instructions: 100000001 cycles: 97728391 heartbeat IPC: 0.4287 cumulative IPC: 0.4729 (Simulation time: 00 hr 52 min 14 sec)
Heartbeat CPU 0 instructions: 120000003 cycles: 105709389 heartbeat IPC: 0.4832 cumulative IPC: 0.6192 (Simulation time: 00 hr 55 min 37 sec)
Heartbeat CPU 3 instructions: 100000003 cycles: 110179436 heartbeat IPC: 0.3108 cumulative IPC: 0.377 (Simulation time: 00 hr 57 min 33 sec)
Heartbeat CPU 0 instructions: 130000002 cycles: 122184233 heartbeat IPC: 0.607 cumulative IPC: 0.6173 (Simulation time: 01 hr 02 min 53 sec)
Heartbeat CPU 1 instructions: 110000002 cycles: 122368035 heartbeat IPC: 0.4059 cumulative IPC: 0.4574 (Simulation time: 01 hr 02 min 58 sec)
Heartbeat CPU 3 instructions: 110000002 cycles: 139985026 heartbeat IPC: 0.3355 cumulative IPC: 0.367 (Simulation time: 01 hr 10 min 32 sec)
Heartbeat CPU 1 instructions: 120000001 cycles: 140836278 heartbeat IPC: 0.5415 cumulative IPC: 0.4698 (Simulation time: 01 hr 10 min 57 sec)
Heartbeat CPU 1 instructions: 130000003 cycles: 146609009 heartbeat IPC: 1.732 cumulative IPC: 0.5257 (Simulation time: 01 hr 13 min 42 sec)
Heartbeat CPU 0 instructions: 140000000 cycles: 151168550 heartbeat IPC: 0.345 cumulative IPC: 0.5588 (Simulation time: 01 hr 15 min 44 sec)
Heartbeat CPU 1 instructions: 140000003 cycles: 152524774 heartbeat IPC: 1.69 cumulative IPC: 0.5762 (Simulation time: 01 hr 16 min 22 sec)
Heartbeat CPU 1 instructions: 150000002 cycles: 165313430 heartbeat IPC: 0.7819 cumulative IPC: 0.5938 (Simulation time: 01 hr 21 min 46 sec)
Heartbeat CPU 3 instructions: 120000003 cycles: 175818862 heartbeat IPC: 0.2791 cumulative IPC: 0.3473 (Simulation time: 01 hr 26 min 03 sec)
Heartbeat CPU 0 instructions: 150000004 cycles: 186026103 heartbeat IPC: 0.2869 cumulative IPC: 0.503 (Simulation time: 01 hr 30 min 12 sec)
Heartbeat CPU 1 instructions: 160000003 cycles: 196993818 heartbeat IPC: 0.3157 cumulative IPC: 0.5451 (Simulation time: 01 hr 34 min 45 sec)
Heartbeat CPU 3 instructions: 130000002 cycles: 225930481 heartbeat IPC: 0.1996 cumulative IPC: 0.312 (Simulation time: 01 hr 46 min 22 sec)
Heartbeat CPU 0 instructions: 160000000 cycles: 229397181 heartbeat IPC: 0.2306 cumulative IPC: 0.4476 (Simulation time: 01 hr 47 min 54 sec)
Heartbeat CPU 1 instructions: 170000002 cycles: 235781893 heartbeat IPC: 0.2578 cumulative IPC: 0.4944 (Simulation time: 01 hr 50 min 37 sec)
Heartbeat CPU 1 instructions: 180000000 cycles: 259453177 heartbeat IPC: 0.4225 cumulative IPC: 0.4874 (Simulation time: 02 hr 00 min 22 sec)
Heartbeat CPU 0 instructions: 170000002 cycles: 259681085 heartbeat IPC: 0.3302 cumulative IPC: 0.433 (Simulation time: 02 hr 00 min 28 sec)
Heartbeat CPU 3 instructions: 140000000 cycles: 261825114 heartbeat IPC: 0.2786 cumulative IPC: 0.3071 (Simulation time: 02 hr 01 min 23 sec)
Heartbeat CPU 1 instructions: 190000002 cycles: 280073984 heartbeat IPC: 0.4849 cumulative IPC: 0.4872 (Simulation time: 02 hr 09 min 10 sec)
Heartbeat CPU 0 instructions: 180000002 cycles: 287026433 heartbeat IPC: 0.3657 cumulative IPC: 0.4262 (Simulation time: 02 hr 12 min 07 sec)
Heartbeat CPU 3 instructions: 150000001 cycles: 287540129 heartbeat IPC: 0.3889 cumulative IPC: 0.3149 (Simulation time: 02 hr 12 min 21 sec)
Heartbeat CPU 1 instructions: 200000003 cycles: 300542619 heartbeat IPC: 0.4886 cumulative IPC: 0.4873 (Simulation time: 02 hr 17 min 43 sec)
Heartbeat CPU 3 instructions: 160000001 cycles: 309436361 heartbeat IPC: 0.4567 cumulative IPC: 0.3255 (Simulation time: 02 hr 21 min 33 sec)
Heartbeat CPU 2 instructions: 60000000 cycles: 311616048 heartbeat IPC: 0.03384 cumulative IPC: 0.03384 (Simulation time: 02 hr 22 min 26 sec)
Heartbeat CPU 0 instructions: 190000001 cycles: 313719433 heartbeat IPC: 0.3746 cumulative IPC: 0.4216 (Simulation time: 02 hr 23 min 20 sec)
Heartbeat CPU 3 instructions: 170000001 cycles: 322277961 heartbeat IPC: 0.7787 cumulative IPC: 0.3445 (Simulation time: 02 hr 26 min 59 sec)
Heartbeat CPU 1 instructions: 210000003 cycles: 322784128 heartbeat IPC: 0.4496 cumulative IPC: 0.4846 (Simulation time: 02 hr 27 min 13 sec)
Simulation finished CPU 1 instructions: 150000000 cycles: 310334419 cumulative IPC: 0.4833 (Simulation time: 02 hr 28 min 50 sec)
Heartbeat CPU 3 instructions: 180000004 cycles: 339444402 heartbeat IPC: 0.5825 cumulative IPC: 0.3571 (Simulation time: 02 hr 34 min 27 sec)
Heartbeat CPU 0 instructions: 200000003 cycles: 342170413 heartbeat IPC: 0.3515 cumulative IPC: 0.4155 (Simulation time: 02 hr 35 min 43 sec)
Heartbeat CPU 1 instructions: 220000004 cycles: 346248875 heartbeat IPC: 0.4262 cumulative IPC: 0.4804 (Simulation time: 02 hr 37 min 27 sec)
Heartbeat CPU 3 instructions: 190000003 cycles: 357916524 heartbeat IPC: 0.5414 cumulative IPC: 0.3671 (Simulation time: 02 hr 42 min 41 sec)
Heartbeat CPU 0 instructions: 210000003 cycles: 364423458 heartbeat IPC: 0.4494 cumulative IPC: 0.4177 (Simulation time: 02 hr 45 min 18 sec)
Heartbeat CPU 1 instructions: 230000000 cycles: 366906193 heartbeat IPC: 0.4841 cumulative IPC: 0.4806 (Simulation time: 02 hr 46 min 29 sec)
Simulation finished CPU 0 instructions: 150000000 cycles: 357732336 cumulative IPC: 0.4193 (Simulation time: 02 hr 49 min 34 sec)
Heartbeat CPU 3 instructions: 200000001 cycles: 380956381 heartbeat IPC: 0.434 cumulative IPC: 0.3713 (Simulation time: 02 hr 52 min 33 sec)
Heartbeat CPU 0 instructions: 220000003 cycles: 394048837 heartbeat IPC: 0.3375 cumulative IPC: 0.4114 (Simulation time: 02 hr 57 min 53 sec)
Heartbeat CPU 1 instructions: 240000004 cycles: 404510506 heartbeat IPC: 0.2659 cumulative IPC: 0.4598 (Simulation time: 03 hr 02 min 10 sec)
Heartbeat CPU 3 instructions: 210000004 cycles: 411690490 heartbeat IPC: 0.3254 cumulative IPC: 0.3677 (Simulation time: 03 hr 05 min 10 sec)
Heartbeat CPU 0 instructions: 230000004 cycles: 415961192 heartbeat IPC: 0.4564 cumulative IPC: 0.4138 (Simulation time: 03 hr 06 min 59 sec)
Simulation finished CPU 3 instructions: 150000000 cycles: 407166332 cumulative IPC: 0.3684 (Simulation time: 03 hr 10 min 14 sec)
Heartbeat CPU 1 instructions: 250000000 cycles: 429191854 heartbeat IPC: 0.4052 cumulative IPC: 0.4566 (Simulation time: 03 hr 12 min 48 sec)
Heartbeat CPU 0 instructions: 240000002 cycles: 435119273 heartbeat IPC: 0.522 cumulative IPC: 0.4188 (Simulation time: 03 hr 15 min 17 sec)
Heartbeat CPU 3 instructions: 220000003 cycles: 438125140 heartbeat IPC: 0.3783 cumulative IPC: 0.3684 (Simulation time: 03 hr 16 min 33 sec)
Heartbeat CPU 0 instructions: 250000001 cycles: 455446035 heartbeat IPC: 0.492 cumulative IPC: 0.4222 (Simulation time: 03 hr 24 min 00 sec)
Heartbeat CPU 3 instructions: 230000000 cycles: 467398359 heartbeat IPC: 0.3416 cumulative IPC: 0.3667 (Simulation time: 03 hr 29 min 00 sec)
Heartbeat CPU 1 instructions: 260000001 cycles: 467927495 heartbeat IPC: 0.2582 cumulative IPC: 0.4396 (Simulation time: 03 hr 29 min 14 sec)
Heartbeat CPU 0 instructions: 260000001 cycles: 476903312 heartbeat IPC: 0.466 cumulative IPC: 0.4242 (Simulation time: 03 hr 33 min 02 sec)
Heartbeat CPU 3 instructions: 240000002 cycles: 488081838 heartbeat IPC: 0.4835 cumulative IPC: 0.3718 (Simulation time: 03 hr 37 min 49 sec)
Heartbeat CPU 1 instructions: 270000003 cycles: 492895432 heartbeat IPC: 0.4005 cumulative IPC: 0.4375 (Simulation time: 03 hr 39 min 54 sec)
Heartbeat CPU 0 instructions: 270000002 cycles: 494383361 heartbeat IPC: 0.5721 cumulative IPC: 0.4296 (Simulation time: 03 hr 40 min 32 sec)
Heartbeat CPU 3 instructions: 250000003 cycles: 513365244 heartbeat IPC: 0.3955 cumulative IPC: 0.373 (Simulation time: 03 hr 48 min 20 sec)
Heartbeat CPU 0 instructions: 280000003 cycles: 530301889 heartbeat IPC: 0.2784 cumulative IPC: 0.4191 (Simulation time: 03 hr 55 min 03 sec)
Heartbeat CPU 1 instructions: 280000001 cycles: 540812030 heartbeat IPC: 0.2087 cumulative IPC: 0.4166 (Simulation time: 03 hr 59 min 23 sec)
Heartbeat CPU 3 instructions: 260000001 cycles: 550450152 heartbeat IPC: 0.2697 cumulative IPC: 0.3658 (Simulation time: 04 hr 03 min 36 sec)
Heartbeat CPU 0 instructions: 290000001 cycles: 560275585 heartbeat IPC: 0.3336 cumulative IPC: 0.4143 (Simulation time: 04 hr 07 min 40 sec)
Heartbeat CPU 1 instructions: 290000001 cycles: 572840583 heartbeat IPC: 0.3122 cumulative IPC: 0.4106 (Simulation time: 04 hr 13 min 06 sec)
Heartbeat CPU 3 instructions: 270000000 cycles: 576538212 heartbeat IPC: 0.3833 cumulative IPC: 0.3666 (Simulation time: 04 hr 14 min 39 sec)
Heartbeat CPU 0 instructions: 300000002 cycles: 583776265 heartbeat IPC: 0.4255 cumulative IPC: 0.4148 (Simulation time: 04 hr 17 min 51 sec)
Heartbeat CPU 3 instructions: 280000000 cycles: 599048229 heartbeat IPC: 0.4442 cumulative IPC: 0.3696 (Simulation time: 04 hr 24 min 22 sec)
Heartbeat CPU 1 instructions: 300000000 cycles: 599723876 heartbeat IPC: 0.372 cumulative IPC: 0.4088 (Simulation time: 04 hr 24 min 41 sec)
Heartbeat CPU 0 instructions: 310000002 cycles: 605991002 heartbeat IPC: 0.4502 cumulative IPC: 0.4161 (Simulation time: 04 hr 27 min 23 sec)
Heartbeat CPU 3 instructions: 290000002 cycles: 623805566 heartbeat IPC: 0.4039 cumulative IPC: 0.371 (Simulation time: 04 hr 34 min 45 sec)
Heartbeat CPU 0 instructions: 320000004 cycles: 636655472 heartbeat IPC: 0.3261 cumulative IPC: 0.4117 (Simulation time: 04 hr 40 min 04 sec)
Heartbeat CPU 1 instructions: 310000000 cycles: 638377978 heartbeat IPC: 0.2587 cumulative IPC: 0.3995 (Simulation time: 04 hr 40 min 45 sec)
Heartbeat CPU 3 instructions: 300000004 cycles: 646500073 heartbeat IPC: 0.4406 cumulative IPC: 0.3735 (Simulation time: 04 hr 44 min 15 sec)
Heartbeat CPU 2 instructions: 70000004 cycles: 649771135 heartbeat IPC: 0.02957 cumulative IPC: 0.03156 (Simulation time: 04 hr 45 min 34 sec)
Heartbeat CPU 0 instructions: 330000002 cycles: 662950437 heartbeat IPC: 0.3803 cumulative IPC: 0.4104 (Simulation time: 04 hr 51 min 14 sec)
Heartbeat CPU 3 instructions: 310000003 cycles: 666016921 heartbeat IPC: 0.5124 cumulative IPC: 0.3777 (Simulation time: 04 hr 52 min 40 sec)
Heartbeat CPU 1 instructions: 320000002 cycles: 668555581 heartbeat IPC: 0.3314 cumulative IPC: 0.3964 (Simulation time: 04 hr 53 min 47 sec)
Heartbeat CPU 3 instructions: 320000002 cycles: 686027105 heartbeat IPC: 0.4997 cumulative IPC: 0.3813 (Simulation time: 05 hr 01 min 11 sec)
Heartbeat CPU 0 instructions: 340000000 cycles: 686634547 heartbeat IPC: 0.4222 cumulative IPC: 0.4108 (Simulation time: 05 hr 01 min 26 sec)
Heartbeat CPU 1 instructions: 330000003 cycles: 702654413 heartbeat IPC: 0.2933 cumulative IPC: 0.3912 (Simulation time: 05 hr 08 min 03 sec)
Heartbeat CPU 0 instructions: 350000003 cycles: 720529168 heartbeat IPC: 0.295 cumulative IPC: 0.4053 (Simulation time: 05 hr 15 min 15 sec)
Heartbeat CPU 3 instructions: 330000004 cycles: 725872199 heartbeat IPC: 0.251 cumulative IPC: 0.374 (Simulation time: 05 hr 17 min 26 sec)
Heartbeat CPU 0 instructions: 360000003 cycles: 756195247 heartbeat IPC: 0.2804 cumulative IPC: 0.3992 (Simulation time: 05 hr 29 min 30 sec)
Heartbeat CPU 1 instructions: 340000002 cycles: 757688343 heartbeat IPC: 0.1817 cumulative IPC: 0.3757 (Simulation time: 05 hr 30 min 14 sec)
Heartbeat CPU 3 instructions: 340000003 cycles: 759052490 heartbeat IPC: 0.3014 cumulative IPC: 0.3708 (Simulation time: 05 hr 30 min 55 sec)
Heartbeat CPU 1 instructions: 350000001 cycles: 774175962 heartbeat IPC: 0.6065 cumulative IPC: 0.3807 (Simulation time: 05 hr 37 min 33 sec)
Heartbeat CPU 0 instructions: 370000003 cycles: 774597683 heartbeat IPC: 0.5434 cumulative IPC: 0.4027 (Simulation time: 05 hr 37 min 44 sec)
Heartbeat CPU 3 instructions: 350000003 cycles: 777263582 heartbeat IPC: 0.5491 cumulative IPC: 0.375 (Simulation time: 05 hr 38 min 52 sec)
Heartbeat CPU 0 instructions: 380000000 cycles: 806256789 heartbeat IPC: 0.3159 cumulative IPC: 0.3993 (Simulation time: 05 hr 50 min 42 sec)
Heartbeat CPU 1 instructions: 360000003 cycles: 807005264 heartbeat IPC: 0.3046 cumulative IPC: 0.3775 (Simulation time: 05 hr 50 min 59 sec)
Heartbeat CPU 3 instructions: 360000002 cycles: 809823660 heartbeat IPC: 0.3071 cumulative IPC: 0.3723 (Simulation time: 05 hr 52 min 09 sec)
Heartbeat CPU 0 instructions: 390000000 cycles: 828665438 heartbeat IPC: 0.4463 cumulative IPC: 0.4006 (Simulation time: 06 hr 00 min 15 sec)
Heartbeat CPU 1 instructions: 370000004 cycles: 829094047 heartbeat IPC: 0.4527 cumulative IPC: 0.3796 (Simulation time: 06 hr 00 min 25 sec)
Heartbeat CPU 3 instructions: 370000004 cycles: 837622961 heartbeat IPC: 0.3597 cumulative IPC: 0.3718 (Simulation time: 06 hr 03 min 58 sec)
Heartbeat CPU 1 instructions: 380000001 cycles: 851441479 heartbeat IPC: 0.4475 cumulative IPC: 0.3814 (Simulation time: 06 hr 10 min 03 sec)
Heartbeat CPU 0 instructions: 400000003 cycles: 851453337 heartbeat IPC: 0.4388 cumulative IPC: 0.4016 (Simulation time: 06 hr 10 min 03 sec)
Heartbeat CPU 3 instructions: 380000004 cycles: 861445175 heartbeat IPC: 0.4198 cumulative IPC: 0.3732 (Simulation time: 06 hr 14 min 23 sec)
Heartbeat CPU 1 instructions: 390000000 cycles: 874817188 heartbeat IPC: 0.4278 cumulative IPC: 0.3827 (Simulation time: 06 hr 20 min 03 sec)
Heartbeat CPU 0 instructions: 410000003 cycles: 877533120 heartbeat IPC: 0.3834 cumulative IPC: 0.401 (Simulation time: 06 hr 21 min 19 sec)
Heartbeat CPU 3 instructions: 390000004 cycles: 881193085 heartbeat IPC: 0.5064 cumulative IPC: 0.3762 (Simulation time: 06 hr 22 min 55 sec)
Heartbeat CPU 1 instructions: 400000004 cycles: 888525146 heartbeat IPC: 0.7295 cumulative IPC: 0.3881 (Simulation time: 06 hr 26 min 13 sec)
Heartbeat CPU 3 instructions: 400000000 cycles: 897642665 heartbeat IPC: 0.6079 cumulative IPC: 0.3806 (Simulation time: 06 hr 30 min 18 sec)
Heartbeat CPU 0 instructions: 420000003 cycles: 900163642 heartbeat IPC: 0.4419 cumulative IPC: 0.4021 (Simulation time: 06 hr 31 min 20 sec)
Heartbeat CPU 1 instructions: 410000002 cycles: 904578057 heartbeat IPC: 0.6229 cumulative IPC: 0.3924 (Simulation time: 06 hr 33 min 13 sec)
Heartbeat CPU 3 instructions: 410000000 cycles: 915179832 heartbeat IPC: 0.5702 cumulative IPC: 0.3842 (Simulation time: 06 hr 38 min 01 sec)
Heartbeat CPU 1 instructions: 420000000 cycles: 918492658 heartbeat IPC: 0.7187 cumulative IPC: 0.3974 (Simulation time: 06 hr 39 min 28 sec)
Heartbeat CPU 0 instructions: 430000000 cycles: 921642393 heartbeat IPC: 0.4656 cumulative IPC: 0.4036 (Simulation time: 06 hr 40 min 53 sec)
Heartbeat CPU 1 instructions: 430000001 cycles: 929803153 heartbeat IPC: 0.8841 cumulative IPC: 0.4034 (Simulation time: 06 hr 44 min 29 sec)
Heartbeat CPU 3 instructions: 420000002 cycles: 932170255 heartbeat IPC: 0.5886 cumulative IPC: 0.388 (Simulation time: 06 hr 45 min 39 sec)
Heartbeat CPU 1 instructions: 440000000 cycles: 934870408 heartbeat IPC: 1.973 cumulative IPC: 0.4121 (Simulation time: 06 hr 47 min 01 sec)
Heartbeat CPU 2 instructions: 80000002 cycles: 938132651 heartbeat IPC: 0.03468 cumulative IPC: 0.03254 (Simulation time: 06 hr 48 min 36 sec)
Heartbeat CPU 1 instructions: 450000000 cycles: 940217233 heartbeat IPC: 1.87 cumulative IPC: 0.4205 (Simulation time: 06 hr 49 min 39 sec)
Heartbeat CPU 0 instructions: 440000000 cycles: 944694193 heartbeat IPC: 0.4338 cumulative IPC: 0.4044 (Simulation time: 06 hr 51 min 56 sec)
Heartbeat CPU 1 instructions: 460000003 cycles: 951238075 heartbeat IPC: 0.9074 cumulative IPC: 0.4263 (Simulation time: 06 hr 54 min 45 sec)
Heartbeat CPU 3 instructions: 430000001 cycles: 951428976 heartbeat IPC: 0.5192 cumulative IPC: 0.3907 (Simulation time: 06 hr 54 min 48 sec)
Heartbeat CPU 1 instructions: 470000003 cycles: 971653105 heartbeat IPC: 0.4898 cumulative IPC: 0.4276 (Simulation time: 07 hr 03 min 23 sec)
Heartbeat CPU 3 instructions: 440000001 cycles: 977332436 heartbeat IPC: 0.386 cumulative IPC: 0.3906 (Simulation time: 07 hr 05 min 56 sec)
Heartbeat CPU 0 instructions: 450000003 cycles: 979723683 heartbeat IPC: 0.2855 cumulative IPC: 0.4 (Simulation time: 07 hr 06 min 50 sec)
Heartbeat CPU 1 instructions: 480000001 cycles: 999187111 heartbeat IPC: 0.3632 cumulative IPC: 0.4258 (Simulation time: 07 hr 14 min 36 sec)
Heartbeat CPU 3 instructions: 450000000 cycles: 1003991796 heartbeat IPC: 0.3751 cumulative IPC: 0.3902 (Simulation time: 07 hr 16 min 39 sec)
Heartbeat CPU 0 instructions: 460000003 cycles: 1010128591 heartbeat IPC: 0.3289 cumulative IPC: 0.3979 (Simulation time: 07 hr 19 min 21 sec)
Heartbeat CPU 1 instructions: 490000004 cycles: 1017295361 heartbeat IPC: 0.5522 cumulative IPC: 0.4281 (Simulation time: 07 hr 22 min 23 sec)
Heartbeat CPU 3 instructions: 460000000 cycles: 1027909057 heartbeat IPC: 0.4181 cumulative IPC: 0.3909 (Simulation time: 07 hr 26 min 53 sec)
Heartbeat CPU 0 instructions: 470000003 cycles: 1036738250 heartbeat IPC: 0.3758 cumulative IPC: 0.3973 (Simulation time: 07 hr 30 min 37 sec)
Heartbeat CPU 1 instructions: 500000003 cycles: 1039384038 heartbeat IPC: 0.4527 cumulative IPC: 0.4286 (Simulation time: 07 hr 31 min 45 sec)
Heartbeat CPU 3 instructions: 470000003 cycles: 1056653305 heartbeat IPC: 0.3479 cumulative IPC: 0.3897 (Simulation time: 07 hr 39 min 15 sec)
Heartbeat CPU 0 instructions: 480000003 cycles: 1065071499 heartbeat IPC: 0.3529 cumulative IPC: 0.3961 (Simulation time: 07 hr 42 min 40 sec)
Heartbeat CPU 1 instructions: 510000000 cycles: 1065984407 heartbeat IPC: 0.3759 cumulative IPC: 0.4273 (Simulation time: 07 hr 43 min 03 sec)
Heartbeat CPU 0 instructions: 490000004 cycles: 1087976751 heartbeat IPC: 0.4366 cumulative IPC: 0.3969 (Simulation time: 07 hr 51 min 46 sec)
Heartbeat CPU 3 instructions: 480000004 cycles: 1093853640 heartbeat IPC: 0.2688 cumulative IPC: 0.3855 (Simulation time: 07 hr 54 min 11 sec)
Heartbeat CPU 1 instructions: 520000001 cycles: 1095601962 heartbeat IPC: 0.3376 cumulative IPC: 0.4248 (Simulation time: 07 hr 54 min 55 sec)
Heartbeat CPU 0 instructions: 500000004 cycles: 1108290737 heartbeat IPC: 0.4923 cumulative IPC: 0.3987 (Simulation time: 08 hr 00 min 25 sec)
Heartbeat CPU 3 instructions: 490000000 cycles: 1119429028 heartbeat IPC: 0.391 cumulative IPC: 0.3856 (Simulation time: 08 hr 05 min 06 sec)
Heartbeat CPU 1 instructions: 530000003 cycles: 1120903321 heartbeat IPC: 0.3952 cumulative IPC: 0.4242 (Simulation time: 08 hr 05 min 49 sec)
Heartbeat CPU 0 instructions: 510000002 cycles: 1126257278 heartbeat IPC: 0.5566 cumulative IPC: 0.4013 (Simulation time: 08 hr 08 min 05 sec)
Heartbeat CPU 3 instructions: 500000002 cycles: 1138868884 heartbeat IPC: 0.5144 cumulative IPC: 0.3879 (Simulation time: 08 hr 13 min 59 sec)
Heartbeat CPU 0 instructions: 520000000 cycles: 1140427480 heartbeat IPC: 0.7057 cumulative IPC: 0.4051 (Simulation time: 08 hr 14 min 41 sec)
Heartbeat CPU 1 instructions: 540000003 cycles: 1140978880 heartbeat IPC: 0.4981 cumulative IPC: 0.4255 (Simulation time: 08 hr 14 min 56 sec)
Heartbeat CPU 0 instructions: 530000001 cycles: 1157930740 heartbeat IPC: 0.5713 cumulative IPC: 0.4077 (Simulation time: 08 hr 22 min 12 sec)
Heartbeat CPU 3 instructions: 510000001 cycles: 1159156697 heartbeat IPC: 0.4929 cumulative IPC: 0.3897 (Simulation time: 08 hr 22 min 45 sec)
Heartbeat CPU 1 instructions: 550000003 cycles: 1167975918 heartbeat IPC: 0.3704 cumulative IPC: 0.4242 (Simulation time: 08 hr 26 min 35 sec)
Heartbeat CPU 0 instructions: 540000003 cycles: 1173566640 heartbeat IPC: 0.6396 cumulative IPC: 0.4108 (Simulation time: 08 hr 29 min 08 sec)
Heartbeat CPU 3 instructions: 520000000 cycles: 1177416057 heartbeat IPC: 0.5477 cumulative IPC: 0.3922 (Simulation time: 08 hr 30 min 59 sec)
Heartbeat CPU 1 instructions: 560000004 cycles: 1183210339 heartbeat IPC: 0.6564 cumulative IPC: 0.4272 (Simulation time: 08 hr 33 min 31 sec)
Heartbeat CPU 0 instructions: 550000004 cycles: 1187522462 heartbeat IPC: 0.7165 cumulative IPC: 0.4144 (Simulation time: 08 hr 35 min 28 sec)
Heartbeat CPU 3 instructions: 530000002 cycles: 1195182376 heartbeat IPC: 0.5629 cumulative IPC: 0.3948 (Simulation time: 08 hr 38 min 53 sec)
Heartbeat CPU 0 instructions: 560000000 cycles: 1202889094 heartbeat IPC: 0.6508 cumulative IPC: 0.4175 (Simulation time: 08 hr 42 min 15 sec)
Heartbeat CPU 1 instructions: 570000003 cycles: 1207085036 heartbeat IPC: 0.4189 cumulative IPC: 0.427 (Simulation time: 08 hr 44 min 04 sec)
Heartbeat CPU 2 instructions: 90000000 cycles: 1214672799 heartbeat IPC: 0.03616 cumulative IPC: 0.03337 (Simulation time: 08 hr 47 min 17 sec)
Heartbeat CPU 3 instructions: 540000004 cycles: 1214735606 heartbeat IPC: 0.5114 cumulative IPC: 0.3967 (Simulation time: 08 hr 47 min 19 sec)
Heartbeat CPU 0 instructions: 570000002 cycles: 1218602968 heartbeat IPC: 0.6364 cumulative IPC: 0.4204 (Simulation time: 08 hr 48 min 58 sec)
Heartbeat CPU 1 instructions: 580000000 cycles: 1229413705 heartbeat IPC: 0.4479 cumulative IPC: 0.4274 (Simulation time: 08 hr 53 min 54 sec)
Heartbeat CPU 3 instructions: 550000004 cycles: 1231799352 heartbeat IPC: 0.586 cumulative IPC: 0.3993 (Simulation time: 08 hr 55 min 07 sec)
Heartbeat CPU 0 instructions: 580000001 cycles: 1232715648 heartbeat IPC: 0.7086 cumulative IPC: 0.4237 (Simulation time: 08 hr 55 min 31 sec)
Heartbeat CPU 0 instructions: 590000004 cycles: 1263458370 heartbeat IPC: 0.3253 cumulative IPC: 0.4213 (Simulation time: 09 hr 07 min 48 sec)
Heartbeat CPU 3 instructions: 560000002 cycles: 1269369478 heartbeat IPC: 0.2662 cumulative IPC: 0.3953 (Simulation time: 09 hr 10 min 08 sec)
Heartbeat CPU 1 instructions: 590000004 cycles: 1274974070 heartbeat IPC: 0.2195 cumulative IPC: 0.4199 (Simulation time: 09 hr 12 min 42 sec)
Heartbeat CPU 0 instructions: 600000003 cycles: 1288419426 heartbeat IPC: 0.4006 cumulative IPC: 0.4209 (Simulation time: 09 hr 18 min 11 sec)
Heartbeat CPU 3 instructions: 570000001 cycles: 1296834934 heartbeat IPC: 0.3641 cumulative IPC: 0.3947 (Simulation time: 09 hr 21 min 42 sec)
Heartbeat CPU 1 instructions: 600000003 cycles: 1305533590 heartbeat IPC: 0.3272 cumulative IPC: 0.4177 (Simulation time: 09 hr 25 min 35 sec)
Heartbeat CPU 0 instructions: 610000004 cycles: 1308025422 heartbeat IPC: 0.51 cumulative IPC: 0.4222 (Simulation time: 09 hr 26 min 40 sec)
Heartbeat CPU 3 instructions: 580000000 cycles: 1319182437 heartbeat IPC: 0.4475 cumulative IPC: 0.3956 (Simulation time: 09 hr 31 min 44 sec)
Heartbeat CPU 0 instructions: 620000001 cycles: 1325373035 heartbeat IPC: 0.5764 cumulative IPC: 0.4243 (Simulation time: 09 hr 34 min 24 sec)
Heartbeat CPU 1 instructions: 610000003 cycles: 1331918155 heartbeat IPC: 0.379 cumulative IPC: 0.4169 (Simulation time: 09 hr 37 min 14 sec)
Heartbeat CPU 3 instructions: 590000003 cycles: 1339369367 heartbeat IPC: 0.4954 cumulative IPC: 0.3971 (Simulation time: 09 hr 40 min 32 sec)
Heartbeat CPU 0 instructions: 630000000 cycles: 1344687293 heartbeat IPC: 0.5178 cumulative IPC: 0.4256 (Simulation time: 09 hr 43 min 00 sec)
Heartbeat CPU 3 instructions: 600000000 cycles: 1362243299 heartbeat IPC: 0.4372 cumulative IPC: 0.3978 (Simulation time: 09 hr 50 min 22 sec)
Heartbeat CPU 1 instructions: 620000003 cycles: 1367618395 heartbeat IPC: 0.2801 cumulative IPC: 0.4133 (Simulation time: 09 hr 52 min 46 sec)
Heartbeat CPU 0 instructions: 640000001 cycles: 1369631915 heartbeat IPC: 0.4009 cumulative IPC: 0.4252 (Simulation time: 09 hr 53 min 39 sec)
Heartbeat CPU 3 instructions: 610000001 cycles: 1381063065 heartbeat IPC: 0.5314 cumulative IPC: 0.3996 (Simulation time: 09 hr 58 min 36 sec)
Heartbeat CPU 0 instructions: 650000001 cycles: 1389983329 heartbeat IPC: 0.4914 cumulative IPC: 0.4261 (Simulation time: 10 hr 02 min 25 sec)
Heartbeat CPU 1 instructions: 630000002 cycles: 1395516209 heartbeat IPC: 0.3585 cumulative IPC: 0.4122 (Simulation time: 10 hr 04 min 43 sec)
Heartbeat CPU 3 instructions: 620000003 cycles: 1400917497 heartbeat IPC: 0.5037 cumulative IPC: 0.4011 (Simulation time: 10 hr 06 min 52 sec)
Heartbeat CPU 0 instructions: 660000004 cycles: 1409792724 heartbeat IPC: 0.5048 cumulative IPC: 0.4273 (Simulation time: 10 hr 10 min 19 sec)
Heartbeat CPU 1 instructions: 640000000 cycles: 1433620948 heartbeat IPC: 0.2624 cumulative IPC: 0.4082 (Simulation time: 10 hr 20 min 27 sec)
Heartbeat CPU 3 instructions: 630000003 cycles: 1436232756 heartbeat IPC: 0.2832 cumulative IPC: 0.3982 (Simulation time: 10 hr 21 min 28 sec)
Heartbeat CPU 0 instructions: 670000004 cycles: 1438833558 heartbeat IPC: 0.3443 cumulative IPC: 0.4256 (Simulation time: 10 hr 22 min 37 sec)
Heartbeat CPU 3 instructions: 640000002 cycles: 1480921256 heartbeat IPC: 0.2238 cumulative IPC: 0.3929 (Simulation time: 10 hr 39 min 28 sec)
Heartbeat CPU 0 instructions: 680000002 cycles: 1483318654 heartbeat IPC: 0.2248 cumulative IPC: 0.4195 (Simulation time: 10 hr 40 min 24 sec)
Heartbeat CPU 1 instructions: 650000000 cycles: 1490140361 heartbeat IPC: 0.1769 cumulative IPC: 0.3993 (Simulation time: 10 hr 43 min 12 sec)
Heartbeat CPU 3 instructions: 650000000 cycles: 1515700054 heartbeat IPC: 0.2875 cumulative IPC: 0.3904 (Simulation time: 10 hr 53 min 56 sec)
Heartbeat CPU 0 instructions: 690000000 cycles: 1516943936 heartbeat IPC: 0.2974 cumulative IPC: 0.4168 (Simulation time: 10 hr 54 min 27 sec)
Heartbeat CPU 1 instructions: 660000000 cycles: 1535662324 heartbeat IPC: 0.2197 cumulative IPC: 0.3939 (Simulation time: 11 hr 02 min 02 sec)
Heartbeat CPU 0 instructions: 700000003 cycles: 1554480577 heartbeat IPC: 0.2664 cumulative IPC: 0.4131 (Simulation time: 11 hr 09 min 48 sec)
Heartbeat CPU 3 instructions: 660000001 cycles: 1571231349 heartbeat IPC: 0.1801 cumulative IPC: 0.3829 (Simulation time: 11 hr 16 min 38 sec)
Heartbeat CPU 2 instructions: 100000004 cycles: 1591860428 heartbeat IPC: 0.02651 cumulative IPC: 0.03173 (Simulation time: 11 hr 24 min 35 sec)
Heartbeat CPU 1 instructions: 670000002 cycles: 1598015381 heartbeat IPC: 0.1604 cumulative IPC: 0.3847 (Simulation time: 11 hr 26 min 58 sec)
Heartbeat CPU 0 instructions: 710000002 cycles: 1600327606 heartbeat IPC: 0.2181 cumulative IPC: 0.4074 (Simulation time: 11 hr 27 min 57 sec)
Heartbeat CPU 3 instructions: 670000002 cycles: 1626672161 heartbeat IPC: 0.1804 cumulative IPC: 0.3759 (Simulation time: 11 hr 39 min 21 sec)
Heartbeat CPU 0 instructions: 720000004 cycles: 1629601544 heartbeat IPC: 0.3416 cumulative IPC: 0.4062 (Simulation time: 11 hr 40 min 34 sec)
Heartbeat CPU 1 instructions: 680000000 cycles: 1652018994 heartbeat IPC: 0.1852 cumulative IPC: 0.3781 (Simulation time: 11 hr 49 min 42 sec)
Heartbeat CPU 3 instructions: 680000000 cycles: 1662499177 heartbeat IPC: 0.2791 cumulative IPC: 0.3738 (Simulation time: 11 hr 54 min 11 sec)
Heartbeat CPU 0 instructions: 730000002 cycles: 1662900285 heartbeat IPC: 0.3003 cumulative IPC: 0.4041 (Simulation time: 11 hr 54 min 22 sec)
Heartbeat CPU 1 instructions: 690000000 cycles: 1677929940 heartbeat IPC: 0.3859 cumulative IPC: 0.3783 (Simulation time: 12 hr 01 min 02 sec)
Heartbeat CPU 3 instructions: 690000002 cycles: 1683543405 heartbeat IPC: 0.4752 cumulative IPC: 0.3751 (Simulation time: 12 hr 03 min 30 sec)
Heartbeat CPU 0 instructions: 740000004 cycles: 1686893678 heartbeat IPC: 0.4168 cumulative IPC: 0.4043 (Simulation time: 12 hr 04 min 58 sec)
Heartbeat CPU 3 instructions: 700000001 cycles: 1716685148 heartbeat IPC: 0.3017 cumulative IPC: 0.3737 (Simulation time: 12 hr 17 min 09 sec)
Heartbeat CPU 1 instructions: 700000003 cycles: 1722585660 heartbeat IPC: 0.2239 cumulative IPC: 0.3742 (Simulation time: 12 hr 19 min 36 sec)
Heartbeat CPU 0 instructions: 750000002 cycles: 1730081358 heartbeat IPC: 0.2315 cumulative IPC: 0.3999 (Simulation time: 12 hr 22 min 37 sec)
Heartbeat CPU 3 instructions: 710000002 cycles: 1746183097 heartbeat IPC: 0.339 cumulative IPC: 0.3731 (Simulation time: 12 hr 29 min 27 sec)
Heartbeat CPU 1 instructions: 710000001 cycles: 1756959439 heartbeat IPC: 0.2909 cumulative IPC: 0.3726 (Simulation time: 12 hr 33 min 58 sec)
Heartbeat CPU 0 instructions: 760000002 cycles: 1759166738 heartbeat IPC: 0.3438 cumulative IPC: 0.399 (Simulation time: 12 hr 34 min 58 sec)
Heartbeat CPU 1 instructions: 720000002 cycles: 1769825344 heartbeat IPC: 0.7772 cumulative IPC: 0.3755 (Simulation time: 12 hr 39 min 48 sec)
Heartbeat CPU 3 instructions: 720000003 cycles: 1770304111 heartbeat IPC: 0.4146 cumulative IPC: 0.3737 (Simulation time: 12 hr 40 min 00 sec)
Heartbeat CPU 0 instructions: 770000003 cycles: 1781268437 heartbeat IPC: 0.4525 cumulative IPC: 0.3997 (Simulation time: 12 hr 45 min 23 sec)
Heartbeat CPU 1 instructions: 730000001 cycles: 1781412017 heartbeat IPC: 0.8631 cumulative IPC: 0.3787 (Simulation time: 12 hr 45 min 28 sec)
Heartbeat CPU 3 instructions: 730000000 cycles: 1788088209 heartbeat IPC: 0.5623 cumulative IPC: 0.3756 (Simulation time: 12 hr 49 min 02 sec)
Heartbeat CPU 1 instructions: 740000000 cycles: 1798749842 heartbeat IPC: 0.5768 cumulative IPC: 0.3807 (Simulation time: 12 hr 54 min 01 sec)
Heartbeat CPU 0 instructions: 780000004 cycles: 1801076898 heartbeat IPC: 0.5048 cumulative IPC: 0.4008 (Simulation time: 12 hr 55 min 14 sec)
Heartbeat CPU 3 instructions: 740000002 cycles: 1806050045 heartbeat IPC: 0.5567 cumulative IPC: 0.3774 (Simulation time: 12 hr 57 min 38 sec)
Heartbeat CPU 1 instructions: 750000004 cycles: 1817530549 heartbeat IPC: 0.5325 cumulative IPC: 0.3823 (Simulation time: 13 hr 03 min 09 sec)
Heartbeat CPU 0 instructions: 790000002 cycles: 1825225349 heartbeat IPC: 0.4141 cumulative IPC: 0.401 (Simulation time: 13 hr 06 min 45 sec)
Heartbeat CPU 3 instructions: 750000000 cycles: 1827032338 heartbeat IPC: 0.4766 cumulative IPC: 0.3785 (Simulation time: 13 hr 07 min 32 sec)
Heartbeat CPU 1 instructions: 760000002 cycles: 1831457184 heartbeat IPC: 0.718 cumulative IPC: 0.3848 (Simulation time: 13 hr 09 min 25 sec)
Heartbeat CPU 1 instructions: 770000002 cycles: 1846220364 heartbeat IPC: 0.6774 cumulative IPC: 0.3872 (Simulation time: 13 hr 15 min 52 sec)
Heartbeat CPU 0 instructions: 800000004 cycles: 1852665828 heartbeat IPC: 0.3644 cumulative IPC: 0.4005 (Simulation time: 13 hr 18 min 41 sec)
Heartbeat CPU 3 instructions: 760000004 cycles: 1855624217 heartbeat IPC: 0.3497 cumulative IPC: 0.3781 (Simulation time: 13 hr 19 min 51 sec)
Heartbeat CPU 0 instructions: 810000000 cycles: 1878665318 heartbeat IPC: 0.3846 cumulative IPC: 0.4002 (Simulation time: 13 hr 29 min 17 sec)
Heartbeat CPU 1 instructions: 780000003 cycles: 1879653715 heartbeat IPC: 0.2991 cumulative IPC: 0.3856 (Simulation time: 13 hr 29 min 42 sec)
Heartbeat CPU 3 instructions: 770000002 cycles: 1882528574 heartbeat IPC: 0.3717 cumulative IPC: 0.378 (Simulation time: 13 hr 30 min 51 sec)
Heartbeat CPU 0 instructions: 820000000 cycles: 1910279252 heartbeat IPC: 0.3163 cumulative IPC: 0.3988 (Simulation time: 13 hr 42 min 52 sec)
Heartbeat CPU 1 instructions: 790000004 cycles: 1910450309 heartbeat IPC: 0.3247 cumulative IPC: 0.3846 (Simulation time: 13 hr 42 min 58 sec)
Heartbeat CPU 3 instructions: 780000001 cycles: 1915245376 heartbeat IPC: 0.3057 cumulative IPC: 0.3767 (Simulation time: 13 hr 45 min 13 sec)
Heartbeat CPU 2 instructions: 110000000 cycles: 1915644859 heartbeat IPC: 0.03088 cumulative IPC: 0.03159 (Simulation time: 13 hr 45 min 25 sec)
Heartbeat CPU 1 instructions: 800000001 cycles: 1925068801 heartbeat IPC: 0.6841 cumulative IPC: 0.3869 (Simulation time: 13 hr 49 min 47 sec)
Heartbeat CPU 0 instructions: 830000000 cycles: 1935908135 heartbeat IPC: 0.3902 cumulative IPC: 0.3987 (Simulation time: 13 hr 54 min 41 sec)
Heartbeat CPU 3 instructions: 790000000 cycles: 1941931949 heartbeat IPC: 0.3747 cumulative IPC: 0.3767 (Simulation time: 13 hr 57 min 20 sec)
Heartbeat CPU 1 instructions: 810000000 cycles: 1944374958 heartbeat IPC: 0.518 cumulative IPC: 0.3882 (Simulation time: 13 hr 58 min 23 sec)
Heartbeat CPU 0 instructions: 840000001 cycles: 1955685899 heartbeat IPC: 0.5056 cumulative IPC: 0.3998 (Simulation time: 14 hr 03 min 15 sec)
Heartbeat CPU 3 instructions: 800000002 cycles: 1966821657 heartbeat IPC: 0.4018 cumulative IPC: 0.377 (Simulation time: 14 hr 07 min 57 sec)
Heartbeat CPU 0 instructions: 850000001 cycles: 1973291713 heartbeat IPC: 0.568 cumulative IPC: 0.4013 (Simulation time: 14 hr 10 min 42 sec)
Heartbeat CPU 1 instructions: 820000000 cycles: 1979789559 heartbeat IPC: 0.2824 cumulative IPC: 0.3863 (Simulation time: 14 hr 13 min 24 sec)
Heartbeat CPU 0 instructions: 860000001 cycles: 1992447607 heartbeat IPC: 0.522 cumulative IPC: 0.4025 (Simulation time: 14 hr 18 min 45 sec)
Heartbeat CPU 3 instructions: 810000000 cycles: 1992619721 heartbeat IPC: 0.3876 cumulative IPC: 0.3772 (Simulation time: 14 hr 18 min 49 sec)
Heartbeat CPU 1 instructions: 830000003 cycles: 2006824485 heartbeat IPC: 0.3699 cumulative IPC: 0.3861 (Simulation time: 14 hr 25 min 16 sec)
Heartbeat CPU 0 instructions: 870000004 cycles: 2010529937 heartbeat IPC: 0.553 cumulative IPC: 0.4039 (Simulation time: 14 hr 27 min 01 sec)
Heartbeat CPU 3 instructions: 820000002 cycles: 2015460818 heartbeat IPC: 0.4378 cumulative IPC: 0.3779 (Simulation time: 14 hr 29 min 17 sec)
Heartbeat CPU 1 instructions: 840000000 cycles: 2018829591 heartbeat IPC: 0.833 cumulative IPC: 0.3888 (Simulation time: 14 hr 30 min 55 sec)
Heartbeat CPU 0 instructions: 880000001 cycles: 2025182737 heartbeat IPC: 0.6825 cumulative IPC: 0.4059 (Simulation time: 14 hr 34 min 03 sec)
Heartbeat CPU 1 instructions: 850000001 cycles: 2030808660 heartbeat IPC: 0.8348 cumulative IPC: 0.3914 (Simulation time: 14 hr 36 min 51 sec)
Heartbeat CPU 3 instructions: 830000004 cycles: 2033313098 heartbeat IPC: 0.5602 cumulative IPC: 0.3795 (Simulation time: 14 hr 38 min 04 sec)
Heartbeat CPU 0 instructions: 890000003 cycles: 2038631740 heartbeat IPC: 0.7435 cumulative IPC: 0.4081 (Simulation time: 14 hr 40 min 35 sec)
Heartbeat CPU 3 instructions: 840000000 cycles: 2049459156 heartbeat IPC: 0.6193 cumulative IPC: 0.3814 (Simulation time: 14 hr 45 min 23 sec)
Heartbeat CPU 0 instructions: 900000003 cycles: 2050964745 heartbeat IPC: 0.8108 cumulative IPC: 0.4106 (Simulation time: 14 hr 46 min 03 sec)
Heartbeat CPU 1 instructions: 860000004 cycles: 2057724218 heartbeat IPC: 0.3715 cumulative IPC: 0.3912 (Simulation time: 14 hr 48 min 57 sec)
Heartbeat CPU 0 instructions: 910000000 cycles: 2063831345 heartbeat IPC: 0.7772 cumulative IPC: 0.4129 (Simulation time: 14 hr 51 min 33 sec)
Heartbeat CPU 3 instructions: 850000002 cycles: 2067072893 heartbeat IPC: 0.5677 cumulative IPC: 0.383 (Simulation time: 14 hr 52 min 57 sec)
Heartbeat CPU 1 instructions: 870000003 cycles: 2080002108 heartbeat IPC: 0.4489 cumulative IPC: 0.3918 (Simulation time: 14 hr 58 min 41 sec)
Heartbeat CPU 0 instructions: 920000003 cycles: 2080718551 heartbeat IPC: 0.5922 cumulative IPC: 0.4144 (Simulation time: 14 hr 58 min 59 sec)
Heartbeat CPU 3 instructions: 860000002 cycles: 2088411957 heartbeat IPC: 0.4686 cumulative IPC: 0.3839 (Simulation time: 15 hr 02 min 22 sec)
Heartbeat CPU 1 instructions: 880000003 cycles: 2092106492 heartbeat IPC: 0.8261 cumulative IPC: 0.3943 (Simulation time: 15 hr 04 min 03 sec)
Heartbeat CPU 0 instructions: 930000001 cycles: 2096095093 heartbeat IPC: 0.6503 cumulative IPC: 0.4161 (Simulation time: 15 hr 05 min 52 sec)
Heartbeat CPU 1 instructions: 890000002 cycles: 2104382661 heartbeat IPC: 0.8146 cumulative IPC: 0.3968 (Simulation time: 15 hr 09 min 35 sec)
Heartbeat CPU 3 instructions: 870000004 cycles: 2106808071 heartbeat IPC: 0.5436 cumulative IPC: 0.3853 (Simulation time: 15 hr 10 min 43 sec)
Heartbeat CPU 0 instructions: 940000003 cycles: 2110171253 heartbeat IPC: 0.7104 cumulative IPC: 0.4181 (Simulation time: 15 hr 12 min 12 sec)
Heartbeat CPU 0 instructions: 950000001 cycles: 2123478233 heartbeat IPC: 0.7515 cumulative IPC: 0.4202 (Simulation time: 15 hr 17 min 43 sec)
Heartbeat CPU 3 instructions: 880000003 cycles: 2124026406 heartbeat IPC: 0.5808 cumulative IPC: 0.3869 (Simulation time: 15 hr 17 min 58 sec)
Heartbeat CPU 1 instructions: 900000000 cycles: 2133457844 heartbeat IPC: 0.3439 cumulative IPC: 0.3961 (Simulation time: 15 hr 21 min 56 sec)
Heartbeat CPU 0 instructions: 960000002 cycles: 2136411945 heartbeat IPC: 0.7732 cumulative IPC: 0.4223 (Simulation time: 15 hr 23 min 11 sec)
Heartbeat CPU 3 instructions: 890000001 cycles: 2136904591 heartbeat IPC: 0.7765 cumulative IPC: 0.3892 (Simulation time: 15 hr 23 min 24 sec)
Heartbeat CPU 1 instructions: 910000002 cycles: 2154223673 heartbeat IPC: 0.4816 cumulative IPC: 0.3969 (Simulation time: 15 hr 31 min 02 sec)
Heartbeat CPU 0 instructions: 970000002 cycles: 2154842117 heartbeat IPC: 0.5426 cumulative IPC: 0.4234 (Simulation time: 15 hr 31 min 22 sec)
Heartbeat CPU 3 instructions: 900000004 cycles: 2154974676 heartbeat IPC: 0.5534 cumulative IPC: 0.3906 (Simulation time: 15 hr 31 min 26 sec)
Heartbeat CPU 1 instructions: 920000003 cycles: 2159394431 heartbeat IPC: 1.934 cumulative IPC: 0.4006 (Simulation time: 15 hr 33 min 40 sec)
Heartbeat CPU 1 instructions: 930000000 cycles: 2164768595 heartbeat IPC: 1.861 cumulative IPC: 0.4043 (Simulation time: 15 hr 36 min 24 sec)
Heartbeat CPU 0 instructions: 980000001 cycles: 2169017444 heartbeat IPC: 0.7055 cumulative IPC: 0.4252 (Simulation time: 15 hr 38 min 30 sec)
Heartbeat CPU 3 instructions: 910000000 cycles: 2169113608 heartbeat IPC: 0.7073 cumulative IPC: 0.3927 (Simulation time: 15 hr 38 min 33 sec)
Heartbeat CPU 1 instructions: 940000000 cycles: 2170154467 heartbeat IPC: 1.857 cumulative IPC: 0.4079 (Simulation time: 15 hr 39 min 04 sec)
Heartbeat CPU 2 instructions: 120000001 cycles: 2170921693 heartbeat IPC: 0.03917 cumulative IPC: 0.03249 (Simulation time: 15 hr 39 min 25 sec)
Heartbeat CPU 1 instructions: 950000001 cycles: 2181296930 heartbeat IPC: 0.8975 cumulative IPC: 0.4104 (Simulation time: 15 hr 43 min 58 sec)
Heartbeat CPU 0 instructions: 990000003 cycles: 2189644160 heartbeat IPC: 0.4848 cumulative IPC: 0.4258 (Simulation time: 15 hr 47 min 31 sec)
Heartbeat CPU 1 instructions: 960000000 cycles: 2192410016 heartbeat IPC: 0.8998 cumulative IPC: 0.4129 (Simulation time: 15 hr 48 min 42 sec)
Heartbeat CPU 3 instructions: 920000001 cycles: 2199854958 heartbeat IPC: 0.3253 cumulative IPC: 0.3917 (Simulation time: 15 hr 51 min 58 sec)
Heartbeat CPU 1 instructions: 970000001 cycles: 2203723075 heartbeat IPC: 0.8839 cumulative IPC: 0.4153 (Simulation time: 15 hr 53 min 41 sec)
Heartbeat CPU 0 instructions: 1000000000 cycles: 2210826416 heartbeat IPC: 0.4721 cumulative IPC: 0.4262 (Simulation time: 15 hr 56 min 47 sec)
Heartbeat CPU 1 instructions: 980000000 cycles: 2214763072 heartbeat IPC: 0.9058 cumulative IPC: 0.4178 (Simulation time: 15 hr 58 min 31 sec)
Heartbeat CPU 1 instructions: 990000000 cycles: 2219209998 heartbeat IPC: 2.249 cumulative IPC: 0.4215 (Simulation time: 16 hr 00 min 49 sec)
Heartbeat CPU 3 instructions: 930000002 cycles: 2221023421 heartbeat IPC: 0.4724 cumulative IPC: 0.3925 (Simulation time: 16 hr 01 min 50 sec)
Heartbeat CPU 1 instructions: 1000000001 cycles: 2223691980 heartbeat IPC: 2.231 cumulative IPC: 0.4252 (Simulation time: 16 hr 03 min 17 sec)
Heartbeat CPU 0 instructions: 1010000002 cycles: 2223731472 heartbeat IPC: 0.7749 cumulative IPC: 0.4283 (Simulation time: 16 hr 03 min 18 sec)
Heartbeat CPU 1 instructions: 1010000004 cycles: 2228064149 heartbeat IPC: 2.287 cumulative IPC: 0.4289 (Simulation time: 16 hr 05 min 32 sec)
Heartbeat CPU 1 instructions: 1020000000 cycles: 2232573998 heartbeat IPC: 2.217 cumulative IPC: 0.4325 (Simulation time: 16 hr 07 min 53 sec)
Heartbeat CPU 3 instructions: 940000000 cycles: 2236767569 heartbeat IPC: 0.6352 cumulative IPC: 0.3942 (Simulation time: 16 hr 10 min 02 sec)
Heartbeat CPU 1 instructions: 1030000000 cycles: 2237194752 heartbeat IPC: 2.164 cumulative IPC: 0.4361 (Simulation time: 16 hr 10 min 12 sec)
Heartbeat CPU 0 instructions: 1020000001 cycles: 2241483090 heartbeat IPC: 0.5633 cumulative IPC: 0.4294 (Simulation time: 16 hr 12 min 20 sec)
Heartbeat CPU 1 instructions: 1040000000 cycles: 2241533686 heartbeat IPC: 2.305 cumulative IPC: 0.4397 (Simulation time: 16 hr 12 min 21 sec)
Heartbeat CPU 1 instructions: 1050000000 cycles: 2246063168 heartbeat IPC: 2.208 cumulative IPC: 0.4433 (Simulation time: 16 hr 14 min 34 sec)
Heartbeat CPU 1 instructions: 1060000000 cycles: 2250690653 heartbeat IPC: 2.161 cumulative IPC: 0.4469 (Simulation time: 16 hr 16 min 50 sec)
Heartbeat CPU 1 instructions: 1070000002 cycles: 2255116892 heartbeat IPC: 2.259 cumulative IPC: 0.4505 (Simulation time: 16 hr 18 min 59 sec)
Heartbeat CPU 3 instructions: 950000003 cycles: 2256975766 heartbeat IPC: 0.4948 cumulative IPC: 0.3951 (Simulation time: 16 hr 19 min 54 sec)
Heartbeat CPU 1 instructions: 1080000001 cycles: 2259858010 heartbeat IPC: 2.109 cumulative IPC: 0.454 (Simulation time: 16 hr 21 min 14 sec)
Heartbeat CPU 0 instructions: 1030000000 cycles: 2263221698 heartbeat IPC: 0.46 cumulative IPC: 0.4297 (Simulation time: 16 hr 22 min 53 sec)
Heartbeat CPU 1 instructions: 1090000002 cycles: 2264336672 heartbeat IPC: 2.233 cumulative IPC: 0.4575 (Simulation time: 16 hr 23 min 28 sec)
Heartbeat CPU 1 instructions: 1100000003 cycles: 2269149889 heartbeat IPC: 2.078 cumulative IPC: 0.461 (Simulation time: 16 hr 25 min 55 sec)
Heartbeat CPU 1 instructions: 1110000001 cycles: 2273626308 heartbeat IPC: 2.234 cumulative IPC: 0.4645 (Simulation time: 16 hr 28 min 16 sec)
Heartbeat CPU 1 instructions: 1120000000 cycles: 2278540605 heartbeat IPC: 2.035 cumulative IPC: 0.4679 (Simulation time: 16 hr 30 min 48 sec)
Heartbeat CPU 3 instructions: 960000001 cycles: 2281643187 heartbeat IPC: 0.4054 cumulative IPC: 0.3953 (Simulation time: 16 hr 32 min 27 sec)
Heartbeat CPU 1 instructions: 1130000002 cycles: 2282854040 heartbeat IPC: 2.318 cumulative IPC: 0.4714 (Simulation time: 16 hr 33 min 09 sec)
Heartbeat CPU 0 instructions: 1040000001 cycles: 2285362833 heartbeat IPC: 0.4516 cumulative IPC: 0.4299 (Simulation time: 16 hr 34 min 29 sec)
Heartbeat CPU 1 instructions: 1140000001 cycles: 2287223161 heartbeat IPC: 2.289 cumulative IPC: 0.4749 (Simulation time: 16 hr 35 min 31 sec)
Heartbeat CPU 1 instructions: 1150000002 cycles: 2291794437 heartbeat IPC: 2.188 cumulative IPC: 0.4784 (Simulation time: 16 hr 38 min 00 sec)
Heartbeat CPU 1 instructions: 1160000001 cycles: 2296144164 heartbeat IPC: 2.299 cumulative IPC: 0.4818 (Simulation time: 16 hr 40 min 17 sec)
Heartbeat CPU 3 instructions: 970000001 cycles: 2297753360 heartbeat IPC: 0.6207 cumulative IPC: 0.3968 (Simulation time: 16 hr 41 min 06 sec)
Heartbeat CPU 1 instructions: 1170000004 cycles: 2300866754 heartbeat IPC: 2.117 cumulative IPC: 0.4852 (Simulation time: 16 hr 42 min 39 sec)
Heartbeat CPU 0 instructions: 1050000000 cycles: 2303339093 heartbeat IPC: 0.5563 cumulative IPC: 0.4309 (Simulation time: 16 hr 43 min 53 sec)
Heartbeat CPU 1 instructions: 1180000001 cycles: 2305104382 heartbeat IPC: 2.36 cumulative IPC: 0.4887 (Simulation time: 16 hr 44 min 50 sec)
Heartbeat CPU 1 instructions: 1190000001 cycles: 2309662885 heartbeat IPC: 2.194 cumulative IPC: 0.4921 (Simulation time: 16 hr 47 min 05 sec)
Heartbeat CPU 3 instructions: 980000000 cycles: 2313481951 heartbeat IPC: 0.6358 cumulative IPC: 0.3985 (Simulation time: 16 hr 49 min 04 sec)
Heartbeat CPU 1 instructions: 1200000000 cycles: 2314120772 heartbeat IPC: 2.243 cumulative IPC: 0.4955 (Simulation time: 16 hr 49 min 24 sec)
Heartbeat CPU 1 instructions: 1210000002 cycles: 2318587589 heartbeat IPC: 2.239 cumulative IPC: 0.4989 (Simulation time: 16 hr 51 min 38 sec)
Heartbeat CPU 0 instructions: 1060000004 cycles: 2321100006 heartbeat IPC: 0.563 cumulative IPC: 0.4319 (Simulation time: 16 hr 52 min 54 sec)
Heartbeat CPU 1 instructions: 1220000004 cycles: 2323146606 heartbeat IPC: 2.193 cumulative IPC: 0.5022 (Simulation time: 16 hr 53 min 54 sec)
Heartbeat CPU 1 instructions: 1230000003 cycles: 2327511760 heartbeat IPC: 2.291 cumulative IPC: 0.5056 (Simulation time: 16 hr 56 min 06 sec)
Heartbeat CPU 3 instructions: 990000001 cycles: 2329176103 heartbeat IPC: 0.6372 cumulative IPC: 0.4001 (Simulation time: 16 hr 56 min 55 sec)
Heartbeat CPU 1 instructions: 1240000001 cycles: 2332112127 heartbeat IPC: 2.174 cumulative IPC: 0.5089 (Simulation time: 16 hr 58 min 21 sec)
Heartbeat CPU 1 instructions: 1250000003 cycles: 2336498899 heartbeat IPC: 2.28 cumulative IPC: 0.5122 (Simulation time: 17 hr 00 min 30 sec)
Heartbeat CPU 0 instructions: 1070000002 cycles: 2339100129 heartbeat IPC: 0.5556 cumulative IPC: 0.4328 (Simulation time: 17 hr 01 min 44 sec)
Heartbeat CPU 1 instructions: 1260000000 cycles: 2341136872 heartbeat IPC: 2.156 cumulative IPC: 0.5155 (Simulation time: 17 hr 02 min 48 sec)
Heartbeat CPU 3 instructions: 1000000002 cycles: 2345221745 heartbeat IPC: 0.6232 cumulative IPC: 0.4016 (Simulation time: 17 hr 04 min 46 sec)
Heartbeat CPU 1 instructions: 1270000002 cycles: 2345710210 heartbeat IPC: 2.187 cumulative IPC: 0.5188 (Simulation time: 17 hr 04 min 58 sec)
Heartbeat CPU 1 instructions: 1280000001 cycles: 2350185036 heartbeat IPC: 2.235 cumulative IPC: 0.5221 (Simulation time: 17 hr 07 min 14 sec)
Heartbeat CPU 1 instructions: 1290000000 cycles: 2355001727 heartbeat IPC: 2.076 cumulative IPC: 0.5253 (Simulation time: 17 hr 09 min 37 sec)
Heartbeat CPU 0 instructions: 1080000004 cycles: 2358142919 heartbeat IPC: 0.5251 cumulative IPC: 0.4336 (Simulation time: 17 hr 11 min 10 sec)
Heartbeat CPU 1 instructions: 1300000002 cycles: 2359298755 heartbeat IPC: 2.327 cumulative IPC: 0.5286 (Simulation time: 17 hr 11 min 44 sec)
Heartbeat CPU 3 instructions: 1010000000 cycles: 2362226999 heartbeat IPC: 0.5881 cumulative IPC: 0.403 (Simulation time: 17 hr 13 min 24 sec)
Heartbeat CPU 1 instructions: 1310000000 cycles: 2363980628 heartbeat IPC: 2.136 cumulative IPC: 0.5318 (Simulation time: 17 hr 14 min 17 sec)
Heartbeat CPU 1 instructions: 1320000000 cycles: 2368343172 heartbeat IPC: 2.292 cumulative IPC: 0.5351 (Simulation time: 17 hr 16 min 32 sec)
Heartbeat CPU 1 instructions: 1330000001 cycles: 2372989652 heartbeat IPC: 2.152 cumulative IPC: 0.5383 (Simulation time: 17 hr 18 min 46 sec)
Heartbeat CPU 0 instructions: 1090000001 cycles: 2376743919 heartbeat IPC: 0.5376 cumulative IPC: 0.4344 (Simulation time: 17 hr 20 min 38 sec)
Heartbeat CPU 1 instructions: 1340000002 cycles: 2377421832 heartbeat IPC: 2.256 cumulative IPC: 0.5415 (Simulation time: 17 hr 20 min 58 sec)
Heartbeat CPU 3 instructions: 1020000003 cycles: 2379768780 heartbeat IPC: 0.5701 cumulative IPC: 0.4042 (Simulation time: 17 hr 22 min 05 sec)
Heartbeat CPU 1 instructions: 1350000000 cycles: 2382199729 heartbeat IPC: 2.093 cumulative IPC: 0.5446 (Simulation time: 17 hr 23 min 16 sec)
Heartbeat CPU 1 instructions: 1360000001 cycles: 2386957757 heartbeat IPC: 2.102 cumulative IPC: 0.5477 (Simulation time: 17 hr 25 min 33 sec)
Heartbeat CPU 2 instructions: 130000000 cycles: 2387528256 heartbeat IPC: 0.04617 cumulative IPC: 0.03374 (Simulation time: 17 hr 25 min 52 sec)
Heartbeat CPU 1 instructions: 1370000000 cycles: 2401835228 heartbeat IPC: 0.6722 cumulative IPC: 0.5485 (Simulation time: 17 hr 31 min 50 sec)
Heartbeat CPU 0 instructions: 1100000003 cycles: 2402423560 heartbeat IPC: 0.3894 cumulative IPC: 0.4339 (Simulation time: 17 hr 32 min 08 sec)
Heartbeat CPU 3 instructions: 1030000001 cycles: 24046307