WARNING: physical memory size is smaller than virtual memory size.
WARNING: option --warmup_instructions is deprecated. Use --warmup-instructions instead.
WARNING: option --simulation_instructions is deprecated. Use --simulation-instructions instead.

*** ChampSim Multicore Out-of-Order Simulator ***
Warmup Instructions: 50000000
Simulation Instructions: 150000000
Number of CPUs: 4
Page size: 4096

Off-chip DRAM Size: 4 GiB Channels: 1 Width: 64-bit Data Race: 3200 MT/s
Heartbeat CPU 3 instructions: 10000000 cycles: 2500049 heartbeat IPC: 4 cumulative IPC: 4 (Simulation time: 00 hr 02 min 22 sec)
Heartbeat CPU 0 instructions: 10000003 cycles: 2614123 heartbeat IPC: 3.825 cumulative IPC: 3.825 (Simulation time: 00 hr 02 min 28 sec)
Heartbeat CPU 1 instructions: 10000003 cycles: 2794779 heartbeat IPC: 3.578 cumulative IPC: 3.578 (Simulation time: 00 hr 02 min 37 sec)
Heartbeat CPU 2 instructions: 10000004 cycles: 2846668 heartbeat IPC: 3.513 cumulative IPC: 3.513 (Simulation time: 00 hr 02 min 40 sec)
Heartbeat CPU 3 instructions: 20000000 cycles: 5000049 heartbeat IPC: 4 cumulative IPC: 4 (Simulation time: 00 hr 04 min 37 sec)
Heartbeat CPU 0 instructions: 20000001 cycles: 5229540 heartbeat IPC: 3.823 cumulative IPC: 3.824 (Simulation time: 00 hr 04 min 50 sec)
Heartbeat CPU 1 instructions: 20000000 cycles: 5590744 heartbeat IPC: 3.577 cumulative IPC: 3.577 (Simulation time: 00 hr 05 min 09 sec)
Heartbeat CPU 2 instructions: 20000002 cycles: 5767173 heartbeat IPC: 3.424 cumulative IPC: 3.468 (Simulation time: 00 hr 05 min 19 sec)
Heartbeat CPU 3 instructions: 30000001 cycles: 7516368 heartbeat IPC: 3.974 cumulative IPC: 3.991 (Simulation time: 00 hr 06 min 52 sec)
Heartbeat CPU 0 instructions: 30000003 cycles: 7843584 heartbeat IPC: 3.825 cumulative IPC: 3.825 (Simulation time: 00 hr 07 min 10 sec)
Heartbeat CPU 1 instructions: 30000003 cycles: 8387123 heartbeat IPC: 3.576 cumulative IPC: 3.577 (Simulation time: 00 hr 07 min 39 sec)
Heartbeat CPU 2 instructions: 30000004 cycles: 8574670 heartbeat IPC: 3.562 cumulative IPC: 3.499 (Simulation time: 00 hr 07 min 49 sec)
Heartbeat CPU 3 instructions: 40000001 cycles: 10033077 heartbeat IPC: 3.973 cumulative IPC: 3.987 (Simulation time: 00 hr 09 min 10 sec)
Heartbeat CPU 0 instructions: 40000003 cycles: 10457612 heartbeat IPC: 3.826 cumulative IPC: 3.825 (Simulation time: 00 hr 09 min 34 sec)
Heartbeat CPU 1 instructions: 40000004 cycles: 11183255 heartbeat IPC: 3.576 cumulative IPC: 3.577 (Simulation time: 00 hr 10 min 15 sec)
Heartbeat CPU 2 instructions: 40000002 cycles: 11415747 heartbeat IPC: 3.52 cumulative IPC: 3.504 (Simulation time: 00 hr 10 min 28 sec)
Heartbeat CPU 3 instructions: 50000002 cycles: 12534921 heartbeat IPC: 3.997 cumulative IPC: 3.989 (Simulation time: 00 hr 11 min 42 sec)
Warmup finished CPU 3 instructions: 50000002 cycles: 12534922 cumulative IPC: 3.989 (Simulation time: 00 hr 11 min 42 sec)
Heartbeat CPU 0 instructions: 50000002 cycles: 13000698 heartbeat IPC: 3.932 cumulative IPC: 3.846 (Simulation time: 00 hr 12 min 08 sec)
Warmup finished CPU 0 instructions: 50000002 cycles: 13000699 cumulative IPC: 3.846 (Simulation time: 00 hr 12 min 08 sec)
Heartbeat CPU 1 instructions: 50000003 cycles: 13979251 heartbeat IPC: 3.577 cumulative IPC: 3.577 (Simulation time: 00 hr 13 min 02 sec)
Warmup finished CPU 1 instructions: 50000003 cycles: 13979252 cumulative IPC: 3.577 (Simulation time: 00 hr 13 min 02 sec)
Heartbeat CPU 2 instructions: 50000002 cycles: 14279750 heartbeat IPC: 3.492 cumulative IPC: 3.501 (Simulation time: 00 hr 13 min 19 sec)
Warmup finished CPU 2 instructions: 50000002 cycles: 14279751 cumulative IPC: 3.501 (Simulation time: 00 hr 13 min 19 sec)
Warmup complete CPU 0 instructions: 55086130 cycles: 14279751 cumulative IPC: 3.858 (Simulation time: 00 hr 13 min 19 sec)
Warmup complete CPU 1 instructions: 51078073 cycles: 14279751 cumulative IPC: 3.577 (Simulation time: 00 hr 13 min 19 sec)
Warmup complete CPU 2 instructions: 50000002 cycles: 14279751 cumulative IPC: 3.501 (Simulation time: 00 hr 13 min 19 sec)
Warmup complete CPU 3 instructions: 56979318 cycles: 14279751 cumulative IPC: 3.99 (Simulation time: 00 hr 13 min 19 sec)
Heartbeat CPU 3 instructions: 60000002 cycles: 22214766 heartbeat IPC: 1.033 cumulative IPC: 0.3807 (Simulation time: 00 hr 16 min 35 sec)
Heartbeat CPU 0 instructions: 60000004 cycles: 22681369 heartbeat IPC: 1.033 cumulative IPC: 0.5849 (Simulation time: 00 hr 16 min 47 sec)
Heartbeat CPU 0 instructions: 70000002 cycles: 36458470 heartbeat IPC: 0.7258 cumulative IPC: 0.6724 (Simulation time: 00 hr 22 min 42 sec)
Heartbeat CPU 1 instructions: 60000001 cycles: 37791806 heartbeat IPC: 0.4199 cumulative IPC: 0.3795 (Simulation time: 00 hr 23 min 18 sec)
Heartbeat CPU 3 instructions: 70000002 cycles: 42733723 heartbeat IPC: 0.4874 cumulative IPC: 0.4576 (Simulation time: 00 hr 25 min 29 sec)
Heartbeat CPU 0 instructions: 80000001 cycles: 48493568 heartbeat IPC: 0.8309 cumulative IPC: 0.7282 (Simulation time: 00 hr 28 min 02 sec)
Heartbeat CPU 1 instructions: 70000001 cycles: 58199354 heartbeat IPC: 0.49 cumulative IPC: 0.4308 (Simulation time: 00 hr 32 min 17 sec)
Heartbeat CPU 0 instructions: 90000004 cycles: 60753135 heartbeat IPC: 0.8157 cumulative IPC: 0.7513 (Simulation time: 00 hr 33 min 29 sec)
Heartbeat CPU 3 instructions: 80000004 cycles: 61919430 heartbeat IPC: 0.5212 cumulative IPC: 0.4832 (Simulation time: 00 hr 34 min 03 sec)
Heartbeat CPU 0 instructions: 100000000 cycles: 75892686 heartbeat IPC: 0.6605 cumulative IPC: 0.729 (Simulation time: 00 hr 40 min 42 sec)
Heartbeat CPU 1 instructions: 80000001 cycles: 85822335 heartbeat IPC: 0.362 cumulative IPC: 0.4043 (Simulation time: 00 hr 45 min 04 sec)
Heartbeat CPU 3 instructions: 90000001 cycles: 88637478 heartbeat IPC: 0.3743 cumulative IPC: 0.4441 (Simulation time: 00 hr 46 min 17 sec)
Heartbeat CPU 0 instructions: 110000003 cycles: 92623154 heartbeat IPC: 0.5977 cumulative IPC: 0.7009 (Simulation time: 00 hr 48 min 02 sec)
Heartbeat CPU 1 instructions: 90000000 cycles: 112376955 heartbeat IPC: 0.3766 cumulative IPC: 0.3968 (Simulation time: 00 hr 56 min 27 sec)
Heartbeat CPU 0 instructions: 120000003 cycles: 116334370 heartbeat IPC: 0.4217 cumulative IPC: 0.6361 (Simulation time: 00 hr 57 min 59 sec)
Heartbeat CPU 3 instructions: 100000001 cycles: 116836371 heartbeat IPC: 0.3546 cumulative IPC: 0.4195 (Simulation time: 00 hr 58 min 10 sec)
Heartbeat CPU 1 instructions: 100000002 cycles: 147018054 heartbeat IPC: 0.2887 cumulative IPC: 0.3686 (Simulation time: 01 hr 10 min 21 sec)
Heartbeat CPU 3 instructions: 110000002 cycles: 159449685 heartbeat IPC: 0.2347 cumulative IPC: 0.3652 (Simulation time: 01 hr 15 min 14 sec)
Heartbeat CPU 0 instructions: 130000003 cycles: 168491460 heartbeat IPC: 0.1917 cumulative IPC: 0.4858 (Simulation time: 01 hr 18 min 54 sec)
Heartbeat CPU 1 instructions: 110000003 cycles: 176269256 heartbeat IPC: 0.3419 cumulative IPC: 0.3637 (Simulation time: 01 hr 22 min 10 sec)
Heartbeat CPU 0 instructions: 140000000 cycles: 181531040 heartbeat IPC: 0.7669 cumulative IPC: 0.5077 (Simulation time: 01 hr 24 min 31 sec)
Heartbeat CPU 3 instructions: 120000002 cycles: 186296477 heartbeat IPC: 0.3725 cumulative IPC: 0.3664 (Simulation time: 01 hr 26 min 37 sec)
Heartbeat CPU 0 instructions: 150000000 cycles: 193347200 heartbeat IPC: 0.8463 cumulative IPC: 0.53 (Simulation time: 01 hr 29 min 41 sec)
Heartbeat CPU 1 instructions: 120000001 cycles: 198136369 heartbeat IPC: 0.4573 cumulative IPC: 0.3749 (Simulation time: 01 hr 31 min 53 sec)
Heartbeat CPU 0 instructions: 160000003 cycles: 211549807 heartbeat IPC: 0.5494 cumulative IPC: 0.5318 (Simulation time: 01 hr 37 min 35 sec)
Heartbeat CPU 3 instructions: 130000001 cycles: 218681008 heartbeat IPC: 0.3088 cumulative IPC: 0.3572 (Simulation time: 01 hr 40 min 34 sec)
Heartbeat CPU 0 instructions: 170000004 cycles: 225228927 heartbeat IPC: 0.731 cumulative IPC: 0.5447 (Simulation time: 01 hr 43 min 24 sec)
Heartbeat CPU 1 instructions: 130000004 cycles: 226086065 heartbeat IPC: 0.3578 cumulative IPC: 0.3726 (Simulation time: 01 hr 43 min 47 sec)
Heartbeat CPU 2 instructions: 60000004 cycles: 236879826 hear