WARNING: physical memory size is smaller than virtual memory size.
WARNING: option --warmup_instructions is deprecated. Use --warmup-instructions instead.
WARNING: option --simulation_instructions is deprecated. Use --simulation-instructions instead.

*** ChampSim Multicore Out-of-Order Simulator ***
Warmup Instructions: 50000000
Simulation Instructions: 150000000
Number of CPUs: 4
Page size: 4096

Off-chip DRAM Size: 4 GiB Channels: 1 Width: 64-bit Data Race: 3200 MT/s
Heartbeat CPU 2 instructions: 10000003 cycles: 2500091 heartbeat IPC: 4 cumulative IPC: 4 (Simulation time: 00 hr 02 min 12 sec)
Heartbeat CPU 0 instructions: 10000002 cycles: 2926037 heartbeat IPC: 3.418 cumulative IPC: 3.418 (Simulation time: 00 hr 02 min 38 sec)
Heartbeat CPU 3 instructions: 10000002 cycles: 3381147 heartbeat IPC: 2.958 cumulative IPC: 2.958 (Simulation time: 00 hr 03 min 06 sec)
Heartbeat CPU 2 instructions: 20000003 cycles: 5004876 heartbeat IPC: 3.992 cumulative IPC: 3.996 (Simulation time: 00 hr 04 min 39 sec)
Heartbeat CPU 0 instructions: 20000002 cycles: 5919130 heartbeat IPC: 3.341 cumulative IPC: 3.379 (Simulation time: 00 hr 05 min 30 sec)
Heartbeat CPU 3 instructions: 20000000 cycles: 6754859 heartbeat IPC: 2.964 cumulative IPC: 2.961 (Simulation time: 00 hr 06 min 15 sec)
Heartbeat CPU 1 instructions: 10000002 cycles: 6815238 heartbeat IPC: 1.467 cumulative IPC: 1.467 (Simulation time: 00 hr 06 min 19 sec)
Heartbeat CPU 2 instructions: 30000000 cycles: 7530966 heartbeat IPC: 3.959 cumulative IPC: 3.984 (Simulation time: 00 hr 06 min 59 sec)
Heartbeat CPU 0 instructions: 30000003 cycles: 8809873 heartbeat IPC: 3.459 cumulative IPC: 3.405 (Simulation time: 00 hr 08 min 12 sec)
Heartbeat CPU 3 instructions: 30000000 cycles: 10115996 heartbeat IPC: 2.975 cumulative IPC: 2.966 (Simulation time: 00 hr 09 min 27 sec)
Heartbeat CPU 2 instructions: 40000001 cycles: 10390613 heartbeat IPC: 3.497 cumulative IPC: 3.85 (Simulation time: 00 hr 09 min 42 sec)
Heartbeat CPU 0 instructions: 40000002 cycles: 11731193 heartbeat IPC: 3.423 cumulative IPC: 3.41 (Simulation time: 00 hr 10 min 59 sec)
Heartbeat CPU 2 instructions: 50000002 cycles: 13099264 heartbeat IPC: 3.692 cumulative IPC: 3.817 (Simulation time: 00 hr 12 min 17 sec)
Warmup finished CPU 2 instructions: 50000002 cycles: 13099265 cumulative IPC: 3.817 (Simulation time: 00 hr 12 min 17 sec)
Heartbeat CPU 3 instructions: 40000003 cycles: 13506328 heartbeat IPC: 2.95 cumulative IPC: 2.962 (Simulation time: 00 hr 12 min 41 sec)
Heartbeat CPU 1 instructions: 20000001 cycles: 13608085 heartbeat IPC: 1.472 cumulative IPC: 1.47 (Simulation time: 00 hr 12 min 47 sec)
Heartbeat CPU 0 instructions: 50000002 cycles: 14674416 heartbeat IPC: 3.398 cumulative IPC: 3.407 (Simulation time: 00 hr 13 min 49 sec)
Warmup finished CPU 0 instructions: 50000002 cycles: 14674417 cumulative IPC: 3.407 (Simulation time: 00 hr 13 min 49 sec)
Heartbeat CPU 2 instructions: 60000003 cycles: 15741962 heartbeat IPC: 3.784 cumulative IPC: 3.811 (Simulation time: 00 hr 14 min 52 sec)
Heartbeat CPU 3 instructions: 50000002 cycles: 16902096 heartbeat IPC: 2.945 cumulative IPC: 2.958 (Simulation time: 00 hr 16 min 01 sec)
Warmup finished CPU 3 instructions: 50000002 cycles: 16902097 cumulative IPC: 2.958 (Simulation time: 00 hr 16 min 01 sec)
Heartbeat CPU 0 instructions: 60000002 cycles: 17578523 heartbeat IPC: 3.443 cumulative IPC: 3.413 (Simulation time: 00 hr 16 min 41 sec)
Heartbeat CPU 2 instructions: 70000003 cycles: 18668937 heartbeat IPC: 3.416 cumulative IPC: 3.75 (Simulation time: 00 hr 17 min 43 sec)
Heartbeat CPU 3 instructions: 60000001 cycles: 20322542 heartbeat IPC: 2.924 cumulative IPC: 2.952 (Simulation time: 00 hr 19 min 20 sec)
Heartbeat CPU 1 instructions: 30000002 cycles: 20424307 heartbeat IPC: 1.467 cumulative IPC: 1.469 (Simulation time: 00 hr 19 min 26 sec)
Heartbeat CPU 0 instructions: 70000000 cycles: 20490346 heartbeat IPC: 3.434 cumulative IPC: 3.416 (Simulation time: 00 hr 19 min 30 sec)
Heartbeat CPU 2 instructions: 80000002 cycles: 21265572 heartbeat IPC: 3.851 cumulative IPC: 3.762 (Simulation time: 00 hr 20 min 16 sec)
Heartbeat CPU 0 instructions: 80000001 cycles: 23405192 heartbeat IPC: 3.431 cumulative IPC: 3.418 (Simulation time: 00 hr 22 min 20 sec)
Heartbeat CPU 3 instructions: 70000003 cycles: 23730148 heartbeat IPC: 2.935 cumulative IPC: 2.95 (Simulation time: 00 hr 22 min 40 sec)
Heartbeat CPU 2 instructions: 90000001 cycles: 23917896 heartbeat IPC: 3.77 cumulative IPC: 3.763 (Simulation time: 00 hr 22 min 51 sec)
Heartbeat CPU 0 instructions: 90000001 cycles: 26313264 heartbeat IPC: 3.439 cumulative IPC: 3.42 (Simulation time: 00 hr 25 min 10 sec)
Heartbeat CPU 2 instructions: 100000001 cycles: 26897146 heartbeat IPC: 3.357 cumulative IPC: 3.718 (Simulation time: 00 hr 25 min 41 sec)
Heartbeat CPU 3 instructions: 80000001 cycles: 27107025 heartbeat IPC: 2.961 cumulative IPC: 2.951 (Simulation time: 00 hr 25 min 52 sec)
Heartbeat CPU 1 instructions: 40000000 cycles: 27229436 heartbeat IPC: 1.469 cumulative IPC: 1.469 (Simulation time: 00 hr 25 min 59 sec)
Heartbeat CPU 0 instructions: 100000004 cycles: 29268916 heartbeat IPC: 3.383 cumulative IPC: 3.417 (Simulation time: 00 hr 27 min 51 sec)
Heartbeat CPU 2 instructions: 110000000 cycles: 29430471 heartbeat IPC: 3.947 cumulative IPC: 3.738 (Simulation time: 00 hr 27 min 59 sec)
Heartbeat CPU 3 instructions: 90000000 cycles: 30506746 heartbeat IPC: 2.941 cumulative IPC: 2.95 (Simulation time: 00 hr 28 min 57 sec)
Heartbeat CPU 2 instructions: 120000002 cycles: 32054185 heartbeat IPC: 3.811 cumulative IPC: 3.744 (Simulation time: 00 hr 30 min 27 sec)
Heartbeat CPU 0 instructions: 110000002 cycles: 32266771 heartbeat IPC: 3.336 cumulative IPC: 3.409 (Simulation time: 00 hr 30 min 40 sec)
Heartbeat CPU 3 instructions: 100000001 cycles: 33882596 heartbeat IPC: 2.962 cumulative IPC: 2.951 (Simulation time: 00 hr 32 min 13 sec)
Heartbeat CPU 1 instructions: 50000002 cycles: 34026395 heartbeat IPC: 1.471 cumulative IPC: 1.469 (Simulation time: 00 hr 32 min 22 sec)
Warmup finished CPU 1 instructions: 50000002 cycles: 34026396 cumulative IPC: 1.469 (Simulation time: 00 hr 32 min 22 sec)
Warmup complete CPU 0 instructions: 115824560 cycles: 34026396 cumulative IPC: 3.404 (Simulation time: 00 hr 32 min 22 sec)
Warmup complete CPU 1 instructions: 50000002 cycles: 34026396 cumulative IPC: 1.469 (Simulation time: 00 hr 32 min 22 sec)
Warmup complete CPU 2 instructions: 127888835 cycles: 34026396 cumulative IPC: 3.759 (Simulation time: 00 hr 32 min 22 sec)
Warmup complete CPU 3 instructions: 100435088 cycles: 34026396 cumulative IPC: 2.952 (Simulation time: 00 hr 32 min 22 sec)
Heartbeat CPU 2 instructions: 130000002 cycles: 47644239 heartbeat IPC: 0.6414 cumulative IPC: 0.155 (Simulation time: 00 hr 37 min 25 sec)
Heartbeat CPU 2 instructions: 140000001 cycles: 116004189 heartbeat IPC: 0.1463 cumulative IPC: 0.1477 (Simulation time: 01 hr 03 min 03 sec)
Heartbeat CPU 3 instructions: 110000002 cycles: 126348428 heartbeat IPC: 0.1081 cumulative IPC: 0.1036 (Simulation time: 01 hr 06 min 45 sec)
Heartbeat CPU 2 instructions: 150000002 cycles: 172641764 heartbeat IPC: 0.1766 cumulative IPC: 0.1595 (Simulation time: 01 hr 23 min 19 sec)
Heartbeat CPU 0 instructions: 120000002 cycles: 207010449 heartbeat IPC: 0.05723 cumulative IPC: 0.02414 (Simulation time: 01 hr 35 min 39 sec)
Heartbeat CPU 3 instructions: 120000003 cycles: 214428875 heartbeat IPC: 0.1135 cumulative IPC: 0.1085 (Simulation time: 01 hr 38 min 19 sec)
Heartbeat CPU 2 instructions: 160000003 cycles: 226885605 heartbeat IPC: 0.1844 cumulative IPC: 0.1665 (Simulation time: 01 hr 42 min 54 sec)
Heartbeat CPU 2 instructions: 170000004 cycles: 289448233 heartbeat IPC: 0.1598 cumulative IPC: 0.1649 (Simulation time: 02 hr 06 min 22 sec)
Heartbeat CPU 3 instructions: 130000000 cycles: 300295691 heartbeat IPC: 0.1165 cumulative IPC: 0.111 (Simulation time: 02 hr 10 min 34 sec)
Heartbeat CPU 2 instructions: 180000000 cycles: 347219827 heartbeat IPC: 0.1731 cumulative IPC: 0.1664 (Simulation time: 02 hr 28 min 33 sec)
Heartbeat CPU 1 instructions: 60000000 cycles: 349077761 heartbeat IPC: 0.03174 cumulative IPC: 0.03174 (Simulation time: 02 hr 29 min 11 sec)
Heartbeat CPU 2 instructions: 190000002 cycles: 390435440 heartbeat IPC: 0.2314 cumulative IPC: 0.1743 (Simulation time: 02 hr 43 min 44 sec)
Heartbeat CPU 3 instructions: 140000002 cycles: 395207584 heartbeat IPC: 0.1054 cumulative IPC: 0.1095 (Simulation time: 02 hr 45 min 38 sec)
Heartbeat CPU 2 instructions: 200000003 cycles: 398502698 heartbeat IPC: 1.24 cumulative IPC: 0.1978 (Simulation time: 02 hr 46 min 59 sec)
Heartbeat CPU 2 instructions: 210000003 cycles: 406949011 heartbeat IPC: 1.184 cumulative IPC: 0.2202 (Simulation time: 02 hr 50 min 27 sec)
Heartbeat CPU 2 instructions: 220000001 cycles: 419445352 heartbeat IPC: 0.8002 cumulative IPC: 0.239 (Simulation time: 02 hr 55 min 42 sec)
Heartbeat CPU 3 instructions: 150000004 cycles: 498062278 heartbeat IPC: 0.09722 cumulative IPC: 0.1068 (Simulation time: 03 hr 23 min 27 sec)
Heartbeat CPU 2 instructions: 230000001 cycles: 508002032 heartbeat IPC: 0.1129 cumulative IPC: 0.2154 (Simulation time: 03 hr 26 min 51 sec)
Heartbeat CPU 2 instructions: 240000001 cycles: 610833216 heartbeat IPC: 0.09725 cumulative IPC: 0.1944 (Simulation time: 04 hr 03 min 41 sec)
Heartbeat CPU 3 instructions: 160000004 cycles: 614600133 heartbeat IPC: 0.08581 cumulative IPC: 0.1026 (Simulation time: 04 hr 04 min 58 sec)
Heartbeat CPU 0 instructions: 130000000 cycles: 645268371 heartbeat IPC: 0.02282 cumulative IPC: 0.02319 (Simulation time: 04 hr 15 min 30 sec)
Heartbeat CPU 2 instructions: 250000000 cycles: 661433300 heartbeat IPC: 0.1976 cumulative IPC: 0.1946 (Simulation time: 04 hr 20 min 59 sec)
Heartbeat CPU 1 instructions: 70000003 cycles: 691707530 heartbeat IPC: 0.02919 cumulative IPC: 0.03041 (Simulation time: 04 hr 31 min 22 sec)
Heartbeat CPU 3 instructions: 170000002 cycles: 699801967 heartbeat IPC: 0.1174 cumulative IPC: 0.1045 (Simulation time: 04 hr 34 min 06 sec)
Heartbeat CPU 2 instructions: 260000000 cycles: 711431470 heartbeat IPC: 0.2 cumulative IPC: 0.195 (Simulation time: 04 hr 38 min 03 sec)
Heartbeat CPU 2 instructions: 270000000 cycles: 765167914 heartbeat IPC: 0.1861 cumulative IPC: 0.1944 (Simulation time: 04 hr 56 min 33 sec)
Heartbeat CPU 3 instructions: 180000002 cycles: 784837828 heartbeat IPC: 0.1176 cumulative IPC: 0.106 (Simulation time: 05 hr 03 min 19 sec)
Simulation finished CPU 2 instructions: 150000000 cycles: 768590270 cumulative IPC: 0.1952 (Simulation time: 05 hr 09 min 34 sec)
Heartbeat CPU 2 instructions: 280000002 cycles: 814630666 heartbeat IPC: 0.2022 cumulative IPC: 0.1949 (Simulation time: 05 hr 13 min 41 sec)
Heartbeat CPU 2 instructions: 290000004 cycles: 874693927 heartbeat IPC: 0.1665 cumulative IPC: 0.1928 (Simulation time: 05 hr 35 min 40 sec)
Heartbeat CPU 3 instructions: 190000002 cycles: 877936053 heartbeat IPC: 0.1074 cumulative IPC: 0.1061 (Simulation time: 05 hr 36 min 51 sec)
Heartbeat CPU 2 instructions: 300000002 cycles: 940708828 heartbeat IPC: 0.1515 cumulative IPC: 0.1898 (Simulation time: 05 hr 59 min 28 sec)
Heartbeat CPU 3 instructions: 200000000 cycles: 969435244 heartbeat IPC: 0.1093 cumulative IPC: 0.1064 (Simulation time: 06 hr 09 min 30 sec)
Heartbeat CPU 1 instructions: 80000002 cycles: 1001393728 heartbeat IPC: 0.03229 cumulative IPC: 0.03101 (Simulation time: 06 hr 20 min 23 sec)
Heartbeat CPU 2 instructions: 310000000 cycles: 1033765429 heartbeat IPC: 0.1075 cumulative IPC: 0.1822 (Simulation time: 06 hr 31 min 37 sec)
Heartbeat CPU 3 instructions: 210000000 cycles: 1069954783 heartbeat IPC: 0.09948 cumulative IPC: 0.1058 (Simulation time: 06 hr 44 min 11 sec)
Heartbeat CPU 2 instructions: 320000002 cycles: 1087315385 heartbeat IPC: 0.1867 cumulative IPC: 0.1824 (Simulation time: 06 hr 50 min 12 sec)
Heartbeat CPU 0 instructions: 140000004 cycles: 1128264550 heartbeat IPC: 0.0207 cumulative IPC: 0.02209 (Simulation time: 07 hr 04 min 53 sec)
Heartbeat CPU 3 instructions: 220000000 cycles: 1170218340 heartbeat IPC: 0.09974 cumulative IPC: 0.1052 (Simulation time: 07 hr 19 min 55 sec)
Heartbeat CPU 2 instructions: 330000002 cycles: 1179542992 heartbeat 