WARNING: physical memory size is smaller than virtual memory size.
WARNING: option --warmup_instructions is deprecated. Use --warmup-instructions instead.
WARNING: option --simulation_instructions is deprecated. Use --simulation-instructions instead.

*** ChampSim Multicore Out-of-Order Simulator ***
Warmup Instructions: 50000000
Simulation Instructions: 150000000
Number of CPUs: 4
Page size: 4096

Off-chip DRAM Size: 4 GiB Channels: 1 Width: 64-bit Data Race: 3200 MT/s
Heartbeat CPU 1 instructions: 10000001 cycles: 2519957 heartbeat IPC: 3.968 cumulative IPC: 3.968 (Simulation time: 00 hr 02 min 26 sec)
Heartbeat CPU 3 instructions: 10000004 cycles: 2812371 heartbeat IPC: 3.556 cumulative IPC: 3.556 (Simulation time: 00 hr 02 min 43 sec)
Heartbeat CPU 2 instructions: 10000001 cycles: 3008111 heartbeat IPC: 3.324 cumulative IPC: 3.324 (Simulation time: 00 hr 02 min 56 sec)
Heartbeat CPU 0 instructions: 10000003 cycles: 4784659 heartbeat IPC: 2.09 cumulative IPC: 2.09 (Simulation time: 00 hr 04 min 43 sec)
Heartbeat CPU 1 instructions: 20000000 cycles: 5059296 heartbeat IPC: 3.938 cumulative IPC: 3.953 (Simulation time: 00 hr 04 min 59 sec)
Heartbeat CPU 3 instructions: 20000003 cycles: 5630695 heartbeat IPC: 3.548 cumulative IPC: 3.552 (Simulation time: 00 hr 05 min 33 sec)
Heartbeat CPU 2 instructions: 20000000 cycles: 5735402 heartbeat IPC: 3.667 cumulative IPC: 3.487 (Simulation time: 00 hr 05 min 40 sec)
Heartbeat CPU 1 instructions: 30000000 cycles: 7578932 heartbeat IPC: 3.969 cumulative IPC: 3.958 (Simulation time: 00 hr 07 min 31 sec)
Heartbeat CPU 2 instructions: 30000001 cycles: 8356298 heartbeat IPC: 3.815 cumulative IPC: 3.59 (Simulation time: 00 hr 08 min 18 sec)
Heartbeat CPU 3 instructions: 30000002 cycles: 8446351 heartbeat IPC: 3.552 cumulative IPC: 3.552 (Simulation time: 00 hr 08 min 24 sec)
Heartbeat CPU 0 instructions: 20000004 cycles: 9552575 heartbeat IPC: 2.097 cumulative IPC: 2.094 (Simulation time: 00 hr 09 min 29 sec)
Heartbeat CPU 1 instructions: 40000000 cycles: 10118249 heartbeat IPC: 3.938 cumulative IPC: 3.953 (Simulation time: 00 hr 10 min 04 sec)
Heartbeat CPU 3 instructions: 40000002 cycles: 11300083 heartbeat IPC: 3.504 cumulative IPC: 3.54 (Simulation time: 00 hr 11 min 19 sec)
Heartbeat CPU 2 instructions: 40000003 cycles: 11576517 heartbeat IPC: 3.105 cumulative IPC: 3.455 (Simulation time: 00 hr 11 min 35 sec)
Heartbeat CPU 1 instructions: 50000002 cycles: 12637902 heartbeat IPC: 3.969 cumulative IPC: 3.956 (Simulation time: 00 hr 12 min 38 sec)
Warmup finished CPU 1 instructions: 50000002 cycles: 12637903 cumulative IPC: 3.956 (Simulation time: 00 hr 12 min 38 sec)
Heartbeat CPU 3 instructions: 50000002 cycles: 14273079 heartbeat IPC: 3.364 cumulative IPC: 3.503 (Simulation time: 00 hr 14 min 17 sec)
Warmup finished CPU 3 instructions: 50000002 cycles: 14273080 cumulative IPC: 3.503 (Simulation time: 00 hr 14 min 17 sec)
Heartbeat CPU 0 instructions: 30000001 cycles: 14333248 heartbeat IPC: 2.092 cumulative IPC: 2.093 (Simulation time: 00 hr 14 min 20 sec)
Heartbeat CPU 2 instructions: 50000001 cycles: 14854245 heartbeat IPC: 3.051 cumulative IPC: 3.366 (Simulation time: 00 hr 14 min 48 sec)
Warmup finished CPU 2 instructions: 50000001 cycles: 14854246 cumulative IPC: 3.366 (Simulation time: 00 hr 14 min 48 sec)
Heartbeat CPU 1 instructions: 60000002 cycles: 15177340 heartbeat IPC: 3.938 cumulative IPC: 3.953 (Simulation time: 00 hr 15 min 07 sec)
Heartbeat CPU 3 instructions: 60000004 cycles: 17145909 heartbeat IPC: 3.481 cumulative IPC: 3.499 (Simulation time: 00 hr 17 min 07 sec)
Heartbeat CPU 2 instructions: 60000000 cycles: 17374056 heartbeat IPC: 3.969 cumulative IPC: 3.453 (Simulation time: 00 hr 17 min 20 sec)
Heartbeat CPU 1 instructions: 70000000 cycles: 17696968 heartbeat IPC: 3.969 cumulative IPC: 3.955 (Simulation time: 00 hr 17 min 38 sec)
Heartbeat CPU 0 instructions: 40000001 cycles: 19113788 heartbeat IPC: 2.092 cumulative IPC: 2.093 (Simulation time: 00 hr 18 min 54 sec)
Heartbeat CPU 2 instructions: 70000000 cycles: 19874056 heartbeat IPC: 4 cumulative IPC: 3.522 (Simulation time: 00 hr 19 min 34 sec)
Heartbeat CPU 3 instructions: 70000000 cycles: 20121054 heartbeat IPC: 3.361 cumulative IPC: 3.479 (Simulation time: 00 hr 19 min 47 sec)
Heartbeat CPU 1 instructions: 80000000 cycles: 20216649 heartbeat IPC: 3.969 cumulative IPC: 3.957 (Simulation time: 00 hr 19 min 52 sec)
Heartbeat CPU 2 instructions: 80000000 cycles: 22374056 heartbeat IPC: 4 cumulative IPC: 3.576 (Simulation time: 00 hr 21 min 44 sec)
Heartbeat CPU 1 instructions: 90000002 cycles: 22755911 heartbeat IPC: 3.938 cumulative IPC: 3.955 (Simulation time: 00 hr 22 min 04 sec)
Heartbeat CPU 3 instructions: 80000003 cycles: 23024811 heartbeat IPC: 3.444 cumulative IPC: 3.475 (Simulation time: 00 hr 22 min 19 sec)
Heartbeat CPU 0 instructions: 50000003 cycles: 23887320 heartbeat IPC: 2.095 cumulative IPC: 2.093 (Simulation time: 00 hr 23 min 05 sec)
Warmup finished CPU 0 instructions: 50000003 cycles: 23887321 cumulative IPC: 2.093 (Simulation time: 00 hr 23 min 05 sec)
Warmup complete CPU 0 instructions: 50000003 cycles: 23887321 cumulative IPC: 2.093 (Simulation time: 00 hr 23 min 05 sec)
Warmup complete CPU 1 instructions: 94446703 cycles: 23887321 cumulative IPC: 3.954 (Simulation time: 00 hr 23 min 05 sec)
Warmup complete CPU 2 instructions: 86052977 cycles: 23887321 cumulative IPC: 3.602 (Simulation time: 00 hr 23 min 05 sec)
Warmup complete CPU 3 instructions: 83013181 cycles: 23887321 cumulative IPC: 3.475 (Simulation time: 00 hr 23 min 05 sec)
Heartbeat CPU 1 instructions: 100000002 cycles: 35598727 heartbeat IPC: 0.7786 cumulative IPC: 0.4742 (Simulation time: 00 hr 27 min 55 sec)
Heartbeat CPU 2 instructions: 90000000 cycles: 47434208 heartbeat IPC: 0.399 cumulative IPC: 0.1676 (Simulation time: 00 hr 32 min 56 sec)
Heartbeat CPU 1 instructions: 110000003 cycles: 58019548 heartbeat IPC: 0.446 cumulative IPC: 0.4557 (Simulation time: 00 hr 37 min 16 sec)
Heartbeat CPU 1 instructions: 120000003 cycles: 79418185 heartbeat IPC: 0.4673 cumulative IPC: 0.4602 (Simulation time: 00 hr 46 min 07 sec)
Heartbeat CPU 0 instructions: 60000000 cycles: 80069610 heartbeat IPC: 0.178 cumulative IPC: 0.178 (Simulation time: 00 hr 46 min 25 sec)
Heartbeat CPU 3 instructions: 90000001 cycles: 83659698 heartbeat IPC: 0.1649 cumulative IPC: 0.1169 (Simulation time: 00 hr 47 min 58 sec)
Heartbeat CPU 2 instructions: 100000003 cycles: 101730844 heartbeat IPC: 0.1842 cumulative IPC: 0.1792 (Simulation time: 00 hr 55 min 38 sec)
Heartbeat CPU 1 instructions: 130000000 cycles: 108696542 heartbeat IPC: 0.3415 cumulative IPC: 0.4192 (Simulation time: 00 hr 58 min 34 sec)
Heartbeat CPU 0 instructions: 70000004 cycles: 128701703 heartbeat IPC: 0.2056 cumulative IPC: 0.1908 (Simulation time: 01 hr 07 min 20 sec)
Heartbeat CPU 3 instructions: 100000003 cycles: 143983395 heartbeat IPC: 0.1658 cumulative IPC: 0.1414 (Simulation time: 01 hr 13 min 29 sec)
Heartbeat CPU 2 instructions: 110000000 cycles: 148393001 heartbeat IPC: 0.2143 cumulative IPC: 0.1923 (Simulation time: 01 hr 15 min 14 sec)
Heartbeat CPU 1 instructions: 140000004 cycles: 149771937 heartbeat IPC: 0.2435 cumulative IPC: 0.3619 (Simulation time: 01 hr 15 min 48 sec)
Heartbeat CPU 0 instructions: 80000003 cycles: 171149135 heartbeat IPC: 0.2356 cumulative IPC: 0.2037 (Simulation time: 01 hr 24 min 32 sec)
Heartbeat CPU 2 instructions: 120000001 cycles: 185812093 heartbeat IPC: 0.2672 cumulative IPC: 0.2096 (Simulation time: 01 hr 30 min 21 sec)
Heartbeat CPU 1 instructions: 150000002 cycles: 187264984 heartbeat IPC: 0.2667 cumulative IPC: 0.34 (Simulation time: 01 hr 30 min 55 sec)
Heartbeat CPU 0 instructions: 90000004 cycles: 215252317 heartbeat IPC: 0.2267 cumulative IPC: 0.209 (Simulation time: 01 hr 41 min 59 sec)
Heartbeat CPU 1 instructions: 160000002 cycles: 226203065 heartbeat IPC: 0.2568 cumulative IPC: 0.324 (Simulation time: 01 hr 46 min 25 sec)
Heartbeat CPU 2 instructions: 130000004 cycles: 226376575 heartbeat IPC: 0.2465 cumulative IPC: 0.217 (Simulation time: 01 hr 46 min 29 sec)
Heartbeat CPU 0 instructions: 100000003 cycles: 270943524 heartbeat IPC: 0.1796 cumulative IPC: 0.2024 (Simulation time: 02 hr 04 min 06 sec)
Heartbeat CPU 1 instructions: 170000001 cycles: 280724149 heartbeat IPC: 0.1834 cumulative IPC: 0.2942 (Simulation time: 02 hr 08 min 10 sec)
Heartbeat CPU 2 instructions: 140000004 cycles: 288650620 heartbeat IPC: 0.1606 cumulative IPC: 0.2038 (Simulation time: 02 hr 11 min 17 sec)
Heartbeat CPU 0 instructions: 110000002 cycles: 325197654 heartbeat IPC: 0.1843 cumulative IPC: 0.1991 (Simulation time: 02 hr 26 min 14 sec)
Heartbeat CPU 3 instructions: 110000000 cycles: 328192736 heartbeat IPC: 0.05429 cumulative IPC: 0.08868 (Simulation time: 02 hr 27 min 38 sec)
Heartbeat CPU 1 instructions: 180000004 cycles: 328757190 heartbeat IPC: 0.2082 cumulative IPC: 0.2806 (Simulation time: 02 hr 27 min 54 sec)
Heartbeat CPU 2 instructions: 150000000 cycles: 341208156 heartbeat IPC: 0.1903 cumulative IPC: 0.2015 (Simulation time: 02 hr 33 min 01 sec)
Heartbeat CPU 1 instructions: 190000003 cycles: 374635879 heartbeat IPC: 0.218 cumulative IPC: 0.2724 (Simulation time: 02 hr 47 min 08 sec)
Heartbeat CPU 0 instructions: 120000002 cycles: 374832681 heartbeat IPC: 0.2015 cumulative IPC: 0.1995 (Simulation time: 02 hr 47 min 12 sec)
Heartbeat CPU 2 instructions: 160000003 cycles: 392238056 heartbeat IPC: 0.196 cumulative IPC: 0.2008 (Simulation time: 02 hr 54 min 41 sec)
Heartbeat CPU 1 instructions: 200000003 cycles: 420296748 heartbeat IPC: 0.219 cumulative IPC: 0.2663 (Simulation time: 03 hr 06 min 41 sec)
Heartbeat CPU 0 instructions: 130000000 cycles: 424524234 heartbeat IPC: 0.2012 cumulative IPC: 0.1997 (Simulation time: 03 hr 08 min 24 sec)
Heartbeat CPU 2 instructions: 170000002 cycles: 443183565 heartbeat IPC: 0.1963 cumulative IPC: 0.2002 (Simulation time: 03 hr 16 min 08 sec)
Heartbeat CPU 3 instructions: 120000004 cycles: 454413548 heartbeat IPC: 0.07923 cumulative IPC: 0.08591 (Simulation time: 03 hr 20 min 57 sec)
Heartbeat CPU 1 instructions: 210000003 cycles: 467314753 heartbeat IPC: 0.2127 cumulative IPC: 0.2606 (Simulation time: 03 hr 26 min 16 sec)
Heartbeat CPU 0 instructions: 140000004 cycles: 475969371 heartbeat IPC: 0.1944 cumulative IPC: 0.1991 (Simulation time: 03 hr 29 min 43 sec)
Heartbeat CPU 2 instructions: 180000003 cycles: 493552603 heartbeat IPC: 0.1985 cumulative IPC: 0.2 (Simulation time: 03 hr 36 min 52 sec)
Heartbeat CPU 1 instructions: 220000002 cycles: 512228846 heartbeat IPC: 0.2226 cumulative IPC: 0.2571 (Simulation time: 03 hr 44 min 29 sec)
Heartbeat CPU 0 instructions: 150000001 cycles: 524814138 heartbeat IPC: 0.2047 cumulative IPC: 0.1996 (Simulation time: 03 hr 49 min 38 sec)
Heartbeat CPU 2 instructions: 190000000 cycles: 538790414 heartbeat IPC: 0.2211 cumulative IPC: 0.2019 (Simulation time: 03 hr 55 min 19 sec)
Heartbeat CPU 3 instructions: 130000001 cycles: 548460707 heartbeat IPC: 0.1063 cumulative IPC: 0.08957 (Simulation time: 03 hr 59 min 18 sec)
Heartbeat CPU 1 instructions: 230000004 cycles: 553068315 heartbeat IPC: 0.2449 cumulative IPC: 0.2562 (Simulation time: 04 hr 01 min 14 sec)
Heartbeat CPU 0 instructions: 160000000 cycles: 570359769 heartbeat IPC: 0.2196 cumulative IPC: 0.2013 (Simulation time: 04 hr 08 min 09 sec)
Heartbeat CPU 2 instructions: 200000002 cycles: 591543272 heartbeat IPC: 0.1896 cumulative IPC: 0.2007 (Simulation time: 04 hr 16 min 25 sec)
Heartbeat CPU 1 instructions: 240000002 cycles: 601444491 heartbeat IPC: 0.2067 cumulative IPC: 0.252 (Simulation time: 04 hr 20 min 21 sec)
Simulation finished CPU 1 instructions: 150000001 cycles: 595451599 cumulative IPC: 0.2519 (Simulation time: 04 hr 27 min 28 sec)
Heartbeat CPU 0 instructions: 170000001 cycles: 621302194 heartbeat IPC: 0.1963 cumulative IPC: 0.2009 (Simulation time: 04 hr 28 min 14 sec)
Heartbeat CPU 2 instructions: 210000002 cycles: 637145413 heartbeat IPC: 0.2193 cumulative IPC: 0.2021 (Simulation time: 04 hr 34 min 55 sec)
Heartbeat CPU 1 instructions: 250000004 cycles: 641905791 heartbeat IPC: 0.2471 cumulative IPC: 0.2517 (Simulation time: 04 hr 36 min 50 sec)
Heartbeat CPU 0 instructions: 180000000 cycles: 667391065 heartbeat IPC: 