WARNING: physical memory size is smaller than virtual memory size.
WARNING: option --warmup_instructions is deprecated. Use --warmup-instructions instead.
WARNING: option --simulation_instructions is deprecated. Use --simulation-instructions instead.

*** ChampSim Multicore Out-of-Order Simulator ***
Warmup Instructions: 50000000
Simulation Instructions: 150000000
Number of CPUs: 4
Page size: 4096

Off-chip DRAM Size: 4 GiB Channels: 1 Width: 64-bit Data Race: 3200 MT/s
Heartbeat CPU 2 instructions: 10000001 cycles: 2512264 heartbeat IPC: 3.98 cumulative IPC: 3.98 (Simulation time: 00 hr 02 min 16 sec)
Heartbeat CPU 3 instructions: 10000003 cycles: 2916187 heartbeat IPC: 3.429 cumulative IPC: 3.429 (Simulation time: 00 hr 02 min 39 sec)
Heartbeat CPU 0 instructions: 10000004 cycles: 3078874 heartbeat IPC: 3.248 cumulative IPC: 3.248 (Simulation time: 00 hr 02 min 48 sec)
Heartbeat CPU 1 instructions: 10000002 cycles: 3682270 heartbeat IPC: 2.716 cumulative IPC: 2.716 (Simulation time: 00 hr 03 min 20 sec)
Heartbeat CPU 2 instructions: 20000001 cycles: 5020457 heartbeat IPC: 3.987 cumulative IPC: 3.984 (Simulation time: 00 hr 04 min 36 sec)
Heartbeat CPU 3 instructions: 20000000 cycles: 5826009 heartbeat IPC: 3.437 cumulative IPC: 3.433 (Simulation time: 00 hr 05 min 20 sec)
Heartbeat CPU 0 instructions: 20000003 cycles: 6163422 heartbeat IPC: 3.242 cumulative IPC: 3.245 (Simulation time: 00 hr 05 min 41 sec)
Heartbeat CPU 1 instructions: 20000002 cycles: 7363107 heartbeat IPC: 2.717 cumulative IPC: 2.716 (Simulation time: 00 hr 06 min 47 sec)
Heartbeat CPU 2 instructions: 30000001 cycles: 7532758 heartbeat IPC: 3.98 cumulative IPC: 3.983 (Simulation time: 00 hr 06 min 57 sec)
Heartbeat CPU 3 instructions: 30000003 cycles: 8730530 heartbeat IPC: 3.443 cumulative IPC: 3.436 (Simulation time: 00 hr 08 min 03 sec)
Heartbeat CPU 0 instructions: 30000003 cycles: 9241414 heartbeat IPC: 3.249 cumulative IPC: 3.246 (Simulation time: 00 hr 08 min 32 sec)
Heartbeat CPU 2 instructions: 40000001 cycles: 10045079 heartbeat IPC: 3.98 cumulative IPC: 3.982 (Simulation time: 00 hr 09 min 17 sec)
Heartbeat CPU 1 instructions: 30000002 cycles: 11045158 heartbeat IPC: 2.716 cumulative IPC: 2.716 (Simulation time: 00 hr 10 min 15 sec)
Heartbeat CPU 3 instructions: 40000000 cycles: 11622237 heartbeat IPC: 3.458 cumulative IPC: 3.442 (Simulation time: 00 hr 10 min 47 sec)
Heartbeat CPU 0 instructions: 40000002 cycles: 12318582 heartbeat IPC: 3.25 cumulative IPC: 3.247 (Simulation time: 00 hr 11 min 26 sec)
Heartbeat CPU 2 instructions: 50000001 cycles: 12557351 heartbeat IPC: 3.98 cumulative IPC: 3.982 (Simulation time: 00 hr 11 min 40 sec)
Warmup finished CPU 2 instructions: 50000001 cycles: 12557352 cumulative IPC: 3.982 (Simulation time: 00 hr 11 min 40 sec)
Heartbeat CPU 3 instructions: 50000000 cycles: 14612781 heartbeat IPC: 3.344 cumulative IPC: 3.422 (Simulation time: 00 hr 13 min 36 sec)
Warmup finished CPU 3 instructions: 50000000 cycles: 14612782 cumulative IPC: 3.422 (Simulation time: 00 hr 13 min 36 sec)
Heartbeat CPU 1 instructions: 40000000 cycles: 14725383 heartbeat IPC: 2.717 cumulative IPC: 2.716 (Simulation time: 00 hr 13 min 42 sec)
Heartbeat CPU 2 instructions: 60000003 cycles: 15069660 heartbeat IPC: 3.98 cumulative IPC: 3.982 (Simulation time: 00 hr 14 min 02 sec)
Heartbeat CPU 0 instructions: 50000003 cycles: 15385686 heartbeat IPC: 3.26 cumulative IPC: 3.25 (Simulation time: 00 hr 14 min 23 sec)
Warmup finished CPU 0 instructions: 50000003 cycles: 15385687 cumulative IPC: 3.25 (Simulation time: 00 hr 14 min 23 sec)
Heartbeat CPU 3 instructions: 60000001 cycles: 17506012 heartbeat IPC: 3.456 cumulative IPC: 3.427 (Simulation time: 00 hr 16 min 38 sec)
Heartbeat CPU 2 instructions: 70000000 cycles: 17581910 heartbeat IPC: 3.98 cumulative IPC: 3.981 (Simulation time: 00 hr 16 min 44 sec)
Heartbeat CPU 1 instructions: 50000001 cycles: 18408893 heartbeat IPC: 2.715 cumulative IPC: 2.716 (Simulation time: 00 hr 17 min 37 sec)
Warmup finished CPU 1 instructions: 50000001 cycles: 18408894 cumulative IPC: 2.716 (Simulation time: 00 hr 17 min 37 sec)
Warmup complete CPU 0 instructions: 59823587 cycles: 18408894 cumulative IPC: 3.25 (Simulation time: 00 hr 17 min 37 sec)
Warmup complete CPU 1 instructions: 50000001 cycles: 18408894 cumulative IPC: 2.716 (Simulation time: 00 hr 17 min 37 sec)
Warmup complete CPU 2 instructions: 73291680 cycles: 18408894 cumulative IPC: 3.981 (Simulation time: 00 hr 17 min 37 sec)
Warmup complete CPU 3 instructions: 63044702 cycles: 18408894 cumulative IPC: 3.425 (Simulation time: 00 hr 17 min 37 sec)
Heartbeat CPU 0 instructions: 60000000 cycles: 20847873 heartbeat IPC: 1.831 cumulative IPC: 0.07233 (Simulation time: 00 hr 18 min 44 sec)
Heartbeat CPU 3 instructions: 70000000 cycles: 26492360 heartbeat IPC: 1.113 cumulative IPC: 0.8604 (Simulation time: 00 hr 20 min 59 sec)
Heartbeat CPU 3 instructions: 80000003 cycles: 37049175 heartbeat IPC: 0.9473 cumulative IPC: 0.9096 (Simulation time: 00 hr 25 min 33 sec)
Heartbeat CPU 1 instructions: 60000004 cycles: 37254503 heartbeat IPC: 0.5306 cumulative IPC: 0.5306 (Simulation time: 00 hr 25 min 38 sec)
Heartbeat CPU 3 instructions: 90000001 cycles: 48413221 heartbeat IPC: 0.88 cumulative IPC: 0.8984 (Simulation time: 00 hr 30 min 18 sec)
Heartbeat CPU 2 instructions: 80000003 cycles: 52000904 heartbeat IPC: 0.2905 cumulative IPC: 0.1997 (Simulation time: 00 hr 31 min 45 sec)
Heartbeat CPU 1 instructions: 70000000 cycles: 56033811 heartbeat IPC: 0.5325 cumulative IPC: 0.5316 (Simulation time: 00 hr 33 min 23 sec)
Heartbeat CPU 3 instructions: 100000003 cycles: 59095394 heartbeat IPC: 0.9361 cumulative IPC: 0.9083 (Simulation time: 00 hr 34 min 39 sec)
Heartbeat CPU 3 instructions: 110000003 cycles: 69126739 heartbeat IPC: 0.9969 cumulative IPC: 0.9258 (Simulation time: 00 hr 38 min 57 sec)
Heartbeat CPU 1 instructions: 80000004 cycles: 74814806 heartbeat IPC: 0.5325 cumulative IPC: 0.5319 (Simulation time: 00 hr 41 min 19 sec)
Heartbeat CPU 3 instructions: 120000004 cycles: 81470459 heartbeat IPC: 0.8101 cumulative IPC: 0.9032 (Simulation time: 00 hr 44 min 07 sec)
Heartbeat CPU 3 instructions: 130000003 cycles: 92936579 heartbeat IPC: 0.8721 cumulative IPC: 0.8984 (Simulation time: 00 hr 48 min 56 sec)
Heartbeat CPU 1 instructions: 90000000 cycles: 93662724 heartbeat IPC: 0.5306 cumulative IPC: 0.5315 (Simulation time: 00 hr 49 min 14 sec)
Heartbeat CPU 2 instructions: 90000004 cycles: 103274603 heartbeat IPC: 0.195 cumulative IPC: 0.1969 (Simulation time: 00 hr 53 min 09 sec)
Heartbeat CPU 3 instructions: 140000004 cycles: 106180451 heartbeat IPC: 0.7551 cumulative IPC: 0.8768 (Simulation time: 00 hr 54 min 18 sec)
Heartbeat CPU 1 instructions: 100000001 cycles: 112785472 heartbeat IPC: 0.5229 cumulative IPC: 0.5298 (Simulation time: 00 hr 56 min 56 sec)
Heartbeat CPU 3 instructions: 150000003 cycles: 131398043 heartbeat IPC: 0.3965 cumulative IPC: 0.7696 (Simulation time: 01 hr 04 min 20 sec)
Heartbeat CPU 1 instructions: 110000003 cycles: 147842338 heartbeat IPC: 0.2853 cumulative IPC: 0.4636 (Simulation time: 01 hr 10 min 45 sec)
Heartbeat CPU 1 instructions: 120000002 cycles: 185023030 heartbeat IPC: 0.269 cumulative IPC: 0.4201 (Simulation time: 01 hr 24 min 45 sec)
Heartbeat CPU 3 instructions: 160000001 cycles: 188630411 heartbeat IPC: 0.1747 cumulative IPC: 0.5696 (Simulation time: 01 hr 26 min 08 sec)
Heartbeat CPU 2 instructions: 100000000 cycles: 220480596 heartbeat IPC: 0.08532 cumulative IPC: 0.1322 (Simulation time: 01 hr 38 min 07 sec)
Heartbeat CPU 1 instructions: 130000000 cycles: 221784796 heartbeat IPC: 0.272 cumulative IPC: 0.3934 (Simulation time: 01 hr 38 min 37 sec)
Heartbeat CPU 3 instructions: 170000002 cycles: 229560917 heartbeat IPC: 0.2443 cumulative IPC: 0.5065 (Simulation time: 01 hr 41 min 43 sec)
Heartbeat CPU 3 instructions: 180000001 cycles: 239803607 heartbeat IPC: 0.9763 cumulative IPC: 0.5283 (Simulation time: 01 hr 45 min 47 sec)
Heartbeat CPU 0 instructions: 70000000 cycles: 242105812 heartbeat IPC: 0.0452 cumulative IPC: 0.04549 (Simulation time: 01 hr 46 min 48 sec)
Heartbeat CPU 1 instructions: 140000000 cycles: 242542701 heartbeat IPC: 0.4817 cumulative IPC: 0.4015 (Simulation time: 01 hr 47 min 01 sec)
Heartbeat CPU 3 instructions: 190000004 cycles: 249662011 heartbeat IPC: 1.014 cumulative IPC: 0.549 (Simulation time: 01 hr 49 min 59 sec)
Heartbeat CPU 3 instructions: 200000000 cycles: 258018601 heartbeat IPC: 1.197 cumulative IPC: 0.5716 (Simulation time: 01 hr 53 min 31 sec)
Heartbeat CPU 1 instructions: 150000004 cycles: 261633809 heartbeat IPC: 0.5238 cumulative IPC: 0.4111 (Simulation time: 01 hr 55 min 01 sec)
Heartbeat CPU 3 instructions: 210000000 cycles: 268151193 heartbeat IPC: 0.9869 cumulative IPC: 0.5884 (Simulation time: 01 hr 57 min 43 sec)
Simulation finished CPU 3 instructions: 150000000 cycles: 253141357 cumulative IPC: 0.5926 (Simulation time: 01 hr 59 min 08 sec)
Heartbeat CPU 2 instructions: 110000002 cycles: 274576135 heartbeat IPC: 0.1849 cumulative IPC: 0.1433 (Simulation time: 02 hr 00 min 19 sec)
Heartbeat CPU 3 instructions: 220000001 cycles: 279144629 heartbeat IPC: 0.9096 cumulative IPC: 0.602 (Simulation time: 02 hr 02 min 10 sec)
Heartbeat CPU 1 instructions: 160000004 cycles: 280473523 heartbeat IPC: 0.5308 cumulative IPC: 0.4197 (Simulation time: 02 hr 02 min 43 sec)
Heartbeat CPU 3 instructions: 230000004 cycles: 289784536 heartbeat IPC: 0.9399 cumulative IPC: 0.6152 (Simulation time: 02 hr 06 min 31 sec)
Heartbeat CPU 1 instructions: 170000000 cycles: 299299139 heartbeat IPC: 0.5312 cumulative IPC: 0.4272 (Simulation time: 02 hr 10 min 30 sec)
Heartbeat CPU 3 instructions: 240000002 cycles: 300100422 heartbeat IPC: 0.9694 cumulative IPC: 0.6282 (Simulation time: 02 hr 10 min 50 sec)
Heartbeat CPU 3 instructions: 250000004 cycles: 310935914 heartbeat IPC: 0.9229 cumulative IPC: 0.6391 (Simulation time: 02 hr 15 min 12 sec)
Heartbeat CPU 1 instructions: 180000000 cycles: 318304900 heartbeat IPC: 0.5262 cumulative IPC: 0.4335 (Simulation time: 02 hr 18 min 10 sec)
Heartbeat CPU 3 instructions: 260000004 cycles: 321894746 heartbeat IPC: 0.9125 cumulative IPC: 0.649 (Simulation time: 02 hr 19 min 41 sec)
Heartbeat CPU 2 instructions: 120000003 cycles: 326182534 heartbeat IPC: 0.1938 cumulative IPC: 0.1518 (Simulation time: 02 hr 21 min 29 sec)
Heartbeat CPU 3 instructions: 270000003 cycles: 332250006 heartbeat IPC: 0.9657 cumulative IPC: 0.6594 (Simulation time: 02 hr 24 min 01 sec)
Heartbeat CPU 1 instructions: 190000002 cycles: 337173415 heartbeat IPC: 0.53 cumulative IPC: 0.4392 (Simulation time: 02 hr 26 min 07 sec)
Heartbeat CPU 3 instructions: 280000004 cycles: 343038293 heartbeat IPC: 0.9269 cumulative IPC: 0.6683 (Simulation time: 02 hr 28 min 25 sec)
Heartbeat CPU 3 instructions: 290000000 cycles: 354099303 heartbeat IPC: 0.9041 cumulative IPC: 0.6761 (Simulation time: 02 hr 33 min 04 sec)
Heartbeat CPU 1 instructions: 200000002 cycles: 356456433 heartbeat IPC: 0.5186 cumulative IPC: 0.4437 (Simulation time: 02 hr 34 min 03 sec)
Simulation finished CPU 1 instructions: 150000001 cycles: 338047540 cumulative IPC: 0.4437 (Simulation time: 02 hr 34 min 03 sec)
Heartbeat CPU 3 instructions: 300000004 cycles: 365507451 heartbeat IPC: 0.8766 cumulative IPC: 0.6827 (Simulation time: 02 hr 37 min 55 sec)
Heartbeat CPU 1 instructions: 210000002 cycles: 375347594 heartbeat IPC: 0.5293 cumulative IPC: 0.4483 (Simulation time: 02 hr 41 min 55 sec)
Heartbeat CPU 3 instructions: 310000000 cycles: 377044803 heartbeat IPC: 0.8667 cumulative IPC: 0.6886 (Simulation time: 02 hr 42 min 37 sec)
Heartbeat CPU 2 instructions: 130000001 cycles: 377632683 heartbeat IPC: 0.1944 cumulative IPC: 0.1579 (Simulation time: 02 hr 42 min 50 sec)
Heartbeat CPU 3 instructions: 320000003 cycles: 388713221 heartbeat IPC: 0.857 cumulative IPC: 0.6939 (Simulation time: 02 hr 47 min 18 sec)
Heartbeat CPU 1 instructions: 220000000 cycles: 394330996 heartbeat IPC: 0.5268 cumulative IPC: 0.4522 (Simulation time: 02 hr 49 min 32 sec)
Heartbeat CPU 0 instructions: 80000000 cycles: 396200893 heartbeat IPC: 0.06489 cumulative IPC: 0.05341 (Simulation time: 02 hr 50 min 19 sec)
Heartbeat CPU 3 instructions: 330000001 cycles: 398481738 heartbeat IPC: 1.024 cumulative IPC: 0.7024 (Simulation time: 02 hr 51 min 15 sec)
Heartbeat CPU 3 instructions: 340000002 cycles: 405612687 heartbeat IPC: 1.402 cumulative IPC: 0.7153 (Simulation time: 02 hr 54 min 24 sec)
Heartbeat CPU 1 instructions: 230000002 cycles: 412986456 heartbeat IPC: 0.536 cumulative IPC: 0.4562 (Simulation time: 02 hr 57 min 38 sec)
Heartbeat CPU 3 instructions: 350000003 cycles: 415385541 heartbeat IPC: 1.023 cumulative IPC: 0.7229 (Simulation time: 02 hr 58 min 37 sec)
Heartbeat CPU 3 instructions: 360000003 cycles: 426689681 heartbeat IPC: 0.8846 cumulative IPC: 0.7273 (Simulation time: 03 hr 03 min 18 sec)
Heartbeat CPU 2 instructions: 140000003 cycles: 428638058 heartbeat IPC: 0.1961 cumulative IPC: 0.1626 (Simulation time: 03 hr 04 min 04 sec)
Heartbeat CPU 1 instructions: 240000003 cycles: 432487402 heartbeat IPC: 0.5128 cumulative IPC: 0.4589 (Simulation time: 03 hr 05 min 35 sec)
Heartbeat CPU 3 instructions: 370000004 cycles: 440732353 heartbeat IPC: 0.7121 cumulative IPC: 0.7268 (Simulation time: 03 hr 08 min 47 sec)
Heartbeat CPU 1 instructions: 250000003 cycles: 451417248 heartbeat IPC: 0.5283 cumulative IPC: 0.4619 (Simulation time: 03 hr 13 min 18 sec)
Heartbeat CPU 3 instructions: 380000001 cycles: 452309462 heartbeat IPC: 0.8638 cumulative IPC: 0.7305 (Simulation time: 03 hr 13 min 39 sec)
Heartbeat CPU 3 instructions: 390000001 cycles: 465485642 heartbeat IPC: 0.7589 cumulative IPC: 0.7313 (Simulation time: 03 hr 18 min 59 sec)
Heartbeat CPU 1 instructions: 260000004 cycles: 470458924 heartbeat IPC: 0.5252 cumulative IPC: 0.4646 (Simulation time: 03 hr 20 min 56 sec)
Heartbeat CPU 3 instructions: 400000000 cycles: 477422260 heartbeat IPC: 0.8378 cumulative IPC: 0.7341 (Simulation time: 03 hr 23 min 43 sec)
Heartbeat CPU 2 instructions: 150000004 cycles: 480500745 heartbeat IPC: 0.1928 cumulative IPC: 0.166 (Simulation time: 03 hr 24 min 55 sec)
Heartbeat CPU 1 instructions: 270000002 cycles: 489624179 heartbeat IPC: 0.5218 cumulative IPC: 0.4669 (Simulation time: 03 hr 28 min 30 sec)
Heartbeat CPU 3 instructions: 410000002 cycles: 490295099 heartbeat IPC: 0.7768 cumulative IPC: 0.7353 (Simulation time: 03 hr 28 min 48 sec)
Heartbeat CPU 3 instructions: 420000000 cycles: 501990936 heartbeat IPC: 0.855 cumulative IPC: 0.7381 (Simulation time: 03 hr 33 min 49 sec)
Heartbeat CPU 1 instructions: 280000000 cycles: 508373491 heartbeat IPC: 0.5334 cumulative IPC: 0.4694 (Simulation time: 03 hr 36 min 24 sec)
Heartbeat CPU 3 instructions: 430000002 cycles: 513449247 heartbeat IPC: 0.8727 cumulative IPC: 0.7413 (Simulation time: 03 hr 38 min 22 sec)
Heartbeat CPU 3 instructions: 440000000 cycles: 525879215 heartbeat IPC: 0.8045 cumulative IPC: 0.7428 (Simulation time: 03 hr 43 min 26 sec)
Heartbeat CPU 1 instructions: 290000001 cycles: 527645101 heartbeat IPC: 0.5189 cumulative IPC: 0.4713 (Simulation time: 03 hr 44 min 08 sec)
Heartbeat CPU 2 instructions: 160000000 cycles: 533216161 heartbeat IPC: 0.1897 cumulative IPC: 0.1684 (Simulation time: 03 hr 46 min 16 sec)
Heartbeat CPU 3 instructions: 450000003 cycles: 539243472 heartbeat IPC: 0.7483 cumulative IPC: 0.743 (Simulation time: 03 hr 48 min 34 sec)
Heartbeat CPU 1 instructions: 300000003 cycles: 546599034 heartbeat IPC: 0.5276 cumulative IPC: 0.4733 (Simulation time: 03 hr 51 min 35 sec)
Heartbeat CPU 0 instructions: 90000004 cycles: 547970155 heartbeat IPC: 0.06589 cumulative IPC: 0.05698 (Simulation time: 03 hr 52 min 07 sec)
Heartbeat CPU 3 instructions: 460000004 cycles: 550687248 heartbeat IPC: 0.8738 cumulative IPC: 0.7458 (Simulation time: 03 hr 53 min 16 sec)
Heartbeat CPU 3 instructions: 470000000 cycles: 563484619 heartbeat IPC: 0.7814 cumulative IPC: 0.7466 (Simulation time: 03 hr 58 min 21 sec)
Heartbeat CPU 1 instructions: 310000000 cycles: 565585438 heartbeat IPC: 0.5267 cumulative IPC: 0.4752 (Simulation time: 03 hr 59 min 08 sec)
Heartbeat CPU 3 instructions: 480000000 cycles: 576119044 heartbeat IPC: 0.7915 cumulative IPC: 0.7476 (Simulation time: 04 hr 03 min 18 sec)
Heartbeat CPU 1 instructions: 320000004 cycles: 584573734 heartbeat IPC: 0.5266 cumulative IPC: 0.4769 (Simulation time: 04 hr 06 min 41 sec)
Heartbeat CPU 2 instructions: 170000001 cycles: 585473017 heartbeat IPC: 0.1914 cumulative IPC: 0.1705 (Simulation time: 04 hr 07 min 04 sec)
Heartbeat CPU 3 instructions: 490000004 cycles: 587489905 heartbeat IPC: 0.8794 cumulative IPC: 0.7503 (Simulation time: 04 hr 07 min 56 sec)
Heartbeat CPU 3 instructions: 500000000 cycles: 599668305 heartbeat IPC: 0.8211 cumulative IPC: 0.7517 (Simulation time: 04 hr 12 min 48 sec)
Heartbeat CPU 1 instructions: 330000001 cycles: 603453182 heartbeat IPC: 0.5297 cumulative IPC: 0.4786 (Simulation time: 04 hr 14 min 22 sec)
Heartbeat CPU 3 instructions: 510000004 cycles: 612636493 heartbeat IPC: 0.7711 cumulative IPC: 0.7522 (Simulation time: 04 hr 18 min 04 sec)
Heartbeat CPU 1 instructions: 340000003 cycles: 622686355 heartbeat IPC: 0.5199 cumulative IPC: 0.4799 (Simulation time: 04 hr 22 min 06 sec)
Heartbeat CPU 3 instructions: 520000003 cycles: 622732493 heartbeat IPC: 0.9905 cumulative IPC: 0.7561 (Simulation time: 04 hr 22 min 07 sec)
Heartbeat CPU 3 instructions: 530000000 cycles: 633587820 heartbeat IPC: 0.9212 cumulative IPC: 0.7591 (Simulation time: 04 hr 26 min 43 sec)
Heartbeat CPU 2 instructions: 180000000 cycles: 637728980 heartbeat IPC: 0.1914 cumulative IPC: 0.1723 (Simulation time: 04 hr 28 min 21 sec)
Heartbeat CPU 1 instructions: 350000003 cycles: 641788288 heartbeat IPC: 0.5235 cumulative IPC: 0.4812 (Simulation time: 04 hr 30 min 03 sec)
Heartbeat CPU 3 instructions: 540000002 cycles: 642945586 heartbeat IPC: 1.069 cumulative IPC: 0.7637 (Simulation time: 04 hr 30 min 33 sec)
Heartbeat CPU 3 instructions: 550000004 cycles: 653799052 heartbeat IPC: 0.9214 cumulative IPC: 0.7664 (Simulation time: 04 hr 34 min 54 sec)
Heartbeat CPU 1 instructions: 360000000 cycles: 660633245 heartbeat IPC: 0.5306 cumulative IPC: 0.4827 (Simulation time: 04 hr 37 min 41 sec)
Heartbeat CPU 0 instructions: 100000000 cycles: 662306073 heartbeat IPC: 0.08746 cumulative IPC: 0.0624 (Simulation time: 04 hr 38 min 23 sec)
Heartbeat CPU 3 instructions: 560000002 cycles: 665155770 heartbeat IPC: 0.8805 cumulative IPC: 0.7684 (Simulation time: 04 hr 39 min 29 sec)
Heartbeat CPU 3 instructions: 570000000 cycles: 677116170 heartbeat IPC: 0.8361 cumulative IPC: 0.7696 (Simulation time: 04 hr 44 min 11 sec)
Heartbeat CPU 1 instructions: 370000001 cycles: 679672697 heartbeat IPC: 0.5252 cumulative IPC: 0.4839 (Simulation time: 04 hr 45 min 10 sec)
Heartbeat CPU 3 instructions: 580000001 cycles: 687846164 heartbeat IPC: 0.932 cumulative IPC: 0.7722 (Simulation time: 04 hr 48 min 37 sec)
Heartbeat CPU 2 instructions: 190000003 cycles: 690099225 heartbeat IPC: 0.1909 cumulative IPC: 0.1738 (Simulation time: 04 hr 49 min 29 sec)
Heartbeat CPU 1 instructions: 380000002 cycles: 698601914 heartbeat IPC: 0.5283 cumulative IPC: 0.4852 (Simulation time: 04 hr 52 min 57 sec)
Heartbeat CPU 3 instructions: 590000000 cycles: 700533585 heartbeat IPC: 0.7882 cumulative IPC: 0.7725 (Simulation time: 04 hr 53 min 48 sec)
Heartbeat CPU 3 instructions: 600000001 cycles: 712183092 heartbeat IPC: 0.8584 cumulative IPC: 0.774 (Simulation time: 04 hr 58 min 31 sec)
Heartbeat CPU 1 instructions: 390000004 cycles: 717472677 heartbeat IPC: 0.5299 cumulative IPC: 0.4864 (Simulation time: 05 hr 00 min 45 sec)
Heartbeat CPU 3 instructions: 610000004 cycles: 723402695 heartbeat IPC: 0.8913 cumulative IPC: 0.7758 (Simulation time: 05 hr 03 min 08 sec)
Heartbeat CPU 3 instructions: 620000000 cycles: 735763838 heartbeat IPC: 0.809 cumulative IPC: 0.7764 (Simulation time: 05 hr 08 min 10 sec)
Heartbeat CPU 1 instructions: 400000003 cycles: 736344169 heartbeat IPC: 0.5299 cumulative IPC: 0.4875 (Simulation time: 05 hr 08 min 23 sec)
Heartbeat CPU 2 instructions: 200000003 cycles: 741877894 heartbeat IPC: 0.1931 cumulative IPC: 0.1751 (Simulation time: 05 hr 10 min 39 sec)
Heartbeat CPU 3 instructions: 630000000 cycles: 747106545 heartbeat IPC: 0.8816 cumulative IPC: 0.778 (Simulation time: 05 hr 12 min 49 sec)
Heartbeat CPU 1 instructions: 410000002 cycles: 755203316 heartbeat IPC: 0.5302 cumulative IPC: 0.4886 (Simulation time: 05 hr 16 min 00 sec)
Heartbeat CPU 3 instructions: 640000000 cycles: 760118018 heartbeat IPC: 0.7686 cumulative IPC: 0.7779 (Simulation time: 05 hr 17 min 52 sec)
Heartbeat CPU 3 instructions: 650000001 cycles: 771679362 heartbeat IPC: 0.865 cumulative IPC: 0.7792 (Simulation time: 05 hr 22 min 33 sec)
Heartbeat CPU 1 instructions: 420000000 cycles: 774264817 heartbeat IPC: 0.5246 cumulative IPC: 0.4895 (Simulation time: 05 hr 23 min 32 sec)
Heartbeat CPU 0 instructions: 110000000 cycles: 777320137 heartbeat IPC: 0.08695 cumulative IPC: 0.06612 (Simulation time: 05 hr 24 min 44 sec)
Heartbeat CPU 3 instructions: 660000002 cycles: 785342396 heartbeat IPC: 0.7319 cumulative IPC: 0.7784 (Simulation time: 05 hr 27 min 59 sec)
Heartbeat CPU 1 instructions: 430000002 cycles: 793522650 heartbeat IPC: 0.5193 cumulative IPC: 0.4903 (Simulation time: 05 hr 31 min 12 sec)
Heartbeat CPU 2 instructions: 210000000 cycles: 794085833 heartbeat IPC: 0.1915 cumulative IPC: 0.1762 (Simulation time: 05 hr 31 min 25 sec)
Heartbeat CPU 3 instructions: 670000001 cycles: 798265920 heartbeat IPC: 0.7738 cumulative IPC: 0.7783 (Simulation time: 05 hr 33 min 00 sec)
Heartbeat CPU 3 instructions: 680000000 cycles: 811631402 heartbeat IPC: 0.7482 cumulative IPC: 0.7778 (Simulation time: 05 hr 38 min 22 sec)
Heartbeat CPU 1 instructions: 440000003 cycles: 812522178 heartbeat IPC: 0.5263 cumulative IPC: 0.4911 (Simulation time: 05 hr 38 min 45 sec)
Heartbeat CPU 3 instructions: 690000000 cycles: 823785266 heartbeat IPC: 0.8228 cumulative IPC: 0.7785 (Simulation time: 05 hr 43 min 17 sec)
Heartbeat CPU 1 instructions: 450000000 cycles: 831437358 heartbeat IPC: 0.5287 cumulative IPC: 0.492 (Simulation time: 05 hr 46 min 14 sec)
Heartbeat CPU 3 instructions: 700000002 cycles: 838076591 heartbeat IPC: 0.6997 cumulative IPC: 0.7771 (Simulation time: 05 hr 48 min 49 sec)
Heartbeat CPU 2 instructions: 220000000 cycles: 846102764 heartbeat IPC: 0.1922 cumulative IPC: 0.1772 (Simulation time: 05 hr 52 min 04 sec)
Heartbeat CPU 1 instructions: 460000001 cycles: 850473152 heartbeat IPC: 0.5253 cumulative IPC: 0.4928 (Simulation time: 05 hr 53 min 44 sec)
Heartbeat CPU 3 instructions: 710000004 cycles: 851122903 heartbeat IPC: 0.7665 cumulative IPC: 0.7769 (Simulation time: 05 hr 53 min 59 sec)
Heartbeat CPU 3 instructions: 720000000 cycles: 862213391 heartbeat IPC: 0.9017 cumulative IPC: 0.7786 (Simulation time: 05 hr 58 min 30 sec)
Simulation finished CPU 2 instructions: 150000000 cycles: 844441905 cumulative IPC: 0.1776 (Simulation time: 05 hr 58 min 44 sec)
Heartbeat CPU 1 instructions: 470000001 cycles: 869032853 heartbeat IPC: 0.5388 cumulative IPC: 0.4938 (Simulation time: 06 hr 01 min 12 sec)
Heartbeat CPU 3 instructions: 730000003 cycles: 874316856 heartbeat IPC: 0.8262 cumulative IPC: 0.7792 (Simulation time: 06 hr 03 min 15 sec)
Heartbeat CPU 3 instructions: 740000001 cycles: 887342930 heartbeat IPC: 0.7677 cumulative IPC: 0.7791 (Simulation time: 06 hr 08 min 26 sec)
Heartbeat CPU 1 instructions: 480000001 cycles: 887888556 heartbeat IPC: 0.5303 cumulative IPC: 0.4945 (Simulation time: 06 hr 08 min 39 sec)
Heartbeat CPU 0 instructions: 120000003 cycles: 890010285 heartbeat IPC: 0.08874 cumulative IPC: 0.06904 (Simulation time: 06 hr 09 min 29 sec)
Heartbeat CPU 2 instructions: 230000001 cycles: 897575296 heartbeat IPC: 0.1943 cumulative IPC: 0.1782 (Simulation time: 06 hr 12 min 37 sec)
Heartbeat CPU 3 instructions: 750000000 cycles: 900672536 heartbeat IPC: 0.7502 cumulative IPC: 0.7786 (Simulation time: 06 hr 13 min 53 sec)
Heartbeat CPU 1 instructions: 490000000 cycles: 906794784 heartbeat IPC: 0.5289 cumulative IPC: 0.4953 (Simulation time: 06 hr 16 min 33 sec)
Heartbeat CPU 3 instructions: 760000004 cycles: 912405329 heartbeat IPC: 0.8523 cumulative IPC: 0.7796 (Simulation time: 06 hr 19 min 00 sec)
Heartbeat CPU 3 instructions: 770000001 cycles: 924941556 heartbeat IPC: 0.7977 cumulative IPC: 0.7798 (Simulation time: 06 hr 24 min 09 sec)
Heartbeat CPU 1 instructions: 500000001 cycles: 925721682 heartbeat IPC: 0.5283 cumulative IPC: 0.496 (Simulation time: 06 hr 24 min 27 sec)
Heartbeat CPU 3 instructions: 780000004 cycles: 937811031 heartbeat IPC: 0.777 cumulative IPC: 0.7798 (Simulation time: 06 hr 29 min 24 sec)
Heartbeat CPU 1 instructions: 510000004 cycles: 945048064 heartbeat IPC: 0.5174 cumulative IPC: 0.4964 (Simulation time: 06 hr 32 min 14 sec)
Heartbeat CPU 3 instructions: 790000004 cycles: 948071865 heartbeat IPC: 0.9746 cumulative IPC: 0.782 (Simulation time: 06 hr 33 min 27 sec)
Heartbeat CPU 2 instructions: 240000002 cycles: 950564773 heartbeat IPC: 0.1887 cumulative IPC: 0.1788 (Simulation time: 06 hr 34 min 21 sec)
Heartbeat CPU 3 instructions: 800000000 cycles: 959347062 heartbeat IPC: 0.8869 cumulative IPC: 0.7832 (Simulation time: 06 hr 38 min 02 sec)
Heartbeat CPU 1 instructions: 520000001 cycles: 964704277 heartbeat IPC: 0.5087 cumulative IPC: 0.4967 (Simulation time: 06 hr 40 min 09 sec)
Heartbeat CPU 3 instructions: 810000004 cycles: 968478881 heartbeat IPC: 1.095 cumulative IPC: 0.7862 (Simulation time: 06 hr 41 min 44 sec)
Heartbeat CPU 3 instructions: 820000000 cycles: 975889689 heartbeat IPC: 1.349 cumulative IPC: 0.7906 (Simulation time: 06 hr 44 min 51 sec)
Heartbeat CPU 1 instructions: 530000001 cycles: 983489973 heartbeat IPC: 0.5323 cumulative IPC: 0.4974 (Simulation time: 06 hr 47 min 58 sec)
Heartbeat CPU 3 instructions: 830000000 cycles: 984637153 heartbeat IPC: 1.143 cumulative IPC: 0.7938 (Simulation time: 06 hr 48 min 29 sec)
Heartbeat CPU 3 instructions: 840000001 cycles: 994501602 heartbeat IPC: 1.014 cumulative IPC: 0.796 (Simulation time: 06 hr 52 min 24 sec)
Heartbeat CPU 3 instructions: 850000000 cycles: 1000943743 heartbeat IPC: 1.552 cumulative IPC: 0.8009 (Simulation time: 06 hr 55 min 14 sec)
Heartbeat CPU 1 instructions: 540000001 cycles: 1002717677 heartbeat IPC: 0.5201 cumulative IPC: 0.4978 (Simulation time: 06 hr 56 min 00 sec)
Heartbeat CPU 0 instructions: 130000000 cycles: 1003263166 heartbeat IPC: 0.0883 cumulative IPC: 0.07126 (Simulation time: 06 hr 56 min 14 sec)
Heartbeat CPU 2 instructions: 250000001 cycles: 1003436395 heartbeat IPC: 0.1891 cumulative IPC: 0.1794 (Simulation time: 06 hr 56 min 18 sec)
Heartbeat CPU 3 instructions: 860000000 cycles: 1011086874 heartbeat IPC: 0.9859 cumulative IPC: 0.8028 (Simulation time: 06 hr 59 min 24 sec)
Heartbeat CPU 1 instructions: 550000000 cycles: 1021945420 heartbeat IPC: 0.5201 cumulative IPC: 0.4982 (Simulation time: 07 hr 03 min 43 sec)
Heartbeat CPU 3 instructions: 870000002 cycles: 1022456218 heartbeat IPC: 0.8796 cumulative IPC: 0.8037 (Simulation time: 07 hr 03 min 55 sec)
Heartbeat CPU 3 instructions: 880000000 cycles: 1034261526 heartbeat IPC: 0.8471 cumulative IPC: 0.8042 (Simulation time: 07 hr 08 min 56 sec)
Heartbeat CPU 1 instructions: 560000004 cycles: 1041061704 heartbeat IPC: 0.5231 cumulative IPC: 0.4987 (Simulation time: 07 hr 11 min 47 sec)
Heartbeat CPU 3 instructions: 890000002 cycles: 1045851381 heartbeat IPC: 0.8628 cumulative IPC: 0.8049 (Simulation time: 07 hr 13 min 43 sec)
Heartbeat CPU 2 instructions: 260000003 cycles: 1056019849 heartbeat IPC: 0.1902 cumulative IPC: 0.1799 (Simulation time: 07 hr 17 min 49 sec)
Heartbeat CPU 3 instructions: 900000001 cycles: 1058772901 heartbeat IPC: 0.7739 cumulative IPC: 0.8045 (Simulation time: 07 hr 18 min 54 sec)
Heartbeat CPU 1 instructions: 570000004 cycles: 1060104460 heartbeat IPC: 0.5251 cumulative IPC: 0.4992 (Simulation time: 07 hr 19 min 25 sec)
Heartbeat CPU 3 instructions: 910000000 cycles: 1068679052 heartbeat IPC: 1.009 cumulative IPC: 0.8064 (Simulation time: 07 hr 22 min 55 sec)
Heartbeat CPU 1 instructions: 580000000 cycles: 1080888462 heartbeat IPC: 0.4811 cumulative IPC: 0.4988 (Simulation time: 07 hr 27 min 47 sec)
Heartbeat CPU 3 instructions: 920000000 cycles: 1083123201 heartbeat IPC: 0.6923 cumulative IPC: 0.8049 (Simulation time: 07 hr 28 min 40 sec)
Heartbeat CPU 3 instructions: 930000003 cycles: 1099284949 heartbeat IPC: 0.6187 cumulative IPC: 0.8021 (Simulation time: 07 hr 34 min 50 sec)
Heartbeat CPU 1 instructions: 590000003 cycles: 1109054624 heartbeat IPC: 0.355 cumulative IPC: 0.4951 (Simulation time: 07 hr 38 min 22 sec)
Heartbeat CPU 3 instructions: 940000001 cycles: 1117485174 heartbeat IPC: 0.5494 cumulative IPC: 0.7979 (Simulation time: 07 hr 41 min 37 sec)
Heartbeat CPU 1 instructions: 600000004 cycles: 1135170105 heartbeat IPC: 0.3829 cumulative IPC: 0.4925 (Simulation time: 07 hr 48 min 22 sec)
Heartbeat CPU 3 instructions: 950000001 cycles: 1136338993 heartbeat IPC: 0.5304 cumulative IPC: 0.7934 (Simulation time: 07 hr 48 min 54 sec)
Heartbeat CPU 2 instructions: 270000004 cycles: 1142543173 heartbeat IPC: 0.1156 cumulative IPC: 0.175 (Simulation time: 07 hr 51 min 23 sec)
Heartbeat CPU 0 instructions: 140000002 cycles: 1148036746 heartbeat IPC: 0.06907 cumulative IPC: 0.07098 (Simulation time: 07 hr 53 min 35 sec)
Heartbeat CPU 3 instructions: 960000000 cycles: 1149341930 heartbeat IPC: 0.7691 cumulative IPC: 0.7931 (Simulation time: 07 hr 54 min 07 sec)
Heartbeat CPU 1 instructions: 610000002 cycles: 1154726444 heartbeat IPC: 0.5113 cumulative IPC: 0.4928 (Simulation time: 07 hr 56 min 17 sec)
Heartbeat CPU 3 instructions: 970000001 cycles: 1162214343 heartbeat IPC: 0.7769 cumulative IPC: 0.7929 (Simulation time: 07 hr 59 min 18 sec)
Heartbeat CPU 1 instructions: 620000000 cycles: 1173871040 heartbeat IPC: 0.5223 cumulative IPC: 0.4933 (Simulation time: 08 hr 04 min 04 sec)
Heartbeat CPU 3 instructions: 980000001 cycles: 1175963162 heartbeat IPC: 0.7273 cumulative IPC: 0.7921 (Simulation time: 08 hr 04 min 53 sec)
Heartbeat CPU 3 instructions: 990000001 cycles: 1189462834 heartbeat IPC: 0.7408 cumulative IPC: 0.7916 (Simulation time: 08 hr 10 min 16 sec)
Heartbeat CPU 1 instructions: 630000003 cycles: 1192611305 heartbeat IPC: 0.5336 cumulative IPC: 0.494 (Simulation time: 08 hr 11 min 36 sec)
Heartbeat CPU 2 instructions: 280000004 cycles: 1194609915 heartbeat IPC: 0.1921 cumulative IPC: 0.1757 (Simulation time: 08 hr 12 min 30 sec)
Heartbeat CPU 3 instructions: 1000000000 cycles: 1202274330 heartbeat IPC: 0.7805 cumulative IPC: 0.7914 (Simulation time: 08 hr 15 min 38 sec)
Heartbeat CPU 1 instructions: 640000004 cycles: 1211671405 heartbeat IPC: 0.5247 cumulative IPC: 0.4944 (Simulation time: 08 hr 19 min 30 sec)
Heartbeat CPU 3 instructions: 1010000004 cycles: 1216891567 heartbeat IPC: 0.6841 cumulative IPC: 0.7901 (Simulation time: 08 hr 21 min 44 sec)
Heartbeat CPU 3 instructions: 1020000000 cycles: 1229297839 heartbeat IPC: 0.806 cumulative IPC: 0.7903 (Simulation time: 08 hr 26 min 41 sec)
Heartbeat CPU 1 instructions: 650000002 cycles: 1230584240 heartbeat IPC: 0.5287 cumulative IPC: 0.495 (Simulation time: 08 hr 27 min 13 sec)
Heartbeat CPU 3 instructions: 1030000000 cycles: 1239976507 heartbeat IPC: 0.9364 cumulative IPC: 0.7916 (Simulation time: 08 hr 31 min 11 sec)
Heartbeat CPU 2 instructions: 290000002 cycles: 1246436657 heartbeat IPC: 0.193 cumulative IPC: 0.1765 (Simulation time: 08 hr 33 min 48 sec)
Heartbeat CPU 1 instructions: 660000002 cycles: 1249288818 heartbeat IPC: 0.5346 cumulative IPC: 0.4956 (Simulation time: 08 hr 34 min 58 sec)
Heartbeat CPU 3 instructions: 1040000002 cycles: 1253207721 heartbeat IPC: 0.7558 cumulative IPC: 0.7912 (Simulation time: 08 hr 36 min 25 sec)
Heartbeat CPU 0 instructions: 150000000 cycles: 1259658738 heartbeat IPC: 0.08959 cumulative IPC: 0.07265 (Simulation time: 08 hr 38 min 56 sec)
Heartbeat CPU 3 instructions: 1050000002 cycles: 1263861072 heartbeat IPC: 0.9387 cumulative IPC: 0.7924 (Simulation time: 08 hr 40 min 35 sec)
Heartbeat CPU 1 instructions: 670000004 cycles: 1268080095 heartbeat IPC: 0.5322 cumulative IPC: 0.4961 (Simulation time: 08 hr 42 min 15 sec)
Heartbeat CPU 3 instructions: 1060000001 cycles: 1277674836 heartbeat IPC: 0.7239 cumulative IPC: 0.7917 (Simulation time: 08 hr 46 min 02 sec)
Heartbeat CPU 1 instructions: 680000002 cycles: 1286851310 heartbeat IPC: 0.5327 cumulative IPC: 0.4967 (Simulation time: 08 hr 49 min 29 sec)
Heartbeat CPU 3 instructions: 1070000000 cycles: 1292127321 heartbeat IPC: 0.6919 cumulative IPC: 0.7906 (Simulation time: 08 hr 51 min 27 sec)
Heartbeat CPU 2 instructions: 300000002 cycles: 1298426815 heartbeat IPC: 0.1923 cumulative IPC: 0.1771 (Simulation time: 08 hr 53 min 51 sec)
Heartbeat CPU 3 instructions: 1080000003 cycles: 1305008384 heartbeat IPC: 0.7763 cumulative IPC: 0.7904 (Simulation time: 08 hr 56 min 42 sec)
Heartbeat CPU 1 instructions: 690000004 cycles: 1305774680 heartbeat IPC: 0.5284 cumulative IPC: 0.4971 (Simulation time: 08 hr 56 min 58 sec)
Heartbeat CPU 3 instructions: 1090000000 cycles: 1318208709 heartbeat IPC: 0.7576 cumulative IPC: 0.7901 (Simulation time: 09 hr 01 min 59 sec)
Heartbeat CPU 1 instructions: 700000002 cycles: 1324809555 heartbeat IPC: 0.5254 cumulative IPC: 0.4976 (Simulation time: 09 hr 04 min 41 sec)
Heartbeat CPU 3 instructions: 1100000003 cycles: 1332109051 heartbeat IPC: 0.7194 cumulative IPC: 0.7893 (Simulation time: 09 hr 07 min 37 sec)
Heartbeat CPU 3 instructions: 1110000003 cycles: 1343699811 heartbeat IPC: 0.8628 cumulative IPC: 0.79 (Simulation time: 09 hr 12 min 28 sec)
Heartbeat CPU 1 instructions: 710000002 cycles: 1344197532 heartbeat IPC: 0.5158 cumulative IPC: 0.4978 (Simulation time: 09 hr 12 min 43 sec)
Heartbeat CPU 2 instructions: 310000002 cycles: 1351354257 heartbeat IPC: 0.1889 cumulative IPC: 0.1776 (Simulation time: 09 hr 15 min 33 sec)
Heartbeat CPU 3 instructions: 1120000002 cycles: 1357493806 heartbeat IPC: 0.725 cumulative IPC: 0.7893 (Simulation time: 09 hr 18 min 01 sec)
Heartbeat CPU 1 instructions: 720000002 cycles: 1363724117 heartbeat IPC: 0.5121 cumulative IPC: 0.498 (Simulation time: 09 hr 20 min 29 sec)
Heartbeat CPU 0 instructions: 160000002 cycles: 1369958284 heartbeat IPC: 0.09066 cumulative IPC: 0.07412 (Simulation time: 09 hr 23 min 03 sec)
Heartbeat CPU 3 instructions: 1130000001 cycles: 1370052942 heartbeat IPC: 0.7962 cumulative IPC: 0.7894 (Simulation time: 09 hr 23 min 05 sec)
Heartbeat CPU 3 instructions: 1140000002 cycles: 1382941369 heartbeat IPC: 0.7759 cumulative IPC: 0.7892 (Simulation time: 09 hr 28 min 09 sec)
Heartbeat CPU 1 instructions: 730000003 cycles: 1383388737 heartbeat IPC: 0.5085 cumulative IPC: 0.4982 (Simulation time: 09 hr 28 min 19 sec)
Heartbeat CPU 3 instructions: 1150000000 cycles: 1395091661 heartbeat IPC: 0.823 cumulative IPC: 0.7895 (Simulation time: 09 hr 33 min 08 sec)
Heartbeat CPU 1 instructions: 740000002 cycles: 1402600803 heartbeat IPC: 0.5205 cumulative IPC: 0.4985 (Simulation time: 09 hr 36 min 03 sec)
Heartbeat CPU 2 instructions: 320000004 cycles: 1406641041 heartbeat IPC: 0.1809 cumulative IPC: 0.1777 (Simulation time: 09 hr 37 min 41 sec)
Heartbeat CPU 3 instructions: 1160000000 cycles: 1406809533 heartbeat IPC: 0.8534 cumulative IPC: 0.7901 (Simulation time: 09 hr 37 min 44 sec)
Heartbeat CPU 3 instructions: 1170000000 cycles: 1417178629 heartbeat IPC: 0.9644 cumulative IPC: 0.7914 (Simulation time: 09 hr 42 min 04 sec)
Heartbeat CPU 1 instructions: 750000004 cycles: 1421891319 heartbeat IPC: 0.5184 cumulative IPC: 0.4988 (Simulation time: 09 hr 43 min 57 sec)
Heartbeat CPU 3 instructions: 1180000004 cycles: 1431046511 heartbeat IPC: 0.7211 cumulative IPC: 0.7907 (Simulation time: 09 hr 47 min 41 sec)
Heartbeat CPU 1 instructions: 760000004 cycles: 1441554673 heartbeat IPC: 0.5086 cumulative IPC: 0.4989 (Simulation time: 09 hr 51 min 49 sec)
Heartbeat CPU 3 instructions: 1190000001 cycles: 1444262574 heartbeat IPC: 0.7567 cumulative IPC: 0.7904 (Simulation time: 09 hr 52 min 56 sec)
Heartbeat CPU 3 instructions: 1200000000 cycles: 1456939933 heartbeat IPC: 0.7888 cumulative IPC: 0.7904 (Simulation time: 09 hr 58 min 12 sec)
Heartbeat CPU 1 instructions: 770000003 cycles: 1461328606 heartbeat IPC: 0.5057 cumulative IPC: 0.499 (Simulation time: 10 hr 00 min 04 sec)
Heartbeat CPU 2 instructions: 330000003 cycles: 1462830889 heartbeat IPC: 0.178 cumulative IPC: 0.1777 (Simulation time: 10 hr 00 min 35 sec)
Heartbeat CPU 3 instructions: 1210000002 cycles: 1470978700 heartbeat IPC: 0.7123 cumulative IPC: 0.7896 (Simulation time: 10 hr 03 min 47 sec)
Heartbeat CPU 1 instructions: 780000002 cycles: 1481024512 heartbeat IPC: 0.5077 cumulative IPC: 0.4991 (Simulation time: 10 hr 07 min 56 sec)
Heartbeat CPU 3 instructions: 1220000001 cycles: 1486508996 heartbeat IPC: 0.6439 cumulative IPC: 0.7881 (Simulation time: 10 hr 10 min 06 sec)
Heartbeat CPU 0 instructions: 170000000 cycles: 1490666928 heartbeat IPC: 0.08284 cumulative IPC: 0.07483 (Simulation time: 10 hr 11 min 45 sec)
Heartbeat CPU 3 instructions: 1230000001 cycles: 1499646582 heartbeat IPC: 0.7612 cumulative IPC: 0.7878 (Simulation time: 10 hr 15 min 13 sec)
Heartbeat CPU 1 instructions: 790000004 cycles: 1500687330 heartbeat IPC: 0.5086 cumulative IPC: 0.4992 (Simulation time: 10 hr 15 min 37 sec)
Heartbeat CPU 3 instructions: 1240000003 cycles: 1513245671 heartbeat IPC: 0.7353 cumulative IPC: 0.7873 (Simulation time: 10 hr 20 min 36 sec)
Heartbeat CPU 2 instructions: 340000001 cycles: 1519432070 heartbeat IPC: 0.1767 cumulative IPC: 0.1777 (Simulation time: 10 hr 22 min 59 sec)
Heartbeat CPU 1 instructions: 800000002 cycles: 1520728470 heartbeat IPC: 0.499 cumulative IPC: 0.4992 (Simulation time: 10 hr 23 min 27 sec)
Heartbeat CPU 3 instructions: 1250000000 cycles: 1525161010 heartbeat IPC: 0.8393 cumulative IPC: 0.7878 (Simulation time: 10 hr 25 min 17 sec)
Heartbeat CPU 1 instructions: 810000003 cycles: 1540770410 heartbeat IPC: 0.499 cumulative IPC: 0.4992 (Simulation time: 10 hr 31 min 41 sec)
Heartbeat CPU 3 instructions: 1260000003 cycles: 1541453447 heartbeat IPC: 0.6138 cumulative IPC: 0.7859 (Simulation time: 10 hr 31 min 56 sec)
Heartbeat CPU 3 instructions: 1270000004 cycles: 1554843359 heartbeat IPC: 0.7468 cumulative IPC: 0.7856 (Simulation time: 10 hr 37 min 14 sec)
Heartbeat CPU 1 instructions: 820000002 cycles: 1560844545 heartbeat IPC: 0.4982 cumulative IPC: 0.4992 (Simulation time: 10 hr 39 min 38 sec)
Heartbeat CPU 3 instructions: 1280000002 cycles: 1570083279 heartbeat IPC: 0.6562 cumulative IPC: 0.7843 (Simulation time: 10 hr 43 min 25 sec)
Heartbeat CPU 2 instructions: 350000004 cycles: 1577523284 heartbeat IPC: 0.1721 cumulative IPC: 0.1775 (Simulation time: 10 hr 46 min 19 sec)
Heartbeat CPU 1 instructions: 830000003 cycles: 1580894748 heartbeat IPC: 0.4987 cumulative IPC: 0.4992 (Simulation time: 10 hr 47 min 43 sec)
Heartbeat CPU 3 instructions: 1290000001 cycles: 1584080556 heartbeat IPC: 0.7144 cumulative IPC: 0.7837 (Simulation time: 10 hr 48 min 58 sec)
Heartbeat CPU 3 instructions: 1300000000 cycles: 1597720154 heartbeat IPC: 0.7332 cumulative IPC: 0.7832 (Simulation time: 10 hr 54 min 39 sec)
Heartbeat CPU 1 instructions: 840000000 cycles: 1601170160 heartbeat IPC: 0.4932 cumulative IPC: 0.4991 (Simulation time: 10 hr 56 min 03 sec)
Heartbeat CPU 0 instructions: 180000004 cycles: 1607585289 heartbeat IPC: 0.08553 cumulative IPC: 0.07562 (Simulation time: 10 hr 58 min 43 sec)
Heartbeat CPU 3 instructions: 1310000002 cycles: 1609971152 heartbeat IPC: 0.8163 cumulative IPC: 0.7835 (Simulation time: 10 hr 59 min 39 sec)
Heartbeat CPU 1 instructions: 850000000 cycles: 1621449991 heartbeat IPC: 0.4931 cumulative IPC: 0.4991 (Simulation time: 11 hr 04 min 17 sec)
Heartbeat CPU 3 instructions: 1320000001 cycles: 1624618004 heartbeat IPC: 0.6827 cumulative IPC: 0.7826 (Simulation time: 11 hr 05 min 36 sec)
Heartbeat CPU 2 instructions: 360000000 cycles: 1637200735 heartbeat IPC: 0.1676 cumulative IPC: 0.1771 (Simulation time: 11 hr 10 min 46 sec)
Heartbeat CPU 3 instructions: 1330000001 cycles: 1638395373 heartbeat IPC: 0.7258 cumulative IPC: 0.7821 (Simulation time: 11 hr 11 min 16 sec)
Heartbeat CPU 1 instructions: 860000002 cycles: 1641281335 heartbeat IPC: 0.5043 cumulative IPC: 0.4991 (Simulation time: 11 hr 12 min 26 sec)
Heartbeat CPU 3 instructions: 1340000002 cycles: 1654132227 heartbeat IPC: 0.6355 cumulative IPC: 0.7807 (Simulation time: 11 hr 17 min 37 sec)
Heartbeat CPU 1 instructions: 870000000 cycles: 1661606741 heartbeat IPC: 0.492 cumulative IPC: 0.499 (Simulation time: 11 hr 20 min 47 sec)
Heartbeat CPU 3 instructions: 1350000000 cycles: 1668351369 heartbeat IPC: 0.7033 cumulative IPC: 0.78 (Simulation time: 11 hr 23 min 30 sec)
Heartbeat CPU 3 instructions: 1360000000 cycles: 1681647432 heartbeat IPC: 0.7521 cumulative IPC: 0.7798 (Simulation time: 11 hr 28 min 53 sec)
Heartbeat CPU 1 instructions: 880000000 cycles: 1682047448 heartbeat IPC: 0.4892 cumulative IPC: 0.4989 (Simulation time: 11 hr 29 min 03 sec)
Heartbeat CPU 3 instructions: 1370000004 cycles: 1696357074 heartbeat IPC: 0.6798 cumulative IPC: 0.7789 (Simulation time: 11 hr 35 min 33 sec)
Heartbeat CPU 2 instructions: 370000004 cycles: 1696638016 heartbeat IPC: 0.1682 cumulative IPC: 0.1768 (Simulation time: 11 hr 35 min 40 sec)
Heartbeat CPU 1 instructions: 890000003 cycles: 1701789939 heartbeat IPC: 0.5065 cumulative IPC: 0.499 (Simulation time: 11 hr 37 min 50 sec)
Heartbeat CPU 3 instructions: 1380000001 cycles: 1710306525 heartbeat IPC: 0.7169 cumulative IPC: 0.7784 (Simulation time: 11 hr 41 min 21 sec)
Heartbeat CPU 1 instructions: 900000000 cycles: 1722096476 heartbeat IPC: 0.4925 cumulative IPC: 0.4989 (Simulation time: 11 hr 46 min 12 sec)
Heartbeat CPU 3 instructions: 1390000000 cycles: 1723595552 heartbeat IPC: 0.7525 cumulative IPC: 0.7782 (Simulation time: 11 hr 46 min 48 sec)
Heartbeat CPU 0 instructions: 190000003 cycles: 1733703819 heartbeat IPC: 0.07929 cumulative IPC: 0.07589 (Simulation time: 11 hr 50 min 55 sec)
Heartbeat CPU 3 instructions: 1400000003 cycles: 1738979102 heartbeat IPC: 0.65 cumulative IPC: 0.777 (Simulation time: 11 hr 53 min 02 sec)
Heartbeat CPU 1 instructions: 910000000 cycles: 1742283226 heartbeat IPC: 0.4954 cumulative IPC: 0.4989 (Simulation time: 11 hr 54 min 22 sec)
Heartbeat CPU 2 instructions: 380000001 cycles: 1754460525 heartbeat IPC: 0.1729 cumulative IPC: 0.1767 (Simulation time: 11 hr 59 min 17 sec)
Heartbeat CPU 3 instructions: 1410000002 cycles: 1754853138 heartbeat IPC: 0.63 cumulative IPC: 0.7757 (Simulation time: 11 hr 59 min 26 sec)
Heartbeat CPU 1 instructions: 920000004 cycles: 1762407059 heartbeat IPC: 0.4969 cumulative IPC: 0.4989 (Simulation time: 12 hr 02 min 30 sec)
Heartbeat CPU 3 instructions: 1420000000 cycles: 1769506337 heartbeat IPC: 0.6824 cumulative IPC: 0.7749 (Simulation time: 12 hr 05 min 26 sec)
Heartbeat CPU 1 instructions: 930000001 cycles: 1782650638 heartbeat IPC: 0.494 cumulative IPC: 0.4988 (Simulation time: 12 hr 10 min 53 sec)
Heartbeat CPU 3 instructions: 1430000003 cycles: 1782759822 heartbeat IPC: 0.7545 cumulative IPC: 0.7748 (Simulation time: 12 hr 10 min 56 sec)
Heartbeat CPU 3 instructions: 1440000003 cycles: 1793909540 heartbeat IPC: 0.8969 cumulative IPC: 0.7755 (Simulation time: 12 hr 15 min 38 sec)
Heartbeat CPU 1 instructions: 940000001 cycles: 1802871007 heartbeat IPC: 0.4946 cumulative IPC: 0.4987 (Simulation time: 12 hr 19 min 25 sec)
Heartbeat CPU 3 instructions: 1450000001 cycles: 1805030065 heartbeat IPC: 0.8992 cumulative IPC: 0.7763 (Simulation time: 12 hr 20 min 20 sec)
Heartbeat CPU 3 instructions: 1460000003 cycles: 1813055637 heartbeat IPC: 1.246 cumulative IPC: 0.7784 (Simulation time: 12 hr 23 min 47 sec)
Heartbeat CPU 2 instructions: 390000002 cycles: 1813685242 heartbeat IPC: 0.1688 cumulative IPC: 0.1764 (Simulation time: 12 hr 24 min 03 sec)
Heartbeat CPU 1 instructions: 950000001 cycles: 1822800778 heartbeat IPC: 0.5018 cumulative IPC: 0.4988 (Simulation time: 12 hr 27 min 53 sec)
Heartbeat CPU 3 instructions: 1470000001 cycles: 1824168254 heartbeat IPC: 0.8999 cumulative IPC: 0.7791 (Simulation time: 12 hr 28 min 27 sec)
Heartbeat CPU 3 instructions: 1480000000 cycles: 1834227126 heartbeat IPC: 0.9941 cumulative IPC: 0.7803 (Simulation time: 12 hr 32 min 38 sec)
Heartbeat CPU 1 instructions: 960000002 cycles: 1843174880 heartbeat IPC: 0.4908 cumulative IPC: 0.4987 (Simulation time: 12 hr 36 min 31 sec)
Heartbeat CPU 3 instructions: 1490000002 cycles: 1844327220 heartbeat IPC: 0.9901 cumulative IPC: 0.7815 (Simulation time: 12 hr 37 min 01 sec)
Heartbeat CPU 3 instructions: 1500000002 cycles: 1853442419 heartbeat IPC: 1.097 cumulative IPC: 0.7831 (Simulation time: 12 hr 40 min 56 sec)
Heartbeat CPU 0 instructions: 200000000 cycles: 1860392505 heartbeat IPC: 0.07893 cumulative IPC: 0.0761 (Simulation time: 12 hr 43 min 54 sec)
Heartbeat CPU 1 instructions: 970000004 cycles: 1863294351 heartbeat IPC: 0.497 cumulative IPC: 0.4987 (Simulation time: 12 hr 45 min 18 sec)
Heartbeat CPU 3 instructions: 1510000002 cycles: 1865318865 heartbeat IPC: 0.842 cumulative IPC: 0.7834 (Simulation time: 12 hr 46 min 12 sec)
Heartbeat CPU 2 instructions: 400000002 cycles: 1873328696 heartbeat IPC: 0.1677 cumulative IPC: 0.1761 (Simulation time: 12 hr 49 min 50 sec)
Heartbeat CPU 3 instructions: 1520000003 cycles: 1878415045 heartbeat IPC: 0.7636 cumulative IPC: 0.7833 (Simulation time: 12 hr 52 min 03 sec)
Heartbeat CPU 1 instructions: 980000000 cycles: 1883669978 heartbeat IPC: 0.4908 cumulative IPC: 0.4986 (Simulation time: 12 hr 54 min 24 sec)
Heartbeat CPU 3 instructions: 1530000000 cycles: 1890265148 heartbeat IPC: 0.8439 cumulative IPC: 0.7837 (Simulation time: 12 hr 57 min 22 sec)
Heartbeat CPU 3 instructions: 1540000000 cycles: 1899124676 heartbeat IPC: 1.129 cumulative IPC: 0.7853 (Simulation time: 13 hr 01 min 19 sec)
Heartbeat CPU 1 instructions: 990000000 cycles: 1904209607 heartbeat IPC: 0.4869 cumulative IPC: 0.4985 (Simulation time: 13 hr 03 min 35 sec)
Heartbeat CPU 3 instructions: 1550000000 cycles: 1911456600 heartbeat IPC: 0.8109 cumulative IPC: 0.7855 (Simulation time: 13 hr 06 min 36 sec)
Heartbeat CPU 3 instructions: 1560000002 cycles: 1921351437 heartbeat IPC: 1.011 cumulative IPC: 0.7867 (Simulation time: 13 hr 10 min 50 sec)
Heartbeat CPU 1 instructions: 1000000002 cycles: 1924378236 heartbeat IPC: 0.4958 cumulative IPC: 0.4984 (Simulation time: 13 hr 12 min 09 sec)
Heartbeat CPU 2 instructions: 410000001 cycles: 1931512565 heartbeat IPC: 0.1719 cumulative IPC: 0.176 (Simulation time: 13 hr 15 min 04 sec)
Heartbeat CPU 3 instructions: 1570000002 cycles: 1935040130 heartbeat IPC: 0.7305 cumulative IPC: 0.7863 (Simulation time: 13 hr 16 min 28 sec)
Heartbeat CPU 1 instructions: 1010000000 cycles: 1944078278 heartbeat IPC: 0.5076 cumulative IPC: 0.4985 (Simulation time: 13 hr 20 min 10 sec)
Heartbeat CPU 3 instructions: 1580000004 cycles: 1949410794 heartbeat IPC: 0.6959 cumulative IPC: 0.7856 (Simulation time: 13 hr 22 min 27 sec)
Heartbeat CPU 1 instructions: 1020000004 cycles: 1963575363 heartbeat IPC: 0.5129 cumulative IPC: 0.4987 (Simulation time: 13 hr 28 min 31 sec)
Heartbeat CPU 3 instructions: 1590000001 cycles: 1964124742 heartbeat IPC: 0.6796 cumulative IPC: 0.7848 (Simulation time: 13 hr 28 min 43 sec)
Heartbeat CPU 3 instructions: 1600000002 cycles: 1977636320 heartbeat IPC: 0.7401 cumulative IPC: 0.7845 (Simulation time: 13 hr 34 min 21 sec)
Simulation finished CPU 0 instructions: 150000000 cycles: 1959689412 cumulative IPC: 0.07654 (Simulation time: 13 hr 34 min 33 sec)
Simulation complete CPU 0 instructions: 150000000 cycles: 1959689412 cumulative IPC: 0.07654 (Simulation time: 13 hr 34 min 33 sec)
Simulation complete CPU 1 instructions: 977563482 cycles: 1959689412 cumulative IPC: 0.4988 (Simulation time: 13 hr 34 min 33 sec)
Simulation complete CPU 2 instructions: 345296460 cycles: 1959689412 cumulative IPC: 0.1762 (Simulation time: 13 hr 34 min 33 sec)
Simulation complete CPU 3 instructions: 1537307907 cycles: 1959689412 cumulative IPC: 0.7845 (Simulation time: 13 hr 34 min 33 sec)

ChampSim completed all CPUs

=== Simulation ===
CPU 0 runs /home/das/traces4_champsim/605.mcf_s-665B.champsimtrace.xzCPU 1 runs /home/das/traces4_champsim/607.cactuBSSN_s-2421B.champsimtrace.xzCPU 2 runs /home/das/traces4_champsim/470.lbm-1274B.champsimtrace.xzCPU 3 runs /home/das/traces4_champsim/445.gobmk-30B.champsimtrace.xz
Total Simulation Statistics (not including warmup)

CPU 0 cumulative IPC: 0.07654 instructions: 150000000 cycles: 1959689412
CPU 0 Branch Prediction Accuracy: 91.23% MPKI: 21.69 Average ROB Occupancy at Mispredict: 21.8
Branch type MPKI
BRANCH_DIRECT_JUMP: 0.255
BRANCH_INDIRECT: 0
BRANCH_CONDITIONAL: 21.4
BRANCH_DIRECT_CALL: 0
BRANCH_INDIRECT_CALL: 0.000727
BRANCH_RETURN: 0


CPU 1 cumulative IPC: 0.4988 instructions: 977563482 cycles: 1959689412
CPU 1 Branch Prediction Accuracy: 99.56% MPKI: 0.005386 Average ROB Occupancy at Mispredict: 198.5
Branch type MPKI
BRANCH_DIRECT_JUMP: 3.07e-05
BRANCH_INDIRECT: 8.7e-05
BRANCH_CONDITIONAL: 0.00344
BRANCH_DIRECT_CALL: 0.000634
BRANCH_INDIRECT_CALL: 3.07e-06
BRANCH_RETURN: 0.00119


CPU 2 cumulative IPC: 0.1762 instructions: 345296460 cycles: 1959689412
CPU 2 Branch Prediction Accuracy: 99.75% MPKI: 0.03542 Average ROB Occupancy at Mispredict: 343.5
Branch type MPKI
BRANCH_DIRECT_JUMP: 2.9e-06
BRANCH_INDIRECT: 0
BRANCH_CONDITIONAL: 0.0354
BRANCH_DIRECT_CALL: 5.79e-06
BRANCH_INDIRECT_CALL: 0
BRANCH_RETURN: 5.79e-06


CPU 3 cumulative IPC: 0.7845 instructions: 1537307907 cycles: 1959689412
CPU 3 Branch Prediction Accuracy: 94.55% MPKI: 10.23 Average ROB Occupancy at Mispredict: 37.07
Branch type MPKI
BRANCH_DIRECT_JUMP: 0.0645
BRANCH_INDIRECT: 0.000141
BRANCH_CONDITIONAL: 10.1
BRANCH_DIRECT_CALL: 0.00213
BRANCH_INDIRECT_CALL: 0.0192
BRANCH_RETURN: 0.00423

LLC TOTAL        ACCESS:    3622026 HIT:    1599002 MISS:    2023024
LLC LOAD         ACCESS:    3026948 HIT:    1104801 MISS:    1922147
LLC RFO          ACCESS:     222407 HIT:     203523 MISS:      18884
LLC PREFETCH     ACCESS:          0 HIT:          0 MISS:          0
LLC WRITE        ACCESS:     358075 HIT:     285992 MISS:      72083
LLC TRANSLATION  ACCESS:      14596 HIT:       4686 MISS:       9910
LLC PREFETCH REQUESTED:          0 ISSUED:          0 USEFUL:          0 USELESS:          0
LLC AVERAGE MISS LATENCY: 2523 cycles
LLC TOTAL        ACCESS:   11427648 HIT:    3832955 MISS:    7594693
LLC LOAD         ACCESS:   10273183 HIT:    2771466 MISS:    7501717
LLC RFO          ACCESS:      29325 HIT:      28217 MISS:       1108
LLC PREFETCH     ACCESS:          0 HIT:          0 MISS:          0
LLC WRITE        ACCESS:     977154 HIT:     976864 MISS:        290
LLC TRANSLATION  ACCESS:     147986 HIT:      56408 MISS:      91578
LLC PREFETCH REQUESTED:          0 ISSUED:          0 USEFUL:          0 USELESS:          0
LLC AVERAGE MISS LATENCY: 2523 cycles
LLC TOTAL        ACCESS:   18214727 HIT:    7832606 MISS:   10382121
LLC LOAD         ACCESS:    2602045 HIT:         60 MISS:    2601985
LLC RFO          ACCESS:    7805792 HIT:      26548 MISS:    7779244
LLC PREFETCH     ACCESS:          0 HIT:          0 MISS:          0
LLC WRITE        ACCESS:    7806065 HIT:    7805980 MISS:         85
LLC TRANSLATION  ACCESS:        825 HIT:         18 MISS:        807
LLC PREFETCH REQUESTED:          0 ISSUED:          0 USEFUL:          0 USELESS:          0
LLC AVERAGE MISS LATENCY: 2523 cycles
LLC TOTAL        ACCESS:    3877005 HIT:    1914853 MISS:    1962152
LLC LOAD         ACCESS:    1228118 HIT:     441315 MISS:     786803
LLC RFO          ACCESS:    1052637 HIT:     140657 MISS:     911980
LLC PREFETCH     ACCESS:          0 HIT:          0 MISS:          0
LLC WRITE        ACCESS:    1562527 HIT:    1323281 MISS:     239246
LLC TRANSLATION  ACCESS:      33723 HIT:       9600 MISS:      24123
LLC PREFETCH REQUESTED:          0 ISSUED:          0 USEFUL:          0 USELESS:          0
LLC AVERAGE MISS LATENCY: 2523 cycles
cpu0_DTLB TOTAL        ACCESS:   40151556 HIT:   37543375 MISS:    2608181
cpu0_DTLB LOAD         ACCESS:   40151556 HIT:   37543375 MISS:    2608181
cpu0_DTLB RFO          ACCESS:          0 HIT:          0 MISS:          0
cpu0_DTLB PREFETCH     ACCESS:          0 HIT:          0 MISS:          0
cpu0_DTLB WRITE        ACCESS:          0 HIT:          0 MISS:          0
cpu0_DTLB TRANSLATION  ACCESS:          0 HIT:          0 MISS:          0
cpu0_DTLB PREFETCH REQUESTED:          0 ISSUED:          0 USEFUL:          0 USELESS:          0
cpu0_DTLB AVERAGE MISS LATENCY: 16.64 cycles
cpu0_DTLB TOTAL        ACCESS:          0 HIT:          0 MISS:          0
cpu0_DTLB LOAD         ACCESS:          0 HIT:          0 MISS:          0
cpu0_DTLB RFO          ACCESS:          0 HIT:          0 MISS:          0
cpu0_DTLB PREFETCH     ACCESS:          0 HIT:          0 MISS:          0
cpu0_DTLB WRITE        ACCESS:          0 HIT:          0 MISS:          0
cpu0_DTLB TRANSLATION  ACCESS:          0 HIT:          0 MISS:          0
cpu0_DTLB PREFETCH REQUESTED:          0 ISSUED:          0 USEFUL:          0 USELESS:          0
cpu0_DTLB AVERAGE MISS LATENCY: 16.64 cycles
cpu0_DTLB TOTAL        ACCESS:          0 HIT:          0 MISS:          0
cpu0_DTLB LOAD         ACCESS:          0 HIT:          0 MISS:          0
cpu0_DTLB RFO          ACCESS:          0 HIT:          0 MISS:          0
cpu0_DTLB PREFETCH     ACCESS:          0 HIT:          0 MISS:          0
cpu0_DTLB WRITE        ACCESS:          0 HIT:          0 MISS:          0
cpu0_DTLB TRANSLATION  ACCESS:          0 HIT:          0 MISS:          0
cpu0_DTLB PREFETCH REQUESTED:          0 ISSUED:          0 USEFUL:          0 USELESS:          0
cpu0_DTLB AVERAGE MISS LATENCY: 16.64 cycles
cpu0_DTLB TOTAL        ACCESS:          0 HIT:          0 MISS:          0
cpu0_DTLB LOAD         ACCESS:          0 HIT:          0 MISS:          0
cpu0_DTLB RFO          ACCESS:          0 HIT:          0 MISS:          0
cpu0_DTLB PREFETCH     ACCESS:          0 HIT:          0 MISS:          0
cpu0_DTLB WRITE        ACCESS:          0 HIT:          0 MISS:          0
cpu0_DTLB TRANSLATION  ACCESS:          0 HIT:          0 MISS:          0
cpu0_DTLB PREFETCH REQUESTED:          0 ISSUED:          0 USEFUL:          0 USELESS:          0
cpu0_DTLB AVERAGE MISS LATENCY: 16.64 cycles
cpu0_ITLB TOTAL        ACCESS:      50384 HIT:      50384 MISS:          0
cpu0_ITLB LOAD         ACCESS:      50384 HIT:      50384 MISS:          0
cpu0_ITLB RFO          ACCESS:          0 HIT:          0 MISS:          0
cpu0_ITLB PREFETCH     ACCESS:          0 HIT:          0 MISS:          0
cpu0_ITLB WRITE        ACCESS:          0 HIT:          0 MISS:          0
cpu0_ITLB TRANSLATION  ACCESS:          0 HIT:          0 MISS:          0
cpu0_ITLB PREFETCH REQUESTED:          0 ISSUED:          0 USEFUL:          0 USELESS:          0
cpu0_ITLB AVERAGE MISS LATENCY: -nan cycles
cpu0_ITLB TOTAL        ACCESS:          0 HIT:          0 MISS:          0
cpu0_ITLB LOAD         ACCESS:          0 HIT:          0 MISS:          0
cpu0_ITLB RFO          ACCESS:          0 HIT:          0 MISS:          0
cpu0_ITLB PREFETCH     ACCESS:          0 HIT:          0 MISS:          0
cpu0_ITLB WRITE        ACCESS:          0 HIT:          0 MISS:          0
cpu0_ITLB TRANSLATION  ACCESS:          0 HIT:          0 MISS:          0
cpu0_ITLB PREFETCH REQUESTED:          0 ISSUED:          0 USEFUL:          0 USELESS:          0
cpu0_ITLB AVERAGE MISS LATENCY: -nan cycles
cpu0_ITLB TOTAL        ACCESS:          0 HIT:          0 MISS:          0
cpu0_ITLB LOAD         ACCESS:          0 HIT:          0 MISS:          0
cpu0_ITLB RFO          ACCESS:          0 HIT:          0 MISS:          0
cpu0_ITLB PREFETCH     ACCESS:          0 HIT:          0 MISS:          0
cpu0_ITLB WRITE        ACCESS:          0 HIT:          0 MISS:          0
cpu0_ITLB TRANSLATION  ACCESS:          0 HIT:          0 MISS:          0
cpu0_ITLB PREFETCH REQUESTED:          0 ISSUED:          0 USEFUL:          0 USELESS:          0
cpu0_ITLB AVERAGE MISS LATENCY: -nan cycles
cpu0_ITLB TOTAL        ACCESS:          0 HIT:          0 MISS:          0
cpu0_ITLB LOAD         ACCESS:          0 HIT:          0 MISS:          0
cpu0_ITLB RFO          ACCESS:          0 HIT:          0 MISS:          0
cpu0_ITLB PREFETCH     ACCESS:          0 HIT:          0 MISS:          0
cpu0_ITLB WRITE        ACCESS:          0 HIT:          0 MISS:          0
cpu0_ITLB TRANSLATION  ACCESS:          0 HIT:          0 MISS:          0
cpu0_ITLB PREFETCH REQUESTED:          0 ISSUED:          0 USEFUL:          0 USELESS:          0
cpu0_ITLB AVERAGE MISS LATENCY: -nan cycles
cpu0_L1D TOTAL        ACCESS:   51355469 HIT:   44126663 MISS:    7228806
cpu0_L1D LOAD         ACCESS:   33659067 HIT:   28021441 MISS:    5637626
cpu0_L1D RFO          ACCESS:          0 HIT:          0 MISS:          0
cpu0_L1D PREFETCH     ACCESS:          0 HIT:          0 MISS:          0
cpu0_L1D WRITE        ACCESS:   17664098 HIT:   16090516 MISS:    1573582
cpu0_L1D TRANSLATION  ACCESS:      32304 HIT:      14706 MISS:      17598
cpu0_L1D PREFETCH REQUESTED:          0 ISSUED:          0 USEFUL:          0 USELESS:          0
cpu0_L1D AVERAGE MISS LATENCY: 588.8 cycles
cpu0_L1D TOTAL        ACCESS:          0 HIT:          0 MISS:          0
cpu0_L1D LOAD         ACCESS:          0 HIT:          0 MISS:          0
cpu0_L1D RFO          ACCESS:          0 HIT:          0 MISS:          0
cpu0_L1D PREFETCH     ACCESS:          0 HIT:          0 MISS:          0
cpu0_L1D WRITE        ACCESS:          0 HIT:          0 MISS:          0
cpu0_L1D TRANSLATION  ACCESS:          0 HIT:          0 MISS:          0
cpu0_L1D PREFETCH REQUESTED:          0 ISSUED:          0 USEFUL:          0 USELESS:          0
cpu0_L1D AVERAGE MISS LATENCY: 588.8 cycles
cpu0_L1D TOTAL        ACCESS:          0 HIT:          0 MISS:          0
cpu0_L1D LOAD         ACCESS:          0 HIT:          0 MISS:          0
cpu0_L1D RFO          ACCESS:          0 HIT:          0 MISS:          0
cpu0_L1D PREFETCH     ACCESS:          0 HIT:          0 MISS:          0
cpu0_L1D WRITE        ACCESS:          0 HIT:          0 MISS:          0
cpu0_L1D TRANSLATION  ACCESS:          0 HIT:          0 MISS:          0
cpu0_L1D PREFETCH REQUESTED:          0 ISSUED:          0 USEFUL:          0 USELESS:          0
cpu0_L1D AVERAGE MISS LATENCY: 588.8 cycles
cpu0_L1D TOTAL        ACCESS:          0 HIT:          0 MISS:          0
cpu0_L1D LOAD         ACCESS:          0 HIT:          0 MISS:          0
cpu0_L1D RFO          ACCESS:          0 HIT:          0 MISS:          0
cpu0_L1D PREFETCH     ACCESS:          0 HIT:          0 MISS:          0
cpu0_L1D WRITE        ACCESS:          0 HIT:          0 MISS:          0
cpu0_L1D TRANSLATION  ACCESS:          0 HIT:          0 MISS:          0
cpu0_L1D PREFETCH REQUESTED:          0 ISSUED:          0 USEFUL:          0 USELESS:          0
cpu0_L1D AVERAGE MISS LATENCY: 588.8 cycles
cpu0_L1I TOTAL        ACCESS:      56795 HIT:      56793 MISS:          2
cpu0_L1I LOAD         ACCESS:      56795 HIT:      56793 MISS:          2
cpu0_L1I RFO          ACCESS:          0 HIT:          0 MISS:          0
cpu0_L1I PREFETCH     ACCESS:          0 HIT:          0 MISS:          0
cpu0_L1I WRITE        ACCESS:          0 HIT:          0 MISS:          0
cpu0_L1I TRANSLATION  ACCESS:          0 HIT:          0 MISS:          0
cpu0_L1I PREFETCH REQUESTED:          0 ISSUED:          0 USEFUL:          0 USELESS:          0
cpu0_L1I AVERAGE MISS LATENCY: 3465 cycles
cpu0_L1I TOTAL        ACCESS:          0 HIT:          0 MISS:          0
cpu0_L1I LOAD         ACCESS:          0 HIT:          0 MISS:          0
cpu0_L1I RFO          ACCESS:          0 HIT:          0 MISS:          0
cpu0_L1I PREFETCH     ACCESS:          0 HIT:          0 MISS:          0
cpu0_L1I WRITE        ACCESS:          0 HIT:          0 MISS:          0
cpu0_L1I TRANSLATION  ACCESS:          0 HIT:          0 MISS:          0
cpu0_L1I PREFETCH REQUESTED:          0 ISSUED:          0 USEFUL:          0 USELESS:          0
cpu0_L1I AVERAGE MISS LATENCY: 3465 cycles
cpu0_L1I TOTAL        ACCESS:          0 HIT:          0 MISS:          0
cpu0_L1I LOAD         ACCESS:          0 HIT:          0 MISS:          0
cpu0_L1I RFO          ACCESS:          0 HIT:          0 MISS:          0
cpu0_L1I PREFETCH     ACCESS:          0 HIT:          0 MISS:          0
cpu0_L1I WRITE        ACCESS:          0 HIT:          0 MISS:          0
cpu0_L1I TRANSLATION  ACCESS:          0 HIT:          0 MISS:          0
cpu0_L1I PREFETCH REQUESTED:          0 ISSUED:          0 USEFUL:          0 USELESS:          0
cpu0_L1I AVERAGE MISS LATENCY: 3465 cycles
cpu0_L1I TOTAL        ACCESS:          0 HIT:          0 MISS:          0
cpu0_L1I LOAD         ACCESS:          0 HIT:          0 MISS:          0
cpu0_L1I RFO          ACCESS:          0 HIT:          0 MISS:          0
cpu0_L1I PREFETCH     ACCESS:          0 HIT:          0 MISS:          0
cpu0_L1I WRITE        ACCESS:          0 HIT:          0 MISS:          0
cpu0_L1I TRANSLATION  ACCESS:          0 HIT:          0 MISS:          0
cpu0_L1I PREFETCH REQUESTED:          0 ISSUED:          0 USEFUL:          0 USELESS:          0
cpu0_L1I AVERAGE MISS LATENCY: 3465 cycles
cpu0_L2C TOTAL        ACCESS:    6031147 HIT:    2766738 MISS:    3264409
cpu0_L2C LOAD         ACCESS:    4656232 HIT:    1629283 MISS:    3026949
cpu0_L2C RFO          ACCESS:     572501 HIT:     350094 MISS:     222407
cpu0_L2C PREFETCH     ACCESS:          0 HIT:          0 MISS:          0
cpu0_L2C WRITE        ACCESS:     784820 HIT:     784363 MISS:        457
cpu0_L2C TRANSLATION  ACCESS:      17594 HIT:       2998 MISS:      14596
cpu0_L2C PREFETCH REQUESTED:          0 ISSUED:          0 USEFUL:          0 USELESS:          0
cpu0_L2C AVERAGE MISS LATENCY: 1293 cycles
cpu0_L2C TOTAL        ACCESS:          0 HIT:          0 MISS:          0
cpu0_L2C LOAD         ACCESS:          0 HIT:          0 MISS:          0
cpu0_L2C RFO          ACCESS:          0 HIT:          0 MISS:          0
cpu0_L2C PREFETCH     ACCESS:          0 HIT:          0 MISS:          0
cpu0_L2C WRITE        ACCESS:          0 HIT:          0 MISS:          0
cpu0_L2C TRANSLATION  ACCESS:          0 HIT:          0 MISS:          0
cpu0_L2C PREFETCH REQUESTED:          0 ISSUED:          0 USEFUL:          0 USELESS:          0
cpu0_L2C AVERAGE MISS LATENCY: 1293 cycles
cpu0_L2C TOTAL        ACCESS:          0 HIT:          0 MISS:          0
cpu0_L2C LOAD         ACCESS:          0 HIT:          0 MISS:          0
cpu0_L2C RFO          ACCESS:          0 HIT:          0 MISS:          0
cpu0_L2C PREFETCH     ACCESS:          0 HIT:          0 MISS:          0
cpu0_L2C WRITE        ACCESS:          0 HIT:          0 MISS:          0
cpu0_L2C TRANSLATION  ACCESS:          0 HIT:          0 MISS:          0
cpu0_L2C PREFETCH REQUESTED:          0 ISSUED:          0 USEFUL:          0 USELESS:          0
cpu0_L2C AVERAGE MISS LATENCY: 1293 cycles
cpu0_L2C TOTAL        ACCESS:          0 HIT:          0 MISS:          0
cpu0_L2C LOAD         ACCESS:          0 HIT:          0 MISS:          0
cpu0_L2C RFO          ACCESS:          0 HIT:          0 MISS:          0
cpu0_L2C PREFETCH     ACCESS:          0 HIT:          0 MISS:          0
cpu0_L2C WRITE        ACCESS:          0 HIT:          0 MISS:          0
cpu0_L2C TRANSLATION  ACCESS:          0 HIT:          0 MISS:          0
cpu0_L2C PREFETCH REQUESTED:          0 ISSUED:          0 USEFUL:          0 USELESS:          0
cpu0_L2C AVERAGE MISS LATENCY: 1293 cycles
cpu0_STLB TOTAL        ACCESS:    2251934 HIT:    2219879 MISS:      32055
cpu0_STLB LOAD         ACCESS:    2251934 HIT:    2219879 MISS:      32055
cpu0_STLB RFO          ACCESS:          0 HIT:          0 MISS:          0
cpu0_STLB PREFETCH     ACCESS:          0 HIT:          0 MISS:          0
cpu0_STLB WRITE        ACCESS:          0 HIT:          0 MISS:          0
cpu0_STLB TRANSLATION  ACCESS:          0 HIT:          0 MISS:          0
cpu0_STLB PREFETCH REQUESTED:          0 ISSUED:          0 USEFUL:          0 USELESS:          0
cpu0_STLB AVERAGE MISS LATENCY: 840 cycles
cpu0_STLB TOTAL        ACCESS:          0 HIT:          0 MISS:          0
cpu0_STLB LOAD         ACCESS:          0 HIT:          0 MISS:          0
cpu0_STLB RFO          ACCESS:          0 HIT:          0 MISS:          0
cpu0_STLB PREFETCH     ACCESS:          0 HIT:          0 MISS:          0
cpu0_STLB WRITE        ACCESS:          0 HIT:          0 MISS:          0
cpu0_STLB TRANSLATION  ACCESS:          0 HIT:          0 MISS:          0
cpu0_STLB PREFETCH REQUESTED:          0 ISSUED:          0 USEFUL:          0 USELESS:          0
cpu0_STLB AVERAGE MISS LATENCY: 840 cycles
cpu0_STLB TOTAL        ACCESS:          0 HIT:          0 MISS:          0
cpu0_STLB LOAD         ACCESS:          0 HIT:          0 MISS:          0
cpu0_STLB RFO          ACCESS:          0 HIT:          0 MISS:          0
cpu0_STLB PREFETCH     ACCESS:          0 HIT:          0 MISS:          0
cpu0_STLB WRITE        ACCESS:          0 HIT:          0 MISS:          0
cpu0_STLB TRANSLATION  ACCESS:          0 HIT:          0 MISS:          0
cpu0_STLB PREFETCH REQUESTED:          0 ISSUED:          0 USEFUL:          0 USELESS:          0
cpu0_STLB AVERAGE MISS LATENCY: 840 cycles
cpu0_STLB TOTAL        ACCESS:          0 HIT:          0 MISS:          0
cpu0_STLB LOAD         ACCESS:          0 HIT:          0 MISS:          0
cpu0_STLB RFO          ACCESS:          0 HIT:          0 MISS:          0
cpu0_STLB PREFETCH     ACCESS:          0 HIT:          0 MISS:          0
cpu0_STLB WRITE        ACCESS:          0 HIT:          0 MISS:          0
cpu0_STLB TRANSLATION  ACCESS:          0 HIT:          0 MISS:          0
cpu0_STLB PREFETCH REQUESTED:          0 ISSUED:          0 USEFUL:          0 USELESS:          0
cpu0_STLB AVERAGE MISS LATENCY: 840 cycles
cpu1_DTLB TOTAL        ACCESS:          0 HIT:          0 MISS:          0
cpu1_DTLB LOAD         ACCESS:          0 HIT:          0 MISS:          0
cpu1_DTLB RFO          ACCESS:          0 HIT:          0 MISS:          0
cpu1_DTLB PREFETCH     ACCESS:          0 HIT:          0 MISS:          0
cpu1_DTLB WRITE        ACCESS:          0 HIT:          0 MISS:          0
cpu1_DTLB TRANSLATION  ACCESS:          0 HIT:          0 MISS:          0
cpu1_DTLB PREFETCH REQUESTED:          0 ISSUED:          0 USEFUL:          0 USELESS:          0
cpu1_DTLB AVERAGE MISS LATENCY: 9.497 cycles
cpu1_DTLB TOTAL        ACCESS:  205283092 HIT:  119723139 MISS:   85559953
cpu1_DTLB LOAD         ACCESS:  205283092 HIT:  119723139 MISS:   85559953
cpu1_DTLB RFO          ACCESS:          0 HIT:          0 MISS:          0
cpu1_DTLB PREFETCH     ACCESS:          0 HIT:          0 MISS:          0
cpu1_DTLB WRITE        ACCESS:          0 HIT:          0 MISS:          0
cpu1_DTLB TRANSLATION  ACCESS:          0 HIT:          0 MISS:          0
cpu1_DTLB PREFETCH REQUESTED:          0 ISSUED:          0 USEFUL:          0 USELESS:          0
cpu1_DTLB AVERAGE MISS LATENCY: 9.497 cycles
cpu1_DTLB TOTAL        ACCESS:          0 HIT:          0 MISS:          0
cpu1_DTLB LOAD         ACCESS:          0 HIT:          0 MISS:          0
cpu1_DTLB RFO          ACCESS:          0 HIT:          0 MISS:          0
cpu1_DTLB PREFETCH     ACCESS:          0 HIT:          0 MISS:          0
cpu1_DTLB WRITE        ACCESS:          0 HIT:          0 MISS:          0
cpu1_DTLB TRANSLATION  ACCESS:          0 HIT:          0 MISS:          0
cpu1_DTLB PREFETCH REQUESTED:          0 ISSUED:          0 USEFUL:          0 USELESS:          0
cpu1_DTLB AVERAGE MISS LATENCY: 9.497 cycles
cpu1_DTLB TOTAL        ACCESS:          0 HIT:          0 MISS:          0
cpu1_DTLB LOAD         ACCESS:          0 HIT:          0 MISS:          0
cpu1_DTLB RFO          ACCESS:          0 HIT:          0 MISS:          0
cpu1_DTLB PREFETCH     ACCESS:          0 HIT:          0 MISS:          0
cpu1_DTLB WRITE        ACCESS:          0 HIT:          0 MISS:          0
cpu1_DTLB TRANSLATION  ACCESS:          0 HIT:          0 MISS:          0
cpu1_DTLB PREFETCH REQUESTED:          0 ISSUED:          0 USEFUL:          0 USELESS:          0
cpu1_DTLB AVERAGE MISS LATENCY: 9.497 cycles
cpu1_ITLB TOTAL        ACCESS:          0 HIT:          0 MISS:          0
cpu1_ITLB LOAD         ACCESS:          0 HIT:          0 MISS:          0
cpu1_ITLB RFO          ACCESS:          0 HIT:          0 MISS:          0
cpu1_ITLB PREFETCH     ACCESS:          0 HIT:          0 MISS:          0
cpu1_ITLB WRITE        ACCESS:          0 HIT:          0 MISS:          0
cpu1_ITLB TRANSLATION  ACCESS:          0 HIT:          0 MISS:          0
cpu1_ITLB PREFETCH REQUESTED:          0 ISSUED:          0 USEFUL:          0 USELESS:          0
cpu1_ITLB AVERAGE MISS LATENCY: 655.8 cycles
cpu1_ITLB TOTAL        ACCESS:  126676132 HIT:  126676047 MISS:         85
cpu1_ITLB LOAD         ACCESS:  126676132 HIT:  126676047 MISS:         85
cpu1_ITLB RFO          ACCESS:          0 HIT:          0 MISS:          0
cpu1_ITLB PREFETCH     ACCESS:          0 HIT:          0 MISS:          0
cpu1_ITLB WRITE        ACCESS:          0 HIT:          0 MISS:          0
cpu1_ITLB TRANSLATION  ACCESS:          0 HIT:          0 MISS:          0
cpu1_ITLB PREFETCH REQUESTED:          0 ISSUED:          0 USEFUL:          0 USELESS:          0
cpu1_ITLB AVERAGE MISS LATENCY: 655.8 cycles
cpu1_ITLB TOTAL        ACCESS:          0 HIT:          0 MISS:          0
cpu1_ITLB LOAD         ACCESS:          0 HIT:          0 MISS:          0
cpu1_ITLB RFO          ACCESS:          0 HIT:          0 MISS:          0
cpu1_ITLB PREFETCH     ACCESS:          0 HIT:          0 MISS:          0
cpu1_ITLB WRITE        ACCESS:          0 HIT:          0 MISS:          0
cpu1_ITLB TRANSLATION  ACCESS:          0 HIT:          0 MISS:          0
cpu1_ITLB PREFETCH REQUESTED:          0 ISSUED:          0 USEFUL:          0 USELESS:          0
cpu1_ITLB AVERAGE MISS LATENCY: 655.8 cycles
cpu1_ITLB TOTAL        ACCESS:          0 HIT:          0 MISS:          0
cpu1_ITLB LOAD         ACCESS:          0 HIT:          0 MISS:          0
cpu1_ITLB RFO          ACCESS:          0 HIT:          0 MISS:          0
cpu1_ITLB PREFETCH     ACCESS:          0 HIT:          0 MISS:          0
cpu1_ITLB WRITE        ACCESS:          0 HIT:          0 MISS:          0
cpu1_ITLB TRANSLATION  ACCESS:          0 HIT:          0 MISS:          0
cpu1_ITLB PREFETCH REQUESTED:          0 ISSUED:          0 USEFUL:          0 USELESS:          0
cpu1_ITLB AVERAGE MISS LATENCY: 655.8 cycles
cpu1_L1D TOTAL        ACCESS:          0 HIT:          0 MISS:          0
cpu1_L1D LOAD         ACCESS:          0 HIT:          0 MISS:          0
cpu1_L1D RFO          ACCESS:          0 HIT:          0 MISS:          0
cpu1_L1D PREFETCH     ACCESS:          0 HIT:          0 MISS:          0
cpu1_L1D WRITE        ACCESS:          0 HIT:          0 MISS:          0
cpu1_L1D TRANSLATION  ACCESS:          0 HIT:          0 MISS:          0
cpu1_L1D PREFETCH REQUESTED:          0 ISSUED:          0 USEFUL:          0 USELESS:          0
cpu1_L1D AVERAGE MISS LATENCY: 209.5 cycles
cpu1_L1D TOTAL        ACCESS:  255475197 HIT:  141975834 MISS:  113499363
cpu1_L1D LOAD         ACCESS:  143670101 HIT:   36151923 MISS:  107518178
cpu1_L1D RFO          ACCESS:          0 HIT:          0 MISS:          0
cpu1_L1D PREFETCH     ACCESS:          0 HIT:          0 MISS:          0
cpu1_L1D WRITE        ACCESS:  111619703 HIT:  105822249 MISS:    5797454
cpu1_L1D TRANSLATION  ACCESS:     185393 HIT:       1662 MISS:     183731
cpu1_L1D PREFETCH REQUESTED:          0 ISSUED:          0 USEFUL:          0 USELESS:          0
cpu1_L1D AVERAGE MISS LATENCY: 209.5 cycles
cpu1_L1D TOTAL        ACCESS:          0 HIT:          0 MISS:          0
cpu1_L1D LOAD         ACCESS:          0 HIT:          0 MISS:          0
cpu1_L1D RFO          ACCESS:          0 HIT:          0 MISS:          0
cpu1_L1D PREFETCH     ACCESS:          0 HIT:          0 MISS:          0
cpu1_L1D WRITE        ACCESS:          0 HIT:          0 MISS:          0
cpu1_L1D TRANSLATION  ACCESS:          0 HIT:          0 MISS:          0
cpu1_L1D PREFETCH REQUESTED:          0 ISSUED:          0 USEFUL:          0 USELESS:          0
cpu1_L1D AVERAGE MISS LATENCY: 209.5 cycles
cpu1_L1D TOTAL        ACCESS:          0 HIT:          0 MISS:          0
cpu1_L1D LOAD         ACCESS:          0 HIT:          0 MISS:          0
cpu1_L1D RFO          ACCESS:          0 HIT:          0 MISS:          0
cpu1_L1D PREFETCH     ACCESS:          0 HIT:          0 MISS:          0
cpu1_L1D WRITE        ACCESS:          0 HIT:          0 MISS:          0
cpu1_L1D TRANSLATION  ACCESS:          0 HIT:          0 MISS:          0
cpu1_L1D PREFETCH REQUESTED:          0 ISSUED:          0 USEFUL:          0 USELESS:          0
cpu1_L1D AVERAGE MISS LATENCY: 209.5 cycles
cpu1_L1I TOTAL        ACCESS:          0 HIT:          0 MISS:          0
cpu1_L1I LOAD         ACCESS:          0 HIT:          0 MISS:          0
cpu1_L1I RFO          ACCESS:          0 HIT:          0 MISS:          0
cpu1_L1I PREFETCH     ACCESS:          0 HIT:          0 MISS:          0
cpu1_L1I WRITE        ACCESS:          0 HIT:          0 MISS:          0
cpu1_L1I TRANSLATION  ACCESS:          0 HIT:          0 MISS:          0
cpu1_L1I PREFETCH REQUESTED:          0 ISSUED:          0 USEFUL:          0 USELESS:          0
cpu1_L1I AVERAGE MISS LATENCY: 20.97 cycles
cpu1_L1I TOTAL        ACCESS:  166263963 HIT:  166187810 MISS:      76153
cpu1_L1I LOAD         ACCESS:  166263963 HIT:  166187810 MISS:      76153
cpu1_L1I RFO          ACCESS:          0 HIT:          0 MISS:          0
cpu1_L1I PREFETCH     ACCESS:          0 HIT:          0 MISS:          0
cpu1_L1I WRITE        ACCESS:          0 HIT:          0 MISS:          0
cpu1_L1I TRANSLATION  ACCESS:          0 HIT:          0 MISS:          0
cpu1_L1I PREFETCH REQUESTED:          0 ISSUED:          0 USEFUL:          0 USELESS:          0
cpu1_L1I AVERAGE MISS LATENCY: 20.97 cycles
cpu1_L1I TOTAL        ACCESS:          0 HIT:          0 MISS:          0
cpu1_L1I LOAD         ACCESS:          0 HIT:          0 MISS:          0
cpu1_L1I RFO          ACCESS:          0 HIT:          0 MISS:          0
cpu1_L1I PREFETCH     ACCESS:          0 HIT:          0 MISS:          0
cpu1_L1I WRITE        ACCESS:          0 HIT:          0 MISS:          0
cpu1_L1I TRANSLATION  ACCESS:          0 HIT:          0 MISS:          0
cpu1_L1I PREFETCH REQUESTED:          0 ISSUED:          0 USEFUL:          0 USELESS:          0
cpu1_L1I AVERAGE MISS LATENCY: 20.97 cycles
cpu1_L1I TOTAL        ACCESS:          0 HIT:          0 MISS:          0
cpu1_L1I LOAD         ACCESS:          0 HIT:          0 MISS:          0
cpu1_L1I RFO          ACCESS:          0 HIT:          0 MISS:          0
cpu1_L1I PREFETCH     ACCESS:          0 HIT:          0 MISS:          0
cpu1_L1I WRITE        ACCESS:          0 HIT:          0 MISS:          0
cpu1_L1I TRANSLATION  ACCESS:          0 HIT:          0 MISS:          0
cpu1_L1I PREFETCH REQUESTED:          0 ISSUED:          0 USEFUL:          0 USELESS:          0
cpu1_L1I AVERAGE MISS LATENCY: 20.97 cycles
cpu1_L2C TOTAL        ACCESS:          0 HIT:          0 MISS:          0
cpu1_L2C LOAD         ACCESS:          0 HIT:          0 MISS:          0
cpu1_L2C RFO          ACCESS:          0 HIT:          0 MISS:          0
cpu1_L2C PREFETCH     ACCESS:          0 HIT:          0 MISS:          0
cpu1_L2C WRITE        ACCESS:          0 HIT:          0 MISS:          0
cpu1_L2C TRANSLATION  ACCESS:          0 HIT:          0 MISS:          0
cpu1_L2C PREFETCH REQUESTED:          0 ISSUED:          0 USEFUL:          0 USELESS:          0
cpu1_L2C AVERAGE MISS LATENCY: 2166 cycles
cpu1_L2C TOTAL        ACCESS:  119350392 HIT:  108899570 MISS:   10450822
cpu1_L2C LOAD         ACCESS:  106410609 HIT:   96137278 MISS:   10273331
cpu1_L2C RFO          ACCESS:    4301557 HIT:    4272053 MISS:      29504
cpu1_L2C PREFETCH     ACCESS:          0 HIT:          0 MISS:          0
cpu1_L2C WRITE        ACCESS:    8454676 HIT:    8454675 MISS:          1
cpu1_L2C TRANSLATION  ACCESS:     183550 HIT:      35564 MISS:     147986
cpu1_L2C PREFETCH REQUESTED:          0 ISSUED:          0 USEFUL:          0 USELESS:          0
cpu1_L2C AVERAGE MISS LATENCY: 2166 cycles
cpu1_L2C TOTAL        ACCESS:          0 HIT:          0 MISS:          0
cpu1_L2C LOAD         ACCESS:          0 HIT:          0 MISS:          0
cpu1_L2C RFO          ACCESS:          0 HIT:          0 MISS:          0
cpu1_L2C PREFETCH     ACCESS:          0 HIT:          0 MISS:          0
cpu1_L2C WRITE        ACCESS:          0 HIT:          0 MISS:          0
cpu1_L2C TRANSLATION  ACCESS:          0 HIT:          0 MISS:          0
cpu1_L2C PREFETCH REQUESTED:          0 ISSUED:          0 USEFUL:          0 USELESS:          0
cpu1_L2C AVERAGE MISS LATENCY: 2166 cycles
cpu1_L2C TOTAL        ACCESS:          0 HIT:          0 MISS:          0
cpu1_L2C LOAD         ACCESS:          0 HIT:          0 MISS:          0
cpu1_L2C RFO          ACCESS:          0 HIT:          0 MISS:          0
cpu1_L2C PREFETCH     ACCESS:          0 HIT:          0 MISS:          0
cpu1_L2C WRITE        ACCESS:          0 HIT:          0 MISS:          0
cpu1_L2C TRANSLATION  ACCESS:          0 HIT:          0 MISS:          0
cpu1_L2C PREFETCH REQUESTED:          0 ISSUED:          0 USEFUL:          0 USELESS:          0
cpu1_L2C AVERAGE MISS LATENCY: 2166 cycles
cpu1_STLB TOTAL        ACCESS:          0 HIT:          0 MISS:          0
cpu1_STLB LOAD         ACCESS:          0 HIT:          0 MISS:          0
cpu1_STLB RFO          ACCESS:          0 HIT:          0 MISS:          0
cpu1_STLB PREFETCH     ACCESS:          0 HIT:          0 MISS:          0
cpu1_STLB WRITE        ACCESS:          0 HIT:          0 MISS:          0
cpu1_STLB TRANSLATION  ACCESS:          0 HIT:          0 MISS:          0
cpu1_STLB PREFETCH REQUESTED:          0 ISSUED:          0 USEFUL:          0 USELESS:          0
cpu1_STLB AVERAGE MISS LATENCY: 2402 cycles
cpu1_STLB TOTAL        ACCESS:   73685656 HIT:   73566411 MISS:     119245
cpu1_STLB LOAD         ACCESS:   73685656 HIT:   73566411 MISS:     119245
cpu1_STLB RFO          ACCESS:          0 HIT:          0 MISS:          0
cpu1_STLB PREFETCH     ACCESS:          0 HIT:          0 MISS:          0
cpu1_STLB WRITE        ACCESS:          0 HIT:          0 MISS:          0
cpu1_STLB TRANSLATION  ACCESS:          0 HIT:          0 MISS:          0
cpu1_STLB PREFETCH REQUESTED:          0 ISSUED:          0 USEFUL:          0 USELESS:          0
cpu1_STLB AVERAGE MISS LATENCY: 2402 cycles
cpu1_STLB TOTAL        ACCESS:          0 HIT:          0 MISS:          0
cpu1_STLB LOAD         ACCESS:          0 HIT:          0 MISS:          0
cpu1_STLB RFO          ACCESS:          0 HIT:          0 MISS:          0
cpu1_STLB PREFETCH     ACCESS:          0 HIT:          0 MISS:          0
cpu1_STLB WRITE        ACCESS:          0 HIT:          0 MISS:          0
cpu1_STLB TRANSLATION  ACCESS:          0 HIT:          0 MISS:          0
cpu1_STLB PREFETCH REQUESTED:          0 ISSUED:          0 USEFUL:          0 USELESS:          0
[...]
cpu2_L1I WRITE        ACCESS:          0 HIT:          0 MISS:          0
cpu2_L1I TRANSLATION  ACCESS:          0 HIT:          0 MISS:          0
cpu2_L1I PREFETCH REQUESTED:          0 ISSUED:          0 USEFUL:          0 USELESS:          0
cpu2_L1I AVERAGE MISS LATENCY: 1238 cycles
cpu2_L1I TOTAL        ACCESS:          0 HIT:          0 MISS:          0
cpu2_L1I LOAD         ACCESS:          0 HIT:          0 MISS:          0
cpu2_L1I RFO          ACCESS:          0 HIT:          0 MISS:          0
cpu2_L1I PREFETCH     ACCESS:          0 HIT:          0 MISS:          0
cpu2_L1I WRITE        ACCESS:          0 HIT:          0 MISS:          0
cpu2_L1I TRANSLATION  ACCESS:          0 HIT:          0 MISS:          0
cpu2_L1I PREFETCH REQUESTED:          0 ISSUED:          0 USEFUL:          0 USELESS:          0
cpu2_L1I AVERAGE MISS LATENCY: 1238 cycles
cpu2_L2C TOTAL        ACCESS:          0 HIT:          0 MISS:          0
cpu2_L2C LOAD         ACCESS:          0 HIT:          0 MISS:          0
cpu2_L2C RFO          ACCESS:          0 HIT:          0 MISS:          0
cpu2_L2C PREFETCH     ACCESS:          0 HIT:          0 MISS:          0
cpu2_L2C WRITE        ACCESS:          0 HIT:          0 MISS:          0
cpu2_L2C TRANSLATION  ACCESS:          0 HIT:          0 MISS:          0
cpu2_L2C PREFETCH REQUESTED:          0 ISSUED:          0 USEFUL:          0 USELESS:          0
cpu2_L2C AVERAGE MISS LATENCY: 2223 cycles
cpu2_L2C TOTAL        ACCESS:          0 HIT:          0 MISS:          0
cpu2_L2C LOAD         ACCESS:          0 HIT:          0 MISS:          0
cpu2_L2C RFO          ACCESS:          0 HIT:          0 MISS:          0
cpu2_L2C PREFETCH     ACCESS:          0 HIT:          0 MISS:          0
cpu2_L2C WRITE        ACCESS:          0 HIT:          0 MISS:          0
cpu2_L2C TRANSLATION  ACCESS:          0 HIT:          0 MISS:          0
cpu2_L2C PREFETCH REQUESTED:          0 ISSUED:          0 USEFUL:          0 USELESS:          0
cpu2_L2C AVERAGE MISS LATENCY: 2223 cycles
cpu2_L2C TOTAL        ACCESS:   13117372 HIT:    8853744 MISS:    4263628
cpu2_L2C LOAD         ACCESS:    1065909 HIT:          0 MISS:    1065909
cpu2_L2C RFO          ACCESS:    5996499 HIT:    2799125 MISS:    3197374
cpu2_L2C PREFETCH     ACCESS:          0 HIT:          0 MISS:          0
cpu2_L2C WRITE        ACCESS:    5997003 HIT:    5997003 MISS:          0
cpu2_L2C TRANSLATION  ACCESS:      57961 HIT:      57616 MISS:        345
cpu2_L2C PREFETCH REQUESTED:          0 ISSUED:          0 USEFUL:          0 USELESS:          0
cpu2_L2C AVERAGE MISS LATENCY: 2223 cycles
cpu2_L2C TOTAL        ACCESS:          0 HIT:          0 MISS:          0
cpu2_L2C LOAD         ACCESS:          0 HIT:          0 MISS:          0
cpu2_L2C RFO          ACCESS:          0 HIT:          0 MISS:          0
cpu2_L2C PREFETCH     ACCESS:          0 HIT:          0 MISS:          0
cpu2_L2C WRITE        ACCESS:          0 HIT:          0 MISS:          0
cpu2_L2C TRANSLATION  ACCESS:          0 HIT:          0 MISS:          0
cpu2_L2C PREFETCH REQUESTED:          0 ISSUED:          0 USEFUL:          0 USELESS:          0
cpu2_L2C AVERAGE MISS LATENCY: 2223 cycles
cpu2_STLB TOTAL        ACCESS:          0 HIT:          0 MISS:          0
cpu2_STLB LOAD         ACCESS:          0 HIT:          0 MISS:          0
cpu2_STLB RFO          ACCESS:          0 HIT:          0 MISS:          0
cpu2_STLB PREFETCH     ACCESS:          0 HIT:          0 MISS:          0
cpu2_STLB WRITE        ACCESS:          0 HIT:          0 MISS:          0
cpu2_STLB TRANSLATION  ACCESS:          0 HIT:          0 MISS:          0
cpu2_STLB PREFETCH REQUESTED:          0 ISSUED:          0 USEFUL:          0 USELESS:          0
cpu2_STLB AVERAGE MISS LATENCY: 145.5 cycles
cpu2_STLB TOTAL        ACCESS:          0 HIT:          0 MISS:          0
cpu2_STLB LOAD         ACCESS:          0 HIT:          0 MISS:          0
cpu2_STLB RFO          ACCESS:          0 HIT:          0 MISS:          0
cpu2_STLB PREFETCH     ACCESS:          0 HIT:          0 MISS:          0
cpu2_STLB WRITE        ACCESS:          0 HIT:          0 MISS:          0
cpu2_STLB TRANSLATION  ACCESS:          0 HIT:          0 MISS:          0
cpu2_STLB PREFETCH REQUESTED:          0 ISSUED:          0 USEFUL:          0 USELESS:          0
cpu2_STLB AVERAGE MISS LATENCY: 145.5 cycles
cpu2_STLB TOTAL        ACCESS:      66692 HIT:          0 MISS:      66692
cpu2_STLB LOAD         ACCESS:      66692 HIT:          0 MISS:      66692
cpu2_STLB RFO          ACCESS:          0 HIT:          0 MISS:          0
cpu2_STLB PREFETCH     ACCESS:          0 HIT:          0 MISS:          0
cpu2_STLB WRITE        ACCESS:          0 HIT:          0 MISS:          0
cpu2_STLB TRANSLATION  ACCESS:          0 HIT:          0 MISS:          0
cpu2_STLB PREFETCH REQUESTED:          0 ISSUED:          0 USEFUL:          0 USELESS:          0
cpu2_STLB AVERAGE MISS LATENCY: 145.5 cycles
cpu2_STLB TOTAL        ACCESS:          0 HIT:          0 MISS:          0
cpu2_STLB LOAD         ACCESS:          0 HIT:          0 MISS:          0
cpu2_STLB RFO          ACCESS:          0 HIT:          0 MISS:          0
cpu2_STLB PREFETCH     ACCESS:          0 HIT:          0 MISS:          0
cpu2_STLB WRITE        ACCESS:          0 HIT:          0 MISS:          0
cpu2_STLB TRANSLATION  ACCESS:          0 HIT:          0 MISS:          0
cpu2_STLB PREFETCH REQUESTED:          0 ISSUED:          0 USEFUL:          0 USELESS:          0
cpu2_STLB AVERAGE MISS LATENCY: 145.5 cycles
cpu3_DTLB TOTAL        ACCESS:          0 HIT:          0 MISS:          0
cpu3_DTLB LOAD         ACCESS:          0 HIT:          0 MISS:          0
cpu3_DTLB RFO          ACCESS:          0 HIT:          0 MISS:          0
cpu3_DTLB PREFETCH     ACCESS:          0 HIT:          0 MISS:          0
cpu3_DTLB WRITE        ACCESS:          0 HIT:          0 MISS:          0
cpu3_DTLB TRANSLATION  ACCESS:          0 HIT:          0 MISS:          0
cpu3_DTLB PREFETCH REQUESTED:          0 ISSUED:          0 USEFUL:          0 USELESS:          0
cpu3_DTLB AVERAGE MISS LATENCY: 42.09 cycles
cpu3_DTLB TOTAL        ACCESS:          0 HIT:          0 MISS:          0
cpu3_DTLB LOAD         ACCESS:          0 HIT:          0 MISS:          0
cpu3_DTLB RFO          ACCESS:          0 HIT:          0 MISS:          0
cpu3_DTLB PREFETCH     ACCESS:          0 HIT:          0 MISS:          0
cpu3_DTLB WRITE        ACCESS:          0 HIT:          0 MISS:          0
cpu3_DTLB TRANSLATION  ACCESS:          0 HIT:          0 MISS:          0
cpu3_DTLB PREFETCH REQUESTED:          0 ISSUED:          0 USEFUL:          0 USELESS:          0
cpu3_DTLB AVERAGE MISS LATENCY: 42.09 cycles
cpu3_DTLB TOTAL        ACCESS:          0 HIT:          0 MISS:          0
cpu3_DTLB LOAD         ACCESS:          0 HIT:          0 MISS:          0
cpu3_DTLB RFO          ACCESS:          0 HIT:          0 MISS:          0
cpu3_DTLB PREFETCH     ACCESS:          0 HIT:          0 MISS:          0
cpu3_DTLB WRITE        ACCESS:          0 HIT:          0 MISS:          0
cpu3_DTLB TRANSLATION  ACCESS:          0 HIT:          0 MISS:          0
cpu3_DTLB PREFETCH REQUESTED:          0 ISSUED:          0 USEFUL:          0 USELESS:          0
cpu3_DTLB AVERAGE MISS LATENCY: 42.09 cycles
cpu3_DTLB TOTAL        ACCESS:   28653250 HIT:   28459574 MISS:     193676
cpu3_DTLB LOAD         ACCESS:   28653250 HIT:   28459574 MISS:     193676
cpu3_DTLB RFO          ACCESS:          0 HIT:          0 MISS:          0
cpu3_DTLB PREFETCH     ACCESS:          0 HIT:          0 MISS:          0
cpu3_DTLB WRITE        ACCESS:          0 HIT:          0 MISS:          0
cpu3_DTLB TRANSLATION  ACCESS:          0 HIT:          0 MISS:          0
cpu3_DTLB PREFETCH REQUESTED:          0 ISSUED:          0 USEFUL:          0 USELESS:          0
cpu3_DTLB AVERAGE MISS LATENCY: 42.09 cycles
cpu3_ITLB TOTAL        ACCESS:          0 HIT:          0 MISS:          0
cpu3_ITLB LOAD         ACCESS:          0 HIT:          0 MISS:          0
cpu3_ITLB RFO          ACCESS:          0 HIT:          0 MISS:          0
cpu3_ITLB PREFETCH     ACCESS:          0 HIT:          0 MISS:          0
cpu3_ITLB WRITE        ACCESS:          0 HIT:          0 MISS:          0
cpu3_ITLB TRANSLATION  ACCESS:          0 HIT:          0 MISS:          0
cpu3_ITLB PREFETCH REQUESTED:          0 ISSUED:          0 USEFUL:          0 USELESS:          0
cpu3_ITLB AVERAGE MISS LATENCY: 94.1 cycles
cpu3_ITLB TOTAL        ACCESS:          0 HIT:          0 MISS:          0
cpu3_ITLB LOAD         ACCESS:          0 HIT:          0 MISS:          0
cpu3_ITLB RFO          ACCESS:          0 HIT:          0 MISS:          0
cpu3_ITLB PREFETCH     ACCESS:          0 HIT:          0 MISS:          0
cpu3_ITLB WRITE        ACCESS:          0 HIT:          0 MISS:          0
cpu3_ITLB TRANSLATION  ACCESS:          0 HIT:          0 MISS:          0
cpu3_ITLB PREFETCH REQUESTED:          0 ISSUED:          0 USEFUL:          0 USELESS:          0
cpu3_ITLB AVERAGE MISS LATENCY: 94.1 cycles
cpu3_ITLB TOTAL        ACCESS:          0 HIT:          0 MISS:          0
cpu3_ITLB LOAD         ACCESS:          0 HIT:          0 MISS:          0
cpu3_ITLB RFO          ACCESS:          0 HIT:          0 MISS:          0
cpu3_ITLB PREFETCH     ACCESS:          0 HIT:          0 MISS:          0
cpu3_ITLB WRITE        ACCESS:          0 HIT:          0 MISS:          0
cpu3_ITLB TRANSLATION  ACCESS:          0 HIT:          0 MISS:          0
cpu3_ITLB PREFETCH REQUESTED:          0 ISSUED:          0 USEFUL:          0 USELESS:          0
cpu3_ITLB AVERAGE MISS LATENCY: 94.1 cycles
cpu3_ITLB TOTAL        ACCESS:    8510932 HIT:    8510774 MISS:        158
cpu3_ITLB LOAD         ACCESS:    8510932 HIT:    8510774 MISS:        158
cpu3_ITLB RFO          ACCESS:          0 HIT:          0 MISS:          0
cpu3_ITLB PREFETCH     ACCESS:          0 HIT:          0 MISS:          0
cpu3_ITLB WRITE        ACCESS:          0 HIT:          0 MISS:          0
cpu3_ITLB TRANSLATION  ACCESS:          0 HIT:          0 MISS:          0
cpu3_ITLB PREFETCH REQUESTED:          0 ISSUED:          0 USEFUL:          0 USELESS:          0
cpu3_ITLB AVERAGE MISS LATENCY: 94.1 cycles
cpu3_L1D TOTAL        ACCESS:          0 HIT:          0 MISS:          0
cpu3_L1D LOAD         ACCESS:          0 HIT:          0 MISS:          0
cpu3_L1D RFO          ACCESS:          0 HIT:          0 MISS:          0
cpu3_L1D PREFETCH     ACCESS:          0 HIT:          0 MISS:          0
cpu3_L1D WRITE        ACCESS:          0 HIT:          0 MISS:          0
cpu3_L1D TRANSLATION  ACCESS:          0 HIT:          0 MISS:          0
cpu3_L1D PREFETCH REQUESTED:          0 ISSUED:          0 USEFUL:          0 USELESS:          0
cpu3_L1D AVERAGE MISS LATENCY: 374.4 cycles
cpu3_L1D TOTAL        ACCESS:          0 HIT:          0 MISS:          0
cpu3_L1D LOAD         ACCESS:          0 HIT:          0 MISS:          0
cpu3_L1D RFO          ACCESS:          0 HIT:          0 MISS:          0
cpu3_L1D PREFETCH     ACCESS:          0 HIT:          0 MISS:          0
cpu3_L1D WRITE        ACCESS:          0 HIT:          0 MISS:          0
cpu3_L1D TRANSLATION  ACCESS:          0 HIT:          0 MISS:          0
cpu3_L1D PREFETCH REQUESTED:          0 ISSUED:          0 USEFUL:          0 USELESS:          0
cpu3_L1D AVERAGE MISS LATENCY: 374.4 cycles
cpu3_L1D TOTAL        ACCESS:          0 HIT:          0 MISS:          0
cpu3_L1D LOAD         ACCESS:          0 HIT:          0 MISS:          0
cpu3_L1D RFO          ACCESS:          0 HIT:          0 MISS:          0
cpu3_L1D PREFETCH     ACCESS:          0 HIT:          0 MISS:          0
cpu3_L1D WRITE        ACCESS:          0 HIT:          0 MISS:          0
cpu3_L1D TRANSLATION  ACCESS:          0 HIT:          0 MISS:          0
cpu3_L1D PREFETCH REQUESTED:          0 ISSUED:          0 USEFUL:          0 USELESS:          0
cpu3_L1D AVERAGE MISS LATENCY: 374.4 cycles
cpu3_L1D TOTAL        ACCESS:   39190428 HIT:   34826594 MISS:    4363834
cpu3_L1D LOAD         ACCESS:   16703734 HIT:   16610493 MISS:      93241
cpu3_L1D RFO          ACCESS:          0 HIT:          0 MISS:          0
cpu3_L1D PREFETCH     ACCESS:          0 HIT:          0 MISS:          0
cpu3_L1D WRITE        ACCESS:   22467940 HIT:   18204672 MISS:    4263268
cpu3_L1D TRANSLATION  ACCESS:      18754 HIT:      11429 MISS:       7325
cpu3_L1D PREFETCH REQUESTED:          0 ISSUED:          0 USEFUL:          0 USELESS:          0
cpu3_L1D AVERAGE MISS LATENCY: 374.4 cycles
cpu3_L1I TOTAL        ACCESS:          0 HIT:          0 MISS:          0
cpu3_L1I LOAD         ACCESS:          0 HIT:          0 MISS:          0
cpu3_L1I RFO          ACCESS:          0 HIT:          0 MISS:          0
cpu3_L1I PREFETCH     ACCESS:          0 HIT:          0 MISS:          0
cpu3_L1I WRITE        ACCESS:          0 HIT:          0 MISS:          0
cpu3_L1I TRANSLATION  ACCESS:          0 HIT:          0 MISS:          0
cpu3_L1I PREFETCH REQUESTED:          0 ISSUED:          0 USEFUL:          0 USELESS:          0
cpu3_L1I AVERAGE MISS LATENCY: 25.5 cycles
cpu3_L1I TOTAL        ACCESS:          0 HIT:          0 MISS:          0
cpu3_L1I LOAD         ACCESS:          0 HIT:          0 MISS:          0
cpu3_L1I RFO          ACCESS:          0 HIT:          0 MISS:          0
cpu3_L1I PREFETCH     ACCESS:          0 HIT:          0 MISS:          0
cpu3_L1I WRITE        ACCESS:          0 HIT:          0 MISS:          0
cpu3_L1I TRANSLATION  ACCESS:          0 HIT:          0 MISS:          0
cpu3_L1I PREFETCH REQUESTED:          0 ISSUED:          0 USEFUL:          0 USELESS:          0
cpu3_L1I AVERAGE MISS LATENCY: 25.5 cycles
cpu3_L1I TOTAL        ACCESS:          0 HIT:          0 MISS:          0
cpu3_L1I LOAD         ACCESS:          0 HIT:          0 MISS:          0
cpu3_L1I RFO          ACCESS:          0 HIT:          0 MISS:          0
cpu3_L1I PREFETCH     ACCESS:          0 HIT:          0 MISS:          0
cpu3_L1I WRITE        ACCESS:          0 HIT:          0 MISS:          0
cpu3_L1I TRANSLATION  ACCESS:          0 HIT:          0 MISS:          0
cpu3_L1I PREFETCH REQUESTED:          0 ISSUED:          0 USEFUL:          0 USELESS:          0
cpu3_L1I AVERAGE MISS LATENCY: 25.5 cycles
cpu3_L1I TOTAL        ACCESS:   10838187 HIT:   10142280 MISS:     695907
cpu3_L1I LOAD         ACCESS:   10838187 HIT:   10142280 MISS:     695907
cpu3_L1I RFO          ACCESS:          0 HIT:          0 MISS:          0
cpu3_L1I PREFETCH     ACCESS:          0 HIT:          0 MISS:          0
cpu3_L1I WRITE        ACCESS:          0 HIT:          0 MISS:          0
cpu3_L1I TRANSLATION  ACCESS:          0 HIT:          0 MISS:          0
cpu3_L1I PREFETCH REQUESTED:          0 ISSUED:          0 USEFUL:          0 USELESS:          0
cpu3_L1I AVERAGE MISS LATENCY: 25.5 cycles
cpu3_L2C TOTAL        ACCESS:          0 HIT:          0 MISS:          0
cpu3_L2C LOAD         ACCESS:          0 HIT:          0 MISS:          0
cpu3_L2C RFO          ACCESS:          0 HIT:          0 MISS:          0
cpu3_L2C PREFETCH     ACCESS:          0 HIT:          0 MISS:          0
cpu3_L2C WRITE        ACCESS:          0 HIT:          0 MISS:          0
cpu3_L2C TRANSLATION  ACCESS:          0 HIT:          0 MISS:          0
cpu3_L2C PREFETCH REQUESTED:          0 ISSUED:          0 USEFUL:          0 USELESS:          0
cpu3_L2C AVERAGE MISS LATENCY: 2572 cycles
cpu3_L2C TOTAL        ACCESS:          0 HIT:          0 MISS:          0
cpu3_L2C LOAD         ACCESS:          0 HIT:          0 MISS:          0
cpu3_L2C RFO          ACCESS:          0 HIT:          0 MISS:          0
cpu3_L2C PREFETCH     ACCESS:          0 HIT:          0 MISS:          0
cpu3_L2C WRITE        ACCESS:          0 HIT:          0 MISS:          0
cpu3_L2C TRANSLATION  ACCESS:          0 HIT:          0 MISS:          0
cpu3_L2C PREFETCH REQUESTED:          0 ISSUED:          0 USEFUL:          0 USELESS:          0
cpu3_L2C AVERAGE MISS LATENCY: 2572 cycles
cpu3_L2C TOTAL        ACCESS:          0 HIT:          0 MISS:          0
cpu3_L2C LOAD         ACCESS:          0 HIT:          0 MISS:          0
cpu3_L2C RFO          ACCESS:          0 HIT:          0 MISS:          0
cpu3_L2C PREFETCH     ACCESS:          0 HIT:          0 MISS:          0
cpu3_L2C WRITE        ACCESS:          0 HIT:          0 MISS:          0
cpu3_L2C TRANSLATION  ACCESS:          0 HIT:          0 MISS:          0
cpu3_L2C PREFETCH REQUESTED:          0 ISSUED:          0 USEFUL:          0 USELESS:          0
cpu3_L2C AVERAGE MISS LATENCY: 2572 cycles
cpu3_L2C TOTAL        ACCESS:    2456063 HIT:    1662639 MISS:     793424
cpu3_L2C LOAD         ACCESS:     583151 HIT:     539175 MISS:      43976
cpu3_L2C RFO          ACCESS:     911371 HIT:     163924 MISS:     747447
cpu3_L2C PREFETCH     ACCESS:          0 HIT:          0 MISS:          0
cpu3_L2C WRITE        ACCESS:     954222 HIT:     954061 MISS:        161
cpu3_L2C TRANSLATION  ACCESS:       7319 HIT:       5479 MISS:       1840
cpu3_L2C PREFETCH REQUESTED:          0 ISSUED:          0 USEFUL:          0 USELESS:          0
cpu3_L2C AVERAGE MISS LATENCY: 2572 cycles
cpu3_STLB TOTAL        ACCESS:          0 HIT:          0 MISS:          0
cpu3_STLB LOAD         ACCESS:          0 HIT:          0 MISS:          0
cpu3_STLB RFO          ACCESS:          0 HIT:          0 MISS:          0
cpu3_STLB PREFETCH     ACCESS:          0 HIT:          0 MISS:          0
cpu3_STLB WRITE        ACCESS:          0 HIT:          0 MISS:          0
cpu3_STLB TRANSLATION  ACCESS:          0 HIT:          0 MISS:          0
cpu3_STLB PREFETCH REQUESTED:          0 ISSUED:          0 USEFUL:          0 USELESS:          0
cpu3_STLB AVERAGE MISS LATENCY: 770.8 cycles
cpu3_STLB TOTAL        ACCESS:          0 HIT:          0 MISS:          0
cpu3_STLB LOAD         ACCESS:          0 HIT:          0 MISS:          0
cpu3_STLB RFO          ACCESS:          0 HIT:          0 MISS:          0
cpu3_STLB PREFETCH     ACCESS:          0 HIT:          0 MISS:          0
cpu3_STLB WRITE        ACCESS:          0 HIT:          0 MISS:          0
cpu3_STLB TRANSLATION  ACCESS:          0 HIT:          0 MISS:          0
cpu3_STLB PREFETCH REQUESTED:          0 ISSUED:          0 USEFUL:          0 USELESS:          0
cpu3_STLB AVERAGE MISS LATENCY: 770.8 cycles
cpu3_STLB TOTAL        ACCESS:          0 HIT:          0 MISS:          0
cpu3_STLB LOAD         ACCESS:          0 HIT:          0 MISS:          0
cpu3_STLB RFO          ACCESS:          0 HIT:          0 MISS:          0
cpu3_STLB PREFETCH     ACCESS:          0 HIT:          0 MISS:          0
cpu3_STLB WRITE        ACCESS:          0 HIT:          0 MISS:          0
cpu3_STLB TRANSLATION  ACCESS:          0 HIT:          0 MISS:          0
cpu3_STLB PREFETCH REQUESTED:          0 ISSUED:          0 USEFUL:          0 USELESS:          0
cpu3_STLB AVERAGE MISS LATENCY: 770.8 cycles
cpu3_STLB TOTAL        ACCESS:      57577 HIT:      38827 MISS:      18750
cpu3_STLB LOAD         ACCESS:      57577 HIT:      38827 MISS:      18750
cpu3_STLB RFO          ACCESS:          0 HIT:          0 MISS:          0
cpu3_STLB PREFETCH     ACCESS:          0 HIT:          0 MISS:          0
cpu3_STLB WRITE        ACCESS:          0 HIT:          0 MISS:          0
cpu3_STLB TRANSLATION  ACCESS:          0 HIT:          0 MISS:          0
cpu3_STLB PREFETCH REQUESTED:          0 ISSUED:          0 USEFUL:          0 USELESS:          0
cpu3_STLB AVERAGE MISS LATENCY: 770.8 cycles

DRAM Statistics

Channel 0 RQ ROW_BUFFER_HIT:    2476263
  ROW_BUFFER_MISS:   19173391
 AVG DBUS CONGESTED CYCLE: 3.996
WQ ROW_BUFFER_HIT: Channel 0 
  ROW_BUFFER_MISS:     171944
  FULL:   10070215
