WARNING: physical memory size is smaller than virtual memory size.
WARNING: option --warmup_instructions is deprecated. Use --warmup-instructions instead.
WARNING: option --simulation_instructions is deprecated. Use --simulation-instructions instead.

*** ChampSim Multicore Out-of-Order Simulator ***
Warmup Instructions: 50000000
Simulation Instructions: 150000000
Number of CPUs: 4
Page size: 4096

Off-chip DRAM Size: 4 GiB Channels: 1 Width: 64-bit Data Race: 3200 MT/s
Heartbeat CPU 1 instructions: 10000001 cycles: 2605427 heartbeat IPC: 3.838 cumulative IPC: 3.838 (Simulation time: 00 hr 02 min 27 sec)
Heartbeat CPU 3 instructions: 10000000 cycles: 2668560 heartbeat IPC: 3.747 cumulative IPC: 3.747 (Simulation time: 00 hr 02 min 32 sec)
Heartbeat CPU 2 instructions: 10000004 cycles: 2708596 heartbeat IPC: 3.692 cumulative IPC: 3.692 (Simulation time: 00 hr 02 min 34 sec)
Heartbeat CPU 0 instructions: 10000000 cycles: 3133015 heartbeat IPC: 3.192 cumulative IPC: 3.192 (Simulation time: 00 hr 03 min 00 sec)
Heartbeat CPU 1 instructions: 20000001 cycles: 5105427 heartbeat IPC: 4 cumulative IPC: 3.917 (Simulation time: 00 hr 04 min 54 sec)
Heartbeat CPU 3 instructions: 20000001 cycles: 5328032 heartbeat IPC: 3.76 cumulative IPC: 3.754 (Simulation time: 00 hr 05 min 08 sec)
Heartbeat CPU 2 instructions: 20000002 cycles: 5427909 heartbeat IPC: 3.677 cumulative IPC: 3.685 (Simulation time: 00 hr 05 min 14 sec)
Heartbeat CPU 0 instructions: 20000003 cycles: 6237847 heartbeat IPC: 3.221 cumulative IPC: 3.206 (Simulation time: 00 hr 06 min 01 sec)
Heartbeat CPU 1 instructions: 30000003 cycles: 7699726 heartbeat IPC: 3.855 cumulative IPC: 3.896 (Simulation time: 00 hr 07 min 31 sec)
Heartbeat CPU 3 instructions: 30000001 cycles: 8011244 heartbeat IPC: 3.727 cumulative IPC: 3.745 (Simulation time: 00 hr 07 min 49 sec)
Heartbeat CPU 2 instructions: 30000001 cycles: 8137990 heartbeat IPC: 3.69 cumulative IPC: 3.686 (Simulation time: 00 hr 07 min 56 sec)
Heartbeat CPU 0 instructions: 30000002 cycles: 9343474 heartbeat IPC: 3.22 cumulative IPC: 3.211 (Simulation time: 00 hr 09 min 06 sec)
Heartbeat CPU 1 instructions: 40000002 cycles: 10210687 heartbeat IPC: 3.983 cumulative IPC: 3.917 (Simulation time: 00 hr 09 min 55 sec)
Heartbeat CPU 3 instructions: 40000003 cycles: 10717947 heartbeat IPC: 3.695 cumulative IPC: 3.732 (Simulation time: 00 hr 10 min 27 sec)
Heartbeat CPU 2 instructions: 40000001 cycles: 10889780 heartbeat IPC: 3.634 cumulative IPC: 3.673 (Simulation time: 00 hr 10 min 38 sec)
Heartbeat CPU 0 instructions: 40000001 cycles: 12452684 heartbeat IPC: 3.216 cumulative IPC: 3.212 (Simulation time: 00 hr 12 min 12 sec)
Heartbeat CPU 1 instructions: 50000002 cycles: 12710687 heartbeat IPC: 4 cumulative IPC: 3.934 (Simulation time: 00 hr 12 min 29 sec)
Warmup finished CPU 1 instructions: 50000002 cycles: 12710688 cumulative IPC: 3.934 (Simulation time: 00 hr 12 min 29 sec)
Heartbeat CPU 3 instructions: 50000002 cycles: 13422776 heartbeat IPC: 3.697 cumulative IPC: 3.725 (Simulation time: 00 hr 13 min 10 sec)
Warmup finished CPU 3 instructions: 50000002 cycles: 13422777 cumulative IPC: 3.725 (Simulation time: 00 hr 13 min 10 sec)
Heartbeat CPU 2 instructions: 50000004 cycles: 13803083 heartbeat IPC: 3.433 cumulative IPC: 3.622 (Simulation time: 00 hr 13 min 34 sec)
Warmup finished CPU 2 instructions: 50000004 cycles: 13803084 cumulative IPC: 3.622 (Simulation time: 00 hr 13 min 34 sec)
Heartbeat CPU 1 instructions: 60000001 cycles: 15315403 heartbeat IPC: 3.839 cumulative IPC: 3.918 (Simulation time: 00 hr 15 min 16 sec)
Heartbeat CPU 0 instructions: 50000003 cycles: 15522630 heartbeat IPC: 3.257 cumulative IPC: 3.221 (Simulation time: 00 hr 15 min 30 sec)
Warmup finished CPU 0 instructions: 50000003 cycles: 15522631 cumulative IPC: 3.221 (Simulation time: 00 hr 15 min 30 sec)
Warmup complete CPU 0 instructions: 50000003 cycles: 15522631 cumulative IPC: 3.221 (Simulation time: 00 hr 15 min 30 sec)
Warmup complete CPU 1 instructions: 60828909 cycles: 15522631 cumulative IPC: 3.919 (Simulation time: 00 hr 15 min 30 sec)
Warmup complete CPU 2 instructions: 56103016 cycles: 15522631 cumulative IPC: 3.614 (Simulation time: 00 hr 15 min 30 sec)
Warmup complete CPU 3 instructions: 57873631 cycles: 15522631 cumulative IPC: 3.728 (Simulation time: 00 hr 15 min 30 sec)
Heartbeat CPU 3 instructions: 60000003 cycles: 22390969 heartbeat IPC: 1.115 cumulative IPC: 0.3096 (Simulation time: 00 hr 18 min 31 sec)
Heartbeat CPU 2 instructions: 60000002 cycles: 34283130 heartbeat IPC: 0.4883 cumulative IPC: 0.2077 (Simulation time: 00 hr 23 min 53 sec)
Heartbeat CPU 3 instructions: 70000001 cycles: 44747951 heartbeat IPC: 0.4473 cumulative IPC: 0.4149 (Simulation time: 00 hr 28 min 33 sec)
Heartbeat CPU 0 instructions: 60000002 cycles: 44920684 heartbeat IPC: 0.3402 cumulative IPC: 0.3402 (Simulation time: 00 hr 28 min 38 sec)
Heartbeat CPU 1 instructions: 70000001 cycles: 45646062 heartbeat IPC: 0.3297 cumulative IPC: 0.3045 (Simulation time: 00 hr 28 min 57 sec)
Heartbeat CPU 0 instructions: 70000000 cycles: 63722621 heartbeat IPC: 0.5319 cumulative IPC: 0.4149 (Simulation time: 00 hr 37 min 01 sec)
Heartbeat CPU 3 instructions: 80000000 cycles: 63868332 heartbeat IPC: 0.523 cumulative IPC: 0.4577 (Simulation time: 00 hr 37 min 05 sec)
Heartbeat CPU 1 instructions: 80000003 cycles: 83071395 heartbeat IPC: 0.2672 cumulative IPC: 0.2838 (Simulation time: 00 hr 45 min 18 sec)
Heartbeat CPU 0 instructions: 80000004 cycles: 83597059 heartbeat IPC: 0.5032 cumulative IPC: 0.4407 (Simulation time: 00 hr 45 min 32 sec)
Heartbeat CPU 3 instructions: 90000002 cycles: 91666244 heartbeat IPC: 0.3597 cumulative IPC: 0.4219 (Simulation time: 00 hr 49 min 10 sec)
Heartbeat CPU 0 instructions: 90000001 cycles: 99122088 heartbeat IPC: 0.6441 cumulative IPC: 0.4785 (Simulation time: 00 hr 52 min 26 sec)
Heartbeat CPU 1 instructions: 90000002 cycles: 114357316 heartbeat IPC: 0.3196 cumulative IPC: 0.2952 (Simulation time: 00 hr 59 min 00 sec)
Heartbeat CPU 0 instructions: 100000001 cycles: 116586448 heartbeat IPC: 0.5726 cumulative IPC: 0.4947 (Simulation time: 01 hr 00 min 03 sec)
Heartbeat CPU 3 instructions: 100000000 cycles: 117195755 heartbeat IPC: 0.3917 cumulative IPC: 0.4143 (Simulation time: 01 hr 00 min 20 sec)
Heartbeat CPU 3 instructions: 110000000 cycles: 131893420 heartbeat IPC: 0.6804 cumulative IPC: 0.4479 (Simulation time: 01 hr 07 min 07 sec)
Heartbeat CPU 0 instructions: 110000001 cycles: 132617884 heartbeat IPC: 0.6238 cumulative IPC: 0.5124 (Simulation time: 01 hr 07 min 27 sec)
Heartbeat CPU 1 instructions: 100000000 cycles: 138234232 heartbeat IPC: 0.4188 cumulative IPC: 0.3192 (Simulation time: 01 hr 10 min 09 sec)
Heartbeat CPU 2 instructions: 70000001 cycles: 160768486 heartbeat IPC: 0.07906 cumulative IPC: 0.09568 (Simulation time: 01 hr 19 min 04 sec)
Heartbeat CPU 0 instructions: 120000003 cycles: 162793542 heartbeat IPC: 0.3314 cumulative IPC: 0.4753 (Simulation time: 01 hr 19 min 52 sec)
Heartbeat CPU 3 instructions: 120000000 cycles: 170630323 heartbeat IPC: 0.2582 cumulative IPC: 0.4005 (Simulation time: 01 hr 23 min 14 sec)
Heartbeat CPU 1 instructions: 110000003 cycles: 181812058 heartbeat IPC: 0.2295 cumulative IPC: 0.2957 (Simulation time: 01 hr 27 min 59 sec)
Heartbeat CPU 0 instructions: 130000003 cycles: 186695004 heartbeat IPC: 0.4184 cumulative IPC: 0.4674 (Simulation time: 01 hr 30 min 07 sec)
Heartbeat CPU 3 instructions: 130000002 cycles: 192795158 heartbeat IPC: 0.4512 cumulative IPC: 0.4069 (Simulation time: 01 hr 32 min 47 sec)
Heartbeat CPU 0 instructions: 140000002 cycles: 211309940 heartbeat IPC: 0.4063 cumulative IPC: 0.4597 (Simulation time: 01 hr 40 min 38 sec)
Heartbeat CPU 1 instructions: 120000001 cycles: 211962562 heartbeat IPC: 0.3317 cumulative IPC: 0.3012 (Simulation time: 01 hr 40 min 54 sec)
Heartbeat CPU 2 instructions: 80000002 cycles: 216434342 heartbeat IPC: 0.1796 cumulative IPC: 0.1189 (Simulation time: 01 hr 42 min 53 sec)
Heartbeat CPU 3 instructions: 140000001 cycles: 217078370 heartbeat IPC: 0.4118 cumulative IPC: 0.4075 (Simulation time: 01 hr 43 min 10 sec)
Heartbeat CPU 0 instructions: 150000000 cycles: 245325793 heartbeat IPC: 0.294 cumulative IPC: 0.4352 (Simulation time: 01 hr 55 min 21 sec)
Heartbeat CPU 3 instructions: 150000003 cycles: 252253312 heartbeat IPC: 0.2843 cumulative IPC: 0.3892 (Simulation time: 01 hr 58 min 02 sec)
Heartbeat CPU 1 instructions: 130000002 cycles: 253699529 heartbeat IPC: 0.2396 cumulative IPC: 0.2904 (Simulation time: 01 hr 58 min 39 sec)
Heartbeat CPU 2 instructions: 90000001 cycles: 271673179 heartbeat IPC: 0.181 cumulative IPC: 0.1323 (Simulation time: 02 hr 06 min 00 sec)
Heartbeat CPU 0 instructions: 160000004 cycles: 277662485 heartbeat IPC: 0.3092 cumulative IPC: 0.4196 (Simulation time: 02 hr 08 min 33 sec)
Heartbeat CPU 1 instructions: 140000002 cycles: 290894035 heartbeat IPC: 0.2689 cumulative IPC: 0.2875 (Simulation time: 02 hr 14 min 08 sec)
Heartbeat CPU 3 instructions: 160000003 cycles: 292790085 heartbeat IPC: 0.2467 cumulative IPC: 0.3683 (Simulation time: 02 hr 14 min 53 sec)
Heartbeat CPU 0 instructions: 170000003 cycles: 310471386 heartbeat IPC: 0.3048 cumulative IPC: 0.4069 (Simulation time: 02 hr 22 min 18 sec)
Heartbeat CPU 3 instructions: 170000000 cycles: 319292378 heartbeat IPC: 0.3773 cumulative IPC: 0.3691 (Simulation time: 02 hr 25 min 54 sec)
Heartbeat CPU 2 instructions: 100000003 cycles: 321028402 heartbeat IPC: 0.2026 cumulative IPC: 0.1437 (Simulation time: 02 hr 26 min 36 sec)
Heartbeat CPU 1 instructions: 150000002 cycles: 322137608 heartbeat IPC: 0.3201 cumulative IPC: 0.2908 (Simulation time: 02 hr 27 min 02 sec)
Heartbeat CPU 0 instructions: 180000003 cycles: 342087665 heartbeat IPC: 0.3163 cumulative IPC: 0.3981 (Simulation time: 02 hr 35 min 13 sec)
Heartbeat CPU 3 instructions: 180000003 cycles: 350048843 heartbeat IPC: 0.3251 cumulative IPC: 0.3651 (Simulation time: 02 hr 38 min 31 sec)
Heartbeat CPU 1 instructions: 160000001 cycles: 359715984 heartbeat IPC: 0.2661 cumulative IPC: 0.2881 (Simulation time: 02 hr 42 min 24 sec)
Heartbeat CPU 0 instructions: 190000000 cycles: 366715116 heartbeat IPC: 0.4061 cumulative IPC: 0.3986 (Simulation time: 02 hr 45 min 13 sec)
Heartbeat CPU 3 instructions: 190000000 cycles: 373975853 heartbeat IPC: 0.4179 cumulative IPC: 0.3686 (Simulation time: 02 hr 48 min 24 sec)
Heartbeat CPU 1 instructions: 170000002 cycles: 387975263 heartbeat IPC: 0.3539 cumulative IPC: 0.2931 (Simulation time: 02 hr 54 min 05 sec)
Heartbeat CPU 0 instructions: 200000000 cycles: 389743935 heartbeat IPC: 0.4342 cumulative IPC: 0.4008 (Simulation time: 02 hr 54 min 50 sec)
Simulation finished CPU 0 instructions: 150000002 cycles: 374221306 cumulative IPC: 0.4008 (Simulation time: 02 hr 54 min 50 sec)
Heartbeat CPU 3 instructions: 200000000 cycles: 394806469 heartbeat IPC: 0.4801 cumulative IPC: 0.3747 (Simulation time: 02 hr 56 min 58 sec)
Heartbeat CPU 0 instructions: 210000002 cycles: 422446132 heartbeat IPC: 0.3058 cumulative IPC: 0.3932 (Simulation time: 03 hr 08 min 16 sec)
Heartbeat CPU 1 instructions: 180000002 cycles: 428193847 heartbeat IPC: 0.2486 cumulative IPC: 0.2888 (Simulation time: 03 hr 10 min 45 sec)
Simulation finished CPU 3 instructions: 150000003 cycles: 413266160 cumulative IPC: 0.363 (Simulation time: 03 hr 10 min 59 sec)
Heartbeat CPU 3 instructions: 210000001 cycles: 436212209 heartbeat IPC: 0.2415 cumulative IPC: 0.3616 (Simulation time: 03 hr 13 min 55 sec)
Heartbeat CPU 0 instructions: 220000004 cycles: 453062976 heartbeat IPC: 0.3266 cumulative IPC: 0.3885 (Simulation time: 03 hr 20 min 43 sec)
Heartbeat CPU 2 instructions: 110000000 cycles: 464164783 heartbeat IPC: 0.06986 cumulative IPC: 0.1201 (Simulation time: 03 hr 25 min 04 sec)
Heartbeat CPU 1 instructions: 190000000 cycles: 467095094 heartbeat IPC: 0.2571 cumulative IPC: 0.286 (Simulation time: 03 hr 26 min 22 sec)
Heartbeat CPU 3 instructions: 220000001 cycles: 472277122 heartbeat IPC: 0.2773 cumulative IPC: 0.355 (Simulation time: 03 hr 28 min 27 sec)
Heartbeat CPU 0 instructions: 230000002 cycles: 487872345 heartbeat IPC: 0.2873 cumulative IPC: 0.3811 (Simulation time: 03 hr 35 min 05 sec)
Heartbeat CPU 1 instructions: 200000001 cycles: 504294429 heartbeat IPC: 0.2688 cumulative IPC: 0.2847 (Simulation time: 03 hr 41 min 47 sec)
Heartbeat CPU 3 instructions: 230000001 cycles: 505605804 heartbeat IPC: 0.3 cumulative IPC: 0.3512 (Simulation time: 03 hr 42 min 18 sec)
Heartbeat CPU 0 instructions: 240000003 cycles: 519894480 heartbeat IPC: 0.3123 cumulative IPC: 0.3767 (Simulation time: 03 hr 47 min 55 sec)
Heartbeat CPU 3 instructions: 240000003 cycles: 542455907 heartbeat IPC: 0.2714 cumulative IPC: 0.3456 (Simulation time: 03 hr 56 min 57 sec)
Heartbeat CPU 1 instructions: 210000003 cycles: 546083223 heartbeat IPC: 0.2393 cumulative IPC: 0.2812 (Simulation time: 03 hr 58 min 19 sec)
Simulation finished CPU 1 instructions: 150000000 cycles: 533705631 cumulative IPC: 0.2811 (Simulation time: 03 hr 59 min 30 sec)
Heartbeat CPU 0 instructions: 250000001 cycles: 555403769 heartbeat IPC: 0.2816 cumulative IPC: 0.3705 (Simulation time: 04 hr 01 min 57 sec)
Heartbeat CPU 2 instructions: 120000000 cycles: 567653509 heartbeat IPC: 0.09663 cumulative IPC: 0.1157 (Simulation time: 04 hr 07 min 01 sec)
Heartbeat CPU 1 instructions: 220000002 cycles: 583414372 heartbeat IPC: 0.2679 cumulative IPC: 0.2803 (Simulation time: 04 hr 13 min 25 sec)
Heartbeat CPU 3 instructions: 250000001 cycles: 584027098 heartbeat IPC: 0.2406 cumulative IPC: 0.338 (Simulation time: 04 hr 13 min 39 sec)
Heartbeat CPU 0 instructions: 260000002 cycles: 589210936 heartbeat IPC: 0.2958 cumulative IPC: 0.3661 (Simulation time: 04 hr 15 min 41 sec)
Heartbeat CPU 0 instructions: 270000004 cycles: 632699808 heartbeat IPC: 0.2299 cumulative IPC: 0.3565 (Simulation time: 04 hr 33 min 28 sec)
Heartbeat CPU 3 instructions: 260000000 cycles: 634414806 heartbeat IPC: 0.1985 cumulative IPC: 0.3266 (Simulation time: 04 hr 34 min 11 sec)
Heartbeat CPU 1 instructions: 230000000 cycles: 637048752 heartbeat IPC: 0.1864 cumulative IPC: 0.2722 (Simulation time: 04 hr 35 min 17 sec)
Heartbeat CPU 2 instructions: 130000001 cycles: 665401854 heartbeat IPC: 0.1023 cumulative IPC: 0.1137 (Simulation time: 04 hr 46 min 53 sec)
Heartbeat CPU 0 instructions: 280000003 cycles: 675040833 heartbeat IPC: 0.2362 cumulative IPC: 0.3487 (Simulation time: 04 hr 50 min 56 sec)
Heartbeat CPU 3 instructions: 270000000 cycles: 675380473 heartbeat IPC: 0.2441 cumulative IPC: 0.3215 (Simulation time: 04 hr 51 min 04 sec)
Heartbeat CPU 1 instructions: 240000004 cycles: 678289954 heartbeat IPC: 0.2425 cumulative IPC: 0.2703 (Simulation time: 04 hr 52 min 27 sec)
Heartbeat CPU 0 instructions: 290000000 cycles: 712483588 heartbeat IPC: 0.2671 cumulative IPC: 0.3444 (Simulation time: 05 hr 06 min 34 sec)
Heartbeat CPU 3 instructions: 280000004 cycles: 714466805 heartbeat IPC: 0.2558 cumulative IPC: 0.3178 (Simulation time: 05 hr 07 min 20 sec)
Heartbeat CPU 1 instructions: 250000003 cycles: 716423151 heartbeat IPC: 0.2622 cumulative IPC: 0.2699 (Simulation time: 05 hr 08 min 04 sec)
Heartbeat CPU 0 instructions: 300000004 cycles: 747038481 heartbeat IPC: 0.2894 cumulative IPC: 0.3418 (Simulation time: 05 hr 19 min 49 sec)
Heartbeat CPU 3 instructions: 290000002 cycles: 755660105 heartbeat IPC: 0.2428 cumulative IPC: 0.3136 (Simulation time: 05 hr 23 min 08 sec)
Heartbeat CPU 1 instructions: 260000004 cycles: 763286397 heartbeat IPC: 0.2134 cumulative IPC: 0.2664 (Simulation time: 05 hr 26 min 12 sec)
Heartbeat CPU 0 instructions: 310000001 cycles: 777128252 heartbeat IPC: 0.3323 cumulative IPC: 0.3414 (Simulation time: 05 hr 31 min 40 sec)
Heartbeat CPU 0 instructions: 320000002 cycles: 792535741 heartbeat IPC: 0.649 cumulative IPC: 0.3475 (Simulation time: 05 hr 38 min 06 sec)
Heartbeat CPU 3 instructions: 300000001 cycles: 795096691 heartbeat IPC: 0.2536 cumulative IPC: 0.3106 (Simulation time: 05 hr 39 min 21 sec)
Heartbeat CPU 1 instructions: 270000003 cycles: 802669537 heartbeat IPC: 0.2539 cumulative IPC: 0.2657 (Simulation time: 05 hr 42 min 28 sec)
Heartbeat CPU 2 instructions: 140000001 cycles: 811395950 heartbeat IPC: 0.0685 cumulative IPC: 0.1054 (Simulation time: 05 hr 46 min 03 sec)
Heartbeat CPU 0 instructions: 330000002 cycles: 811742306 heartbeat IPC: 0.5207 cumulative IPC: 0.3517 (Simulation time: 05 hr 46 min 13 sec)
Heartbeat CPU 3 instructions: 310000004 cycles: 830413208 heartbeat IPC: 0.2832 cumulative IPC: 0.3094 (Simulation time: 05 hr 53 min 58 sec)
Heartbeat CPU 0 instructions: 340000001 cycles: 838876464 heartbeat IPC: 0.3685 cumulative IPC: 0.3522 (Simulation time: 05 hr 57 min 16 sec)
Heartbeat CPU 1 instructions: 280000002 cycles: 843812707 heartbeat IPC: 0.2431 cumulative IPC: 0.2646 (Simulation time: 05 hr 59 min 24 sec)
Heartbeat CPU 3 instructions: 320000001 cycles: 851228479 heartbeat IPC: 0.4804 cumulative IPC: 0.3137 (Simulation time: 06 hr 02 min 42 sec)
Heartbeat CPU 0 instructions: 350000001 cycles: 857148483 heartbeat IPC: 0.5473 cumulative IPC: 0.3565 (Simulation time: 06 hr 05 min 19 sec)
Heartbeat CPU 3 instructions: 330000003 cycles: 863165244 heartbeat IPC: 0.8377 cumulative IPC: 0.321 (Simulation time: 06 hr 08 min 05 sec)
Heartbeat CPU 1 instructions: 290000000 cycles: 868426246 heartbeat IPC: 0.4063 cumulative IPC: 0.2687 (Simulation time: 06 hr 10 min 29 sec)
Heartbeat CPU 0 instructions: 360000003 cycles: 873263401 heartbeat IPC: 0.6205 cumulative IPC: 0.3614 (Simulation time: 06 hr 12 min 40 sec)
Heartbeat CPU 3 instructions: 340000003 cycles: 877307937 heartbeat IPC: 0.7071 cumulative IPC: 0.3274 (Simulation time: 06 hr 14 min 31 sec)
Heartbeat CPU 3 instructions: 350000001 cycles: 884784560 heartbeat IPC: 1.338 cumulative IPC: 0.3361 (Simulation time: 06 hr 18 min 18 sec)
Heartbeat CPU 0 instructions: 370000000 cycles: 888079663 heartbeat IPC: 0.6749 cumulative IPC: 0.3667 (Simulation time: 06 hr 19 min 48 sec)
Heartbeat CPU 1 instructions: 300000000 cycles: 888303503 heartbeat IPC: 0.5031 cumulative IPC: 0.274 (Simulation time: 06 hr 19 min 53 sec)
Heartbeat CPU 3 instructions: 360000002 cycles: 911691005 heartbeat IPC: 0.3717 cumulative IPC: 0.3371 (Simulation time: 06 hr 29 min 27 sec)
Heartbeat CPU 0 instructions: 380000001 cycles: 913417143 heartbeat IPC: 0.3947 cumulative IPC: 0.3675 (Simulation time: 06 hr 30 min 08 sec)
Heartbeat CPU 1 instructions: 310000002 cycles: 926145292 heartbeat IPC: 0.2643 cumulative IPC: 0.2736 (Simulation time: 06 hr 35 min 30 sec)
Heartbeat CPU 0 instructions: 390000004 cycles: 935563895 heartbeat IPC: 0.4515 cumulative IPC: 0.3695 (Simulation time: 06 hr 39 min 33 sec)
Heartbeat CPU 3 instructions: 370000002 cycles: 937111538 heartbeat IPC: 0.3934 cumulative IPC: 0.3387 (Simulation time: 06 hr 40 min 13 sec)
Heartbeat CPU 1 instructions: 320000001 cycles: 956407097 heartbeat IPC: 0.3304 cumulative IPC: 0.2755 (Simulation time: 06 hr 48 min 14 sec)
Heartbeat CPU 0 instructions: 400000003 cycles: 958774496 heartbeat IPC: 0.4308 cumulative IPC: 0.3711 (Simulation time: 06 hr 49 min 15 sec)
Heartbeat CPU 3 instructions: 380000003 cycles: 968782846 heartbeat IPC: 0.3157 cumulative IPC: 0.3379 (Simulation time: 06 hr 53 min 35 sec)
Heartbeat CPU 0 instructions: 410000004 cycles: 982549835 heartbeat IPC: 0.4206 cumulative IPC: 0.3723 (Simulation time: 06 hr 59 min 21 sec)
Heartbeat CPU 1 instructions: 330000000 cycles: 991847921 heartbeat IPC: 0.2822 cumulative IPC: 0.2757 (Simulation time: 07 hr 03 min 11 sec)
Heartbeat CPU 2 instructions: 150000002 cycles: 992385219 heartbeat IPC: 0.05525 cumulative IPC: 0.09612 (Simulation time: 07 hr 03 min 27 sec)
Heartbeat CPU 3 instructions: 390000004 cycles: 1005285432 heartbeat IPC: 0.274 cumulative IPC: 0.3356 (Simulation time: 07 hr 09 min 06 sec)
Heartbeat CPU 0 instructions: 420000002 cycles: 1007024627 heartbeat IPC: 0.4086 cumulative IPC: 0.3732 (Simulation time: 07 hr 09 min 50 sec)
Heartbeat CPU 1 instructions: 340000000 cycles: 1025211325 heartbeat IPC: 0.2997 cumulative IPC: 0.2765 (Simulation time: 07 hr 18 min 03 sec)
Heartbeat CPU 0 instructions: 430000003 cycles: 1030610392 heartbeat IPC: 0.424 cumulative IPC: 0.3744 (Simulation time: 07 hr 20 min 23 sec)
Heartbeat CPU 3 instructions: 400000001 cycles: 1036106548 heartbeat IPC: 0.3245 cumulative IPC: 0.3352 (Simulation time: 07 hr 22 min 59 sec)
Heartbeat CPU 2 instructions: 160000001 cycles: 1048975898 heartbeat IPC: 0.1767 cumulative IPC: 0.1005 (Simulation time: 07 hr 28 min 24 sec)
Heartbeat CPU 0 instructions: 440000000 cycles: 1052688835 heartbeat IPC: 0.4529 cumulative IPC: 0.376 (Simulation time: 07 hr 30 min 07 sec)
Heartbeat CPU 1 instructions: 350000002 cycles: 1056010630 heartbeat IPC: 0.3247 cumulative IPC: 0.2779 (Simulation time: 07 hr 31 min 36 sec)
Heartbeat CPU 0 instructions: 450000004 cycles: 1074000870 heartbeat IPC: 0.4692 cumulative IPC: 0.3779 (Simulation time: 07 hr 39 min 23 sec)
Heartbeat CPU 3 instructions: 410000001 cycles: 1074553571 heartbeat IPC: 0.2601 cumulative IPC: 0.3325 (Simulation time: 07 hr 39 min 35 sec)
Heartbeat CPU 2 instructions: 170000000 cycles: 1081866267 heartbeat IPC: 0.304 cumulative IPC: 0.1068 (Simulation time: 07 hr 42 min 38 sec)
Heartbeat CPU 0 instructions: 460000001 cycles: 1092556439 heartbeat IPC: 0.5389 cumulative IPC: 0.3807 (Simulation time: 07 hr 47 min 19 sec)
Heartbeat CPU 1 instructions: 360000003 cycles: 1097133260 heartbeat IPC: 0.2432 cumulative IPC: 0.2766 (Simulation time: 07 hr 49 min 16 sec)
Heartbeat CPU 3 instructions: 420000001 cycles: 1104661525 heartbeat IPC: 0.3321 cumulative IPC: 0.3325 (Simulation time: 07 hr 52 min 34 sec)
Heartbeat CPU 0 instructions: 470000004 cycles: 1108443782 heartbeat IPC: 0.6294 cumulative IPC: 0.3843 (Simulation time: 07 hr 54 min 16 sec)
Heartbeat CPU 1 instructions: 370000002 cycles: 1129901705 heartbeat IPC: 0.3052 cumulative IPC: 0.2774 (Simulation time: 08 hr 03 min 09 sec)
Heartbeat CPU 3 instructions: 430000002 cycles: 1131216544 heartbeat IPC: 0.3766 cumulative IPC: 0.3335 (Simulation time: 08 hr 03 min 38 sec)
Heartbeat CPU 0 instructions: 480000003 cycles: 1137130148 heartbeat IPC: 0.3486 cumulative IPC: 0.3834 (Simulation time: 08 hr 06 min 11 sec)
Heartbeat CPU 3 instructions: 440000000 cycles: 1145016985 heartbeat IPC: 0.7246 cumulative IPC: 0.3383 (Simulation time: 08 hr 09 min 51 sec)
Heartbeat CPU 0 instructions: 490000002 cycles: 1156962483 heartbeat IPC: 0.5042 cumulative IPC: 0.3855 (Simulation time: 08 hr 15 min 10 sec)
Heartbeat CPU 1 instructions: 380000001 cycles: 1162425552 heartbeat IPC: 0.3075 cumulative IPC: 0.2783 (Simulation time: 08 hr 17 min 23 sec)
Heartbeat CPU 3 instructions: 450000003 cycles: 1162492081 heartbeat IPC: 0.5722 cumulative IPC: 0.3419 (Simulation time: 08 hr 17 min 25 sec)
Heartbeat CPU 0 instructions: 500000002 cycles: 1178187417 heartbeat IPC: 0.4711 cumulative IPC: 0.387 (Simulation time: 08 hr 23 min 54 sec)
Heartbeat CPU 3 instructions: 460000003 cycles: 1181824933 heartbeat IPC: 0.5173 cumulative IPC: 0.3448 (Simulation time: 08 hr 25 min 28 sec)
Heartbeat CPU 1 instructions: 390000004 cycles: 1205763553 heartbeat IPC: 0.2307 cumulative IPC: 0.2766 (Simulation time: 08 hr 34 min 30 sec)
Heartbeat CPU 0 instructions: 510000003 cycles: 1210862447 heartbeat IPC: 0.306 cumulative IPC: 0.3848 (Simulation time: 08 hr 36 min 32 sec)
Heartbeat CPU 3 instructions: 470000003 cycles: 1230765277 heartbeat IPC: 0.2043 cumulative IPC: 0.3391 (Simulation time: 08 hr 44 min 25 sec)
Heartbeat CPU 1 instructions: 400000003 cycles: 1241683581 heartbeat IPC: 0.2784 cumulative IPC: 0.2766 (Simulation time: 08 hr 48 min 46 sec)
Heartbeat CPU 0 instructions: 520000003 cycles: 1244783707 heartbeat IPC: 0.2948 cumulative IPC: 0.3823 (Simulation time: 08 hr 50 min 03 sec)
Heartbeat CPU 3 instructions: 480000003 cycles: 1267882702 heartbeat IPC: 0.2694 cumulative IPC: 0.3371 (Simulation time: 08 hr 59 min 25 sec)
Heartbeat CPU 0 instructions: 530000002 cycles: 1275103227 heartbeat IPC: 0.3298 cumulative IPC: 0.3811 (Simulation time: 09 hr 02 min 28 sec)
Heartbeat CPU 1 instructions: 410000000 cycles: 1286057156 heartbeat IPC: 0.2254 cumulative IPC: 0.2748 (Simulation time: 09 hr 07 min 04 sec)
Heartbeat CPU 0 instructions: 540000001 cycles: 1300264757 heartbeat IPC: 0.3974 cumulative IPC: 0.3814 (Simulation time: 09 hr 13 min 06 sec)
Heartbeat CPU 3 instructions: 490000000 cycles: 1303357109 heartbeat IPC: 0.2819 cumulative IPC: 0.3355 (Simulation time: 09 hr 14 min 27 sec)
Heartbeat CPU 1 instructions: 420000004 cycles: 1315479152 heartbeat IPC: 0.3399 cumulative IPC: 0.2763 (Simulation time: 09 hr 19 min 44 sec)
Heartbeat CPU 0 instructions: 550000003 cycles: 1320566730 heartbeat IPC: 0.4926 cumulative IPC: 0.3831 (Simulation time: 09 hr 21 min 59 sec)
Heartbeat CPU 2 instructions: 180000000 cycles: 1324486406 heartbeat IPC: 0.04122 cumulative IPC: 0.09465 (Simulation time: 09 hr 23 min 45 sec)
Heartbeat CPU 3 instructions: 500000004 cycles: 1325268038 heartbeat IPC: 0.4564 cumulative IPC: 0.3376 (Simulation time: 09 hr 24 min 10 sec)
Heartbeat CPU 0 instructions: 560000001 cycles: 1342023853 heartbeat IPC: 0.466 cumulative IPC: 0.3845 (Simulation time: 09 hr 31 min 22 sec)
Heartbeat CPU 1 instructions: 430000002 cycles: 1345178153 heartbeat IPC: 0.3367 cumulative IPC: 0.2776 (Simulation time: 09 hr 32 min 39 sec)
Heartbeat CPU 2 instructions: 190000001 cycles: 1355519485 heartbeat IPC: 0.3222 cumulative IPC: 0.09992 (Simulation time: 09 hr 37 min 01 sec)
Heartbeat CPU 3 instructions: 510000001 cycles: 1361433939 heartbeat IPC: 0.2765 cumulative IPC: 0.3359 (Simulation time: 09 hr 39 min 29 sec)
Heartbeat CPU 0 instructions: 570000002 cycles: 1369794884 heartbeat IPC: 0.3601 cumulative IPC: 0.384 (Simulation time: 09 hr 43 min 13 sec)
Heartbeat CPU 1 instructions: 440000000 cycles: 1381889468 heartbeat IPC: 0.2724 cumulative IPC: 0.2775 (Simulation time: 09 hr 48 min 40 sec)
Heartbeat CPU 3 instructions: 520000001 cycles: 1382325183 heartbeat IPC: 0.4787 cumulative IPC: 0.3381 (Simulation time: 09 hr 48 min 54 sec)
Heartbeat CPU 0 instructions: 580000004 cycles: 1388576078 heartbeat IPC: 0.5324 cumulative IPC: 0.386 (Simulation time: 09 hr 51 min 54 sec)
Heartbeat CPU 3 instructions: 530000003 cycles: 1397759267 heartbeat IPC: 0.6479 cumulative IPC: 0.3416 (Simulation time: 09 hr 56 min 07 sec)
Heartbeat CPU 1 instructions: 450000004 cycles: 1405553636 heartbeat IPC: 0.4226 cumulative IPC: 0.28 (Simulation time: 09 hr 59 min 25 sec)
Heartbeat CPU 2 instructions: 200000004 cycles: 1405684762 heartbeat IPC: 0.1993 cumulative IPC: 0.1035 (Simulation time: 09 hr 59 min 28 sec)
Heartbeat CPU 0 instructions: 590000003 cycles: 1408199714 heartbeat IPC: 0.5096 cumulative IPC: 0.3877 (Simulation time: 10 hr 00 min 32 sec)
Heartbeat CPU 3 instructions: 540000003 cycles: 1425724051 heartbeat IPC: 0.3576 cumulative IPC: 0.3419 (Simulation time: 10 hr 07 min 42 sec)
Heartbeat CPU 0 instructions: 600000002 cycles: 1437862414 heartbeat IPC: 0.3371 cumulative IPC: 0.3867 (Simulation time: 10 hr 12 min 29 sec)
Heartbeat CPU 1 instructions: 460000003 cycles: 1445624006 heartbeat IPC: 0.2496 cumulative IPC: 0.2791 (Simulation time: 10 hr 15 min 33 sec)
Heartbeat CPU 3 instructions: 550000000 cycles: 1463378805 heartbeat IPC: 0.2656 cumulative IPC: 0.3399 (Simulation time: 10 hr 22 min 32 sec)
Heartbeat CPU 0 instructions: 610000002 cycles: 1465980060 heartbeat IPC: 0.3556 cumulative IPC: 0.3861 (Simulation time: 10 hr 23 min 33 sec)
Heartbeat CPU 1 instructions: 470000003 cycles: 1485447607 heartbeat IPC: 0.2511 cumulative IPC: 0.2784 (Simulation time: 10 hr 31 min 46 sec)
Heartbeat CPU 0 instructions: 620000003 cycles: 1497806231 heartbeat IPC: 0.3142 cumulative IPC: 0.3845 (Simulation time: 10 hr 36 min 56 sec)
Heartbeat CPU 3 instructions: 560000000 cycles: 1502313209 heartbeat IPC: 0.2568 cumulative IPC: 0.3377 (Simulation time: 10 hr 38 min 49 sec)
Simulation finished CPU 2 instructions: 150000002 cycles: 1505866157 cumulative IPC: 0.09961 (Simulation time: 10 hr 46 min 57 sec)
Simulation complete CPU 0 instructions: 576641168 cycles: 1505866157 cumulative IPC: 0.3829 (Simulation time: 10 hr 46 min 57 sec)
Simulation complete CPU 1 instructions: 418593120 cycles: 1505866157 cumulative IPC: 0.278 (Simulation time: 10 hr 46 min 57 sec)
Simulation complete CPU 2 instructions: 150000002 cycles: 1505866157 cumulative IPC: 0.09961 (Simulation time: 10 hr 46 min 57 sec)
Simulation complete CPU 3 instructions: 506185127 cycles: 1505866157 cumulative IPC: 0.3361 (Simulation time: 10 hr 46 min 57 sec)

ChampSim completed all CPUs

=== Simulation ===
CPU 0 runs /home/das/traces4_champsim/481.wrf-455B.champsimtrace.xzCPU 1 runs /home/das/traces4_champsim/654.roms_s-1070B.champsimtrace.xzCPU 2 runs /home/das/traces4_champsim/605.mcf_s-994B.champsimtrace.xzCPU 3 runs /home/das/traces4_champsim/623.xalancbmk_s-10B.champsimtrace.xz
Total Simulation Statistics (not including warmup)

CPU 0 cumulative IPC: 0.3829 instructions: 576641168 cycles: 1505866157
CPU 0 Branch Prediction Accuracy: 99.9% MPKI: 0.04288 Average ROB Occupancy at Mispredict: 333.6
Branch type MPKI
BRANCH_DIRECT_JUMP: 0.000284
BRANCH_INDIRECT: 0
BRANCH_CONDITIONAL: 0.0424
BRANCH_DIRECT_CALL: 9.71e-05
BRANCH_INDIRECT_CALL: 0
BRANCH_RETURN: 9.88e-05


CPU 1 cumulative IPC: 0.278 instructions: 418593120 cycles: 1505866157
CPU 1 Branch Prediction Accuracy: 99.88% MPKI: 0.06058 Average ROB Occupancy at Mispredict: 350.3
Branch type MPKI
BRANCH_DIRECT_JUMP: 4.78e-06
BRANCH_INDIRECT: 0
BRANCH_CONDITIONAL: 0.0606
BRANCH_DIRECT_CALL: 0
BRANCH_INDIRECT_CALL: 0
BRANCH_RETURN: 0


CPU 2 cumulative IPC: 0.09961 instructions: 150000002 cycles: 1505866157
CPU 2 Branch Prediction Accuracy: 94.63% MPKI: 13.36 Average ROB Occupancy at Mispredict: 57.71
Branch type MPKI
BRANCH_DIRECT_JUMP: 0.149
BRANCH_INDIRECT: 0
BRANCH_CONDITIONAL: 13.2
BRANCH_DIRECT_CALL: 0
BRANCH_INDIRECT_CALL: 0.00127
BRANCH_RETURN: 6.67e-06


CPU 3 cumulative IPC: 0.3361 instructions: 506185127 cycles: 1505866157
CPU 3 Branch Prediction Accuracy: 99.32% MPKI: 1.773 Average ROB Occupancy at Mispredict: 116.5
Branch type MPKI
BRANCH_DIRECT_JUMP: 0.0945
BRANCH_INDIRECT: 0.0187
BRANCH_CONDITIONAL: 1.15
BRANCH_DIRECT_CALL: 1.98e-05
BRANCH_INDIRECT_CALL: 0.122
BRANCH_RETURN: 0.387

LLC TOTAL        ACCESS:    5896234 HIT:    1540155 MISS:    4356079
LLC LOAD         ACCESS:    3681585 HIT:      21315 MISS:    3660270
LLC RFO          ACCESS:     657779 HIT:       4050 MISS:     653729
LLC PREFETCH     ACCESS:          0 HIT:          0 MISS:          0
LLC WRITE        ACCESS:    1550031 HIT:    1513957 MISS:      36074
LLC TRANSLATION  ACCESS:       6839 HIT:        833 MISS:       6006
LLC PREFETCH REQUESTED:          0 ISSUED:          0 USEFUL:          0 USELESS:          0
LLC AVERAGE MISS LATENCY: 1359 cycles
LLC TOTAL        ACCESS:   11531173 HIT:    2701479 MISS:    8829694
LLC LOAD         ACCESS:    6091491 HIT:        223 MISS:    6091268
LLC RFO          ACCESS:    2697629 HIT:          0 MISS:    2697629
LLC PREFETCH     ACCESS:          0 HIT:          0 MISS:          0
LLC WRITE        ACCESS:    2696087 HIT:    2695853 MISS:        234
LLC TRANSLATION  ACCESS:      45966 HIT:       5403 MISS:      40563
LLC PREFETCH REQUESTED:          0 ISSUED:          0 USEFUL:          0 USELESS:          0
LLC AVERAGE MISS LATENCY: 1359 cycles
LLC TOTAL        ACCESS:    4701150 HIT:    1110005 MISS:    3591145
LLC LOAD         ACCESS:    3457735 HIT:     801172 MISS:    2656563
LLC RFO          ACCESS:       6470 HIT:       3277 MISS:       3193
LLC PREFETCH     ACCESS:          0 HIT:          0 MISS:          0
LLC WRITE        ACCESS:     223754 HIT:     210789 MISS:      12965
LLC TRANSLATION  ACCESS:    1013191 HIT:      94767 MISS:     918424
LLC PREFETCH REQUESTED:          0 ISSUED:          0 USEFUL:          0 USELESS:          0
LLC AVERAGE MISS LATENCY: 1359 cycles
LLC TOTAL        ACCESS:   13292043 HIT:    7080356 MISS:    6211687
LLC LOAD         ACCESS:   12337745 HIT:    6519085 MISS:    5818660
LLC RFO          ACCESS:     133487 HIT:      39332 MISS:      94155
LLC PREFETCH     ACCESS:          0 HIT:          0 MISS:          0
LLC WRITE        ACCESS:     208018 HIT:     207485 MISS:        533
LLC TRANSLATION  ACCESS:     612793 HIT:     314454 MISS:     298339
LLC PREFETCH REQUESTED:          0 ISSUED:          0 USEFUL:          0 USELESS:          0
LLC AVERAGE MISS LATENCY: 1359 cycles
cpu0_DTLB TOTAL        ACCESS:   82804798 HIT:   82424941 MISS:     379857
cpu0_DTLB LOAD         ACCESS:   82804798 HIT:   82424941 MISS:     379857
cpu0_DTLB RFO          ACCESS:          0 HIT:          0 MISS:          0
cpu0_DTLB PREFETCH     ACCESS:          0 HIT:          0 MISS:          0
cpu0_DTLB WRITE        ACCESS:          0 HIT:          0 MISS:          0
cpu0_DTLB TRANSLATION  ACCESS:          0 HIT:          0 MISS:          0
cpu0_DTLB PREFETCH REQUESTED:          0 ISSUED:          0 USEFUL:          0 USELESS:          0
cpu0_DTLB AVERAGE MISS LATENCY: 35.83 cycles
cpu0_DTLB TOTAL        ACCESS:          0 HIT:          0 MISS:          0
cpu0_DTLB LOAD         ACCESS:          0 HIT:          0 MISS:          0
cpu0_DTLB RFO          ACCESS:          0 HIT:          0 MISS:          0
cpu0_DTLB PREFETCH     ACCESS:          0 HIT:          0 MISS:          0
cpu0_DTLB WRITE        ACCESS:          0 HIT:          0 MISS:          0
cpu0_DTLB TRANSLATION  ACCESS:          0 HIT:          0 MISS:          0
cpu0_DTLB PREFETCH REQUESTED:          0 ISSUED:          0 USEFUL:          0 USELESS:          0
cpu0_DTLB AVERAGE MISS LATENCY: 35.83 cycles
cpu0_DTLB TOTAL        ACCESS:          0 HIT:          0 MISS:          0
cpu0_DTLB LOAD         ACCESS:          0 HIT:          0 MISS:          0
cpu0_DTLB RFO          ACCESS:          0 HIT:          0 MISS:          0
cpu0_DTLB PREFETCH     ACCESS:          0 HIT:          0 MISS:          0
cpu0_DTLB WRITE        ACCESS:          0 HIT:          0 MISS:          0
cpu0_DTLB TRANSLATION  ACCESS:          0 HIT:          0 MISS:          0
cpu0_DTLB PREFETCH REQUESTED:          0 ISSUED:          0 USEFUL:          0 USELESS:          0
cpu0_DTLB AVERAGE MISS LATENCY: 35.83 cycles
cpu0_DTLB TOTAL        ACCESS:          0 HIT:          0 MISS:          0
cpu0_DTLB LOAD         ACCESS:          0 HIT:          0 MISS:          0
cpu0_DTLB RFO          ACCESS:          0 HIT:          0 MISS:          0
cpu0_DTLB PREFETCH     ACCESS:          0 HIT:          0 MISS:          0
cpu0_DTLB WRITE        ACCESS:          0 HIT:          0 MISS:          0
cpu0_DTLB TRANSLATION  ACCESS:          0 HIT:          0 MISS:          0
cpu0_DTLB PREFETCH REQUESTED:          0 ISSUED:          0 USEFUL:          0 USELESS:          0
cpu0_DTLB AVERAGE MISS LATENCY: 35.83 cycles
cpu0_ITLB TOTAL        ACCESS:      25410 HIT:      25251 MISS:        159
cpu0_ITLB LOAD         ACCESS:      25410 HIT:      25251 MISS:        159
cpu0_ITLB RFO          ACCESS:          0 HIT:          0 MISS:          0
cpu0_ITLB PREFETCH     ACCESS:          0 HIT:          0 MISS:          0
cpu0_ITLB WRITE        ACCESS:          0 HIT:          0 MISS:          0
cpu0_ITLB TRANSLATION  ACCESS:          0 HIT:          0 MISS:          0
cpu0_ITLB PREFETCH REQUESTED:          0 ISSUED:          0 USEFUL:          0 USELESS:          0
cpu0_ITLB AVERAGE MISS LATENCY: 425.8 cycles
cpu0_ITLB TOTAL        ACCESS:          0 HIT:          0 MISS:          0
cpu0_ITLB LOAD         ACCESS:          0 HIT:          0 MISS:          0
cpu0_ITLB RFO          ACCESS:          0 HIT:          0 MISS:          0
cpu0_ITLB PREFETCH     ACCESS:          0 HIT:          0 MISS:          0
cpu0_ITLB WRITE        ACCESS:          0 HIT:          0 MISS:          0
cpu0_ITLB TRANSLATION  ACCESS:          0 HIT:          0 MISS:          0
cpu0_ITLB PREFETCH REQUESTED:          0 ISSUED:          0 USEFUL:          0 USELESS:          0
cpu0_ITLB AVERAGE MISS LATENCY: 425.8 cycles
cpu0_ITLB TOTAL        ACCESS:          0 HIT:          0 MISS:          0
cpu0_ITLB LOAD         ACCESS:          0 HIT:          0 MISS:          0
cpu0_ITLB RFO          ACCESS:          0 HIT:          0 MISS:          0
cpu0_ITLB PREFETCH     ACCESS:          0 HIT:          0 MISS:          0
cpu0_ITLB WRITE        ACCESS:          0 HIT:          0 MISS:          0
cpu0_ITLB TRANSLATION  ACCESS:          0 HIT:          0 MISS:          0
cpu0_ITLB PREFETCH REQUESTED:          0 ISSUED:          0 USEFUL:          0 USELESS:          0
cpu0_ITLB AVERAGE MISS LATENCY: 425.8 cycles
cpu0_ITLB TOTAL        ACCESS:          0 HIT:          0 MISS:          0
cpu0_ITLB LOAD         ACCESS:          0 HIT:          0 MISS:          0
cpu0_ITLB RFO          ACCESS:          0 HIT:          0 MISS:          0
cpu0_ITLB PREFETCH     ACCESS:          0 HIT:          0 MISS:          0
cpu0_ITLB WRITE        ACCESS:          0 HIT:          0 MISS:          0
cpu0_ITLB TRANSLATION  ACCESS:          0 HIT:          0 MISS:          0
cpu0_ITLB PREFETCH REQUESTED:          0 ISSUED:          0 USEFUL:          0 USELESS:          0
cpu0_ITLB AVERAGE MISS LATENCY: 425.8 cycles
cpu0_L1D TOTAL        ACCESS:  100818656 HIT:   77646584 MISS:   23172072
cpu0_L1D LOAD         ACCESS:   65341383 HIT:   51147995 MISS:   14193388
cpu0_L1D RFO          ACCESS:          0 HIT:          0 MISS:          0
cpu0_L1D PREFETCH     ACCESS:          0 HIT:          0 MISS:          0
cpu0_L1D WRITE        ACCESS:   35402247 HIT:   26450217 MISS:    8952030
cpu0_L1D TRANSLATION  ACCESS:      75026 HIT:      48372 MISS:      26654
cpu0_L1D PREFETCH REQUESTED:          0 ISSUED:          0 USEFUL:          0 USELESS:          0
cpu0_L1D AVERAGE MISS LATENCY: 167.1 cycles
cpu0_L1D TOTAL        ACCESS:          0 HIT:          0 MISS:          0
cpu0_L1D LOAD         ACCESS:          0 HIT:          0 MISS:          0
cpu0_L1D RFO          ACCESS:          0 HIT:          0 MISS:          0
cpu0_L1D PREFETCH     ACCESS:          0 HIT:          0 MISS:          0
cpu0_L1D WRITE        ACCESS:          0 HIT:          0 MISS:          0
cpu0_L1D TRANSLATION  ACCESS:          0 HIT:          0 MISS:          0
cpu0_L1D PREFETCH REQUESTED:          0 ISSUED:          0 USEFUL:          0 USELESS:          0
cpu0_L1D AVERAGE MISS LATENCY: 167.1 cycles
cpu0_L1D TOTAL        ACCESS:          0 HIT:          0 MISS:          0
cpu0_L1D LOAD         ACCESS:          0 HIT:          0 MISS:          0
cpu0_L1D RFO          ACCESS:          0 HIT:          0 MISS:          0
cpu0_L1D PREFETCH     ACCESS:          0 HIT:          0 MISS:          0
cpu0_L1D WRITE        ACCESS:          0 HIT:          0 MISS:          0
cpu0_L1D TRANSLATION  ACCESS:          0 HIT:          0 MISS:          0
cpu0_L1D PREFETCH REQUESTED:          0 ISSUED:          0 USEFUL:          0 USELESS:          0
cpu0_L1D AVERAGE MISS LATENCY: 167.1 cycles
cpu0_L1D TOTAL        ACCESS:          0 HIT:          0 MISS:          0
cpu0_L1D LOAD         ACCESS:          0 HIT:          0 MISS:          0
cpu0_L1D RFO          ACCESS:          0 HIT:          0 MISS:          0
cpu0_L1D PREFETCH     ACCESS:          0 HIT:          0 MISS:          0
cpu0_L1D WRITE        ACCESS:          0 HIT:          0 MISS:          0
cpu0_L1D TRANSLATION  ACCESS:          0 HIT:          0 MISS:          0
cpu0_L1D PREFETCH REQUESTED:          0 ISSUED:          0 USEFUL:          0 USELESS:          0
cpu0_L1D AVERAGE MISS LATENCY: 167.1 cycles
cpu0_L1I TOTAL        ACCESS:      33911 HIT:      31649 MISS:       2262
cpu0_L1I LOAD         ACCESS:      33911 HIT:      31649 MISS:       2262
cpu0_L1I RFO          ACCESS:          0 HIT:          0 MISS:          0
cpu0_L1I PREFETCH     ACCESS:          0 HIT:          0 MISS:          0
cpu0_L1I WRITE        ACCESS:          0 HIT:          0 MISS:          0
cpu0_L1I TRANSLATION  ACCESS:          0 HIT:          0 MISS:          0
cpu0_L1I PREFETCH REQUESTED:          0 ISSUED:          0 USEFUL:          0 USELESS:          0
cpu0_L1I AVERAGE MISS LATENCY: 1078 cycles
cpu0_L1I TOTAL        ACCESS:          0 HIT:          0 MISS:          0
cpu0_L1I LOAD         ACCESS:          0 HIT:          0 MISS:          0
cpu0_L1I RFO          ACCESS:          0 HIT:          0 MISS:          0
cpu0_L1I PREFETCH     ACCESS:          0 HIT:          0 MISS:          0
cpu0_L1I WRITE        ACCESS:          0 HIT:          0 MISS:          0
cpu0_L1I TRANSLATION  ACCESS:          0 HIT:          0 MISS:          0
cpu0_L1I PREFETCH REQUESTED:          0 ISSUED:          0 USEFUL:          0 USELESS:          0
cpu0_L1I AVERAGE MISS LATENCY: 1078 cycles
cpu0_L1I TOTAL        ACCESS:          0 HIT:          0 MISS:          0
cpu0_L1I LOAD         ACCESS:          0 HIT:          0 MISS:          0
cpu0_L1I RFO          ACCESS:          0 HIT:          0 MISS:          0
cpu0_L1I PREFETCH     ACCESS:          0 HIT:          0 MISS:          0
cpu0_L1I WRITE        ACCESS:          0 HIT:          0 MISS:          0
cpu0_L1I TRANSLATION  ACCESS:          0 HIT:          0 MISS:          0
cpu0_L1I PREFETCH REQUESTED:          0 ISSUED:          0 USEFUL:          0 USELESS:          0
cpu0_L1I AVERAGE MISS LATENCY: 1078 cycles
cpu0_L1I TOTAL        ACCESS:          0 HIT:          0 MISS:          0
cpu0_L1I LOAD         ACCESS:          0 HIT:          0 MISS:          0
cpu0_L1I RFO          ACCESS:          0 HIT:          0 MISS:          0
cpu0_L1I PREFETCH     ACCESS:          0 HIT:          0 MISS:          0
cpu0_L1I WRITE        ACCESS:          0 HIT:          0 MISS:          0
cpu0_L1I TRANSLATION  ACCESS:          0 HIT:          0 MISS:          0
cpu0_L1I PREFETCH REQUESTED:          0 ISSUED:          0 USEFUL:          0 USELESS:          0
cpu0_L1I AVERAGE MISS LATENCY: 1078 cycles
cpu0_L2C TOTAL        ACCESS:    7862024 HIT:    3515521 MISS:    4346503
cpu0_L2C LOAD         ACCESS:    4947785 HIT:    1266199 MISS:    3681586
cpu0_L2C RFO          ACCESS:     913861 HIT:     256082 MISS:     657779
cpu0_L2C PREFETCH     ACCESS:          0 HIT:          0 MISS:          0
cpu0_L2C WRITE        ACCESS:    1973751 HIT:    1973452 MISS:        299
cpu0_L2C TRANSLATION  ACCESS:      26627 HIT:      19788 MISS:       6839
cpu0_L2C PREFETCH REQUESTED:          0 ISSUED:          0 USEFUL:          0 USELESS:          0
cpu0_L2C AVERAGE MISS LATENCY: 1418 cycles
cpu0_L2C TOTAL        ACCESS:          0 HIT:          0 MISS:          0
cpu0_L2C LOAD         ACCESS:          0 HIT:          0 MISS:          0
cpu0_L2C RFO          ACCESS:          0 HIT:          0 MISS:          0
cpu0_L2C PREFETCH     ACCESS:          0 HIT:          0 MISS:          0
cpu0_L2C WRITE        ACCESS:          0 HIT:          0 MISS:          0
cpu0_L2C TRANSLATION  ACCESS:          0 HIT:          0 MISS:          0
cpu0_L2C PREFETCH REQUESTED:          0 ISSUED:          0 USEFUL:          0 USELESS:          0
cpu0_L2C AVERAGE MISS LATENCY: 1418 cycles
cpu0_L2C TOTAL        ACCESS:          0 HIT:          0 MISS:          0
cpu0_L2C LOAD         ACCESS:          0 HIT:          0 MISS:          0
cpu0_L2C RFO          ACCESS:          0 HIT:          0 MISS:          0
cpu0_L2C PREFETCH     ACCESS:          0 HIT:          0 MISS:          0
cpu0_L2C WRITE        ACCESS:          0 HIT:          0 MISS:          0
cpu0_L2C TRANSLATION  ACCESS:          0 HIT:          0 MISS:          0
cpu0_L2C PREFETCH REQUESTED:          0 ISSUED:          0 USEFUL:          0 USELESS:          0
cpu0_L2C AVERAGE MISS LATENCY: 1418 cycles
cpu0_L2C TOTAL        ACCESS:          0 HIT:          0 MISS:          0
cpu0_L2C LOAD         ACCESS:          0 HIT:          0 MISS:          0
cpu0_L2C RFO          ACCESS:          0 HIT:          0 MISS:          0
cpu0_L2C PREFETCH     ACCESS:          0 HIT:          0 MISS:          0
cpu0_L2C WRITE        ACCESS:          0 HIT:          0 MISS:          0
cpu0_L2C TRANSLATION  ACCESS:          0 HIT:          0 MISS:          0
cpu0_L2C PREFETCH REQUESTED:          0 ISSUED:          0 USEFUL:          0 USELESS:          0
cpu0_L2C AVERAGE MISS LATENCY: 1418 cycles
cpu0_STLB TOTAL        ACCESS:     210695 HIT:     135885 MISS:      74810
cpu0_STLB LOAD         ACCESS:     210695 HIT:     135885 MISS:      74810
cpu0_STLB RFO          ACCESS:          0 HIT:          0 MISS:          0
cpu0_STLB PREFETCH     ACCESS:          0 HIT:          0 MISS:          0
cpu0_STLB WRITE        ACCESS:          0 HIT:          0 MISS:          0
cpu0_STLB TRANSLATION  ACCESS:          0 HIT:          0 MISS:          0
cpu0_STLB PREFETCH REQUESTED:          0 ISSUED:          0 USEFUL:          0 USELESS:          0
cpu0_STLB AVERAGE MISS LATENCY: 224 cycles
cpu0_STLB TOTAL        ACCESS:          0 HIT:          0 MISS:          0
cpu0_STLB LOAD         ACCESS:          0 HIT:          0 MISS:          0
cpu0_STLB RFO          ACCESS:          0 HIT:          0 MISS:          0
cpu0_STLB PREFETCH     ACCESS:          0 HIT:          0 MISS:          0
cpu0_STLB WRITE        ACCESS:          0 HIT:          0 MISS:          0
cpu0_STLB TRANSLATION  ACCESS:          0 HIT:          0 MISS:          0
cpu0_STLB PREFETCH REQUESTED:          0 ISSUED:          0 USEFUL:          0 USELESS:          0
cpu0_STLB AVERAGE MISS LATENCY: 224 cycles
cpu0_STLB TOTAL        ACCESS:          0 HIT:          0 MISS:          0
cpu0_STLB LOAD         ACCESS:          0 HIT:          0 MISS:          0
cpu0_STLB RFO          ACCESS:          0 HIT:          0 MISS:          0
cpu0_STLB PREFETCH     ACCESS:          0 HIT:          0 MISS:          0
cpu0_STLB WRITE        ACCESS:          0 HIT:          0 MISS:          0
cpu0_STLB TRANSLATION  ACCESS:          0 HIT:          0 MISS:          0
cpu0_STLB PREFETCH REQUESTED:          0 ISSUED:          0 USEFUL:          0 USELESS:          0
cpu0_STLB AVERAGE MISS LATENCY: 224 cycles
cpu0_STLB TOTAL        ACCESS:          0 HIT:          0 MISS:          0
cpu0_STLB LOAD         ACCESS:          0 HIT:          0 MISS:          0
cpu0_STLB RFO          ACCESS:          0 HIT:          0 MISS:          0
cpu0_STLB PREFETCH     ACCESS:          0 HIT:          0 MISS:          0
cpu0_STLB WRITE        ACCESS:          0 HIT:          0 MISS:          0
cpu0_STLB TRANSLATION  ACCESS:          0 HIT:          0 MISS:          0
cpu0_STLB PREFETCH REQUESTED:          0 ISSUED:          0 USEFUL:          0 USELESS:          0
cpu0_STLB AVERAGE MISS LATENCY: 224 cycles
cpu1_DTLB TOTAL        ACCESS:          0 HIT:          0 MISS:          0
cpu1_DTLB LOAD         ACCESS:          0 HIT:          0 MISS:          0
cpu1_DTLB RFO          ACCESS:          0 HIT:          0 MISS:          0
cpu1_DTLB PREFETCH     ACCESS:          0 HIT:          0 MISS:          0
cpu1_DTLB WRITE        ACCESS:          0 HIT:          0 MISS:          0
cpu1_DTLB TRANSLATION  ACCESS:          0 HIT:          0 MISS:          0
cpu1_DTLB PREFETCH REQUESTED:          0 ISSUED:          0 USEFUL:          0 USELESS:          0
cpu1_DTLB AVERAGE MISS LATENCY: 72.85 cycles
cpu1_DTLB TOTAL        ACCESS:   72674609 HIT:   72077508 MISS:     597101
cpu1_DTLB LOAD         ACCESS:   72674609 HIT:   72077508 MISS:     597101
cpu1_DTLB RFO          ACCESS:          0 HIT:          0 MISS:          0
cpu1_DTLB PREFETCH     ACCESS:          0 HIT:          0 MISS:          0
cpu1_DTLB WRITE        ACCESS:          0 HIT:          0 MISS:          0
cpu1_DTLB TRANSLATION  ACCESS:          0 HIT:          0 MISS:          0
cpu1_DTLB PREFETCH REQUESTED:          0 ISSUED:          0 USEFUL:          0 USELESS:          0
cpu1_DTLB AVERAGE MISS LATENCY: 72.85 cycles
cpu1_DTLB TOTAL        ACCESS:          0 HIT:          0 MISS:          0
cpu1_DTLB LOAD         ACCESS:          0 HIT:          0 MISS:          0
cpu1_DTLB RFO          ACCESS:          0 HIT:          0 MISS:          0
cpu1_DTLB PREFETCH     ACCESS:          0 HIT:          0 MISS:          0
cpu1_DTLB WRITE        ACCESS:          0 HIT:          0 MISS:          0
cpu1_DTLB TRANSLATION  ACCESS:          0 HIT:          0 MISS:          0
cpu1_DTLB PREFETCH REQUESTED:          0 ISSUED:          0 USEFUL:          0 USELESS:          0
cpu1_DTLB AVERAGE MISS LATENCY: 72.85 cycles
cpu1_DTLB TOTAL        ACCESS:          0 HIT:          0 MISS:          0
cpu1_DTLB LOAD         ACCESS:          0 HIT:          0 MISS:          0
cpu1_DTLB RFO          ACCESS:          0 HIT:          0 MISS:          0
cpu1_DTLB PREFETCH     ACCESS:          0 HIT:          0 MISS:          0
cpu1_DTLB WRITE        ACCESS:          0 HIT:          0 MISS:          0
cpu1_DTLB TRANSLATION  ACCESS:          0 HIT:          0 MISS:          0
cpu1_DTLB PREFETCH REQUESTED:          0 ISSUED:          0 USEFUL:          0 USELESS:          0
cpu1_DTLB AVERAGE MISS LATENCY: 72.85 cycles
cpu1_ITLB TOTAL        ACCESS:          0 HIT:          0 MISS:          0
cpu1_ITLB LOAD         ACCESS:          0 HIT:          0 MISS:          0
cpu1_ITLB RFO          ACCESS:          0 HIT:          0 MISS:          0
cpu1_ITLB PREFETCH     ACCESS:          0 HIT:          0 MISS:          0
cpu1_ITLB WRITE        ACCESS:          0 HIT:          0 MISS:          0
cpu1_ITLB TRANSLATION  ACCESS:          0 HIT:          0 MISS:          0
cpu1_ITLB PREFETCH REQUESTED:          0 ISSUED:          0 USEFUL:          0 USELESS:          0
cpu1_ITLB AVERAGE MISS LATENCY: 318.8 cycles
cpu1_ITLB TOTAL        ACCESS:         69 HIT:         61 MISS:          8
cpu1_ITLB LOAD         ACCESS:         69 HIT:         61 MISS:          8
cpu1_ITLB RFO          ACCESS:          0 HIT:          0 MISS:          0
cpu1_ITLB PREFETCH     ACCESS:          0 HIT:          0 MISS:          0
cpu1_ITLB WRITE        ACCESS:          0 HIT:          0 MISS:          0
cpu1_ITLB TRANSLATION  ACCESS:          0 HIT:          0 MISS:          0
cpu1_ITLB PREFETCH REQUESTED:          0 ISSUED:          0 USEFUL:          0 USELESS:          0
cpu1_ITLB AVERAGE MISS LATENCY: 318.8 cycles
cpu1_ITLB TOTAL        ACCESS:          0 HIT:          0 MISS:          0
cpu1_ITLB LOAD         ACCESS:          0 HIT:          0 MISS:          0
cpu1_ITLB RFO          ACCESS:          0 HIT:          0 MISS:          0
cpu1_ITLB PREFETCH     ACCESS:          0 HIT:          0 MISS:          0
cpu1_ITLB WRITE        ACCESS:          0 HIT:          0 MISS:          0
cpu1_ITLB TRANSLATION  ACCESS:          0 HIT:          0 MISS:          0
cpu1_ITLB PREFETCH REQUESTED:          0 ISSUED:          0 USEFUL:          0 USELESS:          0
cpu1_ITLB AVERAGE MISS LATENCY: 318.8 cycles
cpu1_ITLB TOTAL        ACCESS:          0 HIT:          0 MISS:          0
cpu1_ITLB LOAD         ACCESS:          0 HIT:          0 MISS:          0
cpu1_ITLB RFO          ACCESS:          0 HIT:          0 MISS:          0
cpu1_ITLB PREFETCH     ACCESS:          0 HIT:          0 MISS:          0
cpu1_ITLB WRITE        ACCESS:          0 HIT:          0 MISS:          0
cpu1_ITLB TRANSLATION  ACCESS:          0 HIT:          0 MISS:          0
cpu1_ITLB PREFETCH REQUESTED:          0 ISSUED:          0 USEFUL:          0 USELESS:          0
cpu1_ITLB AVERAGE MISS LATENCY: 318.8 cycles
cpu1_L1D TOTAL        ACCESS:          0 HIT:          0 MISS:          0
cpu1_L1D LOAD         ACCESS:          0 HIT:          0 MISS:          0
cpu1_L1D RFO          ACCESS:          0 HIT:          0 MISS:          0
cpu1_L1D PREFETCH     ACCESS:          0 HIT:          0 MISS:          0
cpu1_L1D WRITE        ACCESS:          0 HIT:          0 MISS:          0
cpu1_L1D TRANSLATION  ACCESS:          0 HIT:          0 MISS:          0
cpu1_L1D PREFETCH REQUESTED:          0 ISSUED:          0 USEFUL:          0 USELESS:          0
cpu1_L1D AVERAGE MISS LATENCY: 180.2 cycles
cpu1_L1D TOTAL        ACCESS:   80076624 HIT:   38539068 MISS:   41537556
cpu1_L1D LOAD         ACCESS:   58455529 HIT:   36347960 MISS:   22107569
cpu1_L1D RFO          ACCESS:          0 HIT:          0 MISS:          0
cpu1_L1D PREFETCH     ACCESS:          0 HIT:          0 MISS:          0
cpu1_L1D WRITE        ACCESS:   21423890 HIT:    2116761 MISS:   19307129
cpu1_L1D TRANSLATION  ACCESS:     197205 HIT:      74347 MISS:     122858
cpu1_L1D PREFETCH REQUESTED:          0 ISSUED:          0 USEFUL:          0 USELESS:          0
cpu1_L1D AVERAGE MISS LATENCY: 180.2 cycles
cpu1_L1D TOTAL        ACCESS:          0 HIT:          0 MISS:          0
cpu1_L1D LOAD         ACCESS:          0 HIT:          0 MISS:          0
cpu1_L1D RFO          ACCESS:          0 HIT:          0 MISS:          0
cpu1_L1D PREFETCH     ACCESS:          0 HIT:          0 MISS:          0
cpu1_L1D WRITE        ACCESS:          0 HIT:          0 MISS:          0
cpu1_L1D TRANSLATION  ACCESS:          0 HIT:          0 MISS:          0
cpu1_L1D PREFETCH REQUESTED:          0 ISSUED:          0 USEFUL:          0 USELESS:          0
cpu1_L1D AVERAGE MISS LATENCY: 180.2 cycles
cpu1_L1D TOTAL        ACCESS:          0 HIT:          0 MISS:          0
cpu1_L1D LOAD         ACCESS:          0 HIT:          0 MISS:          0
cpu1_L1D RFO          ACCESS:          0 HIT:          0 MISS:          0
cpu1_L1D PREFETCH     ACCESS:          0 HIT:          0 MISS:          0
cpu1_L1D WRITE        ACCESS:          0 HIT:          0 MISS:          0
cpu1_L1D TRANSLATION  ACCESS:          0 HIT:          0 MISS:          0
cpu1_L1D PREFETCH REQUESTED:          0 ISSUED:          0 USEFUL:          0 USELESS:          0
cpu1_L1D AVERAGE MISS LATENCY: 180.2 cycles
cpu1_L1I TOTAL        ACCESS:          0 HIT:          0 MISS:          0
cpu1_L1I LOAD         ACCESS:          0 HIT:          0 MISS:          0
cpu1_L1I RFO          ACCESS:          0 HIT:          0 MISS:          0
cpu1_L1I PREFETCH     ACCESS:          0 HIT:          0 MISS:          0
cpu1_L1I WRITE        ACCESS:          0 HIT:          0 MISS:          0
cpu1_L1I TRANSLATION  ACCESS:          0 HIT:          0 MISS:          0
cpu1_L1I PREFETCH REQUESTED:          0 ISSUED:          0 USEFUL:          0 USELESS:          0
cpu1_L1I AVERAGE MISS LATENCY: 937.6 cycles
cpu1_L1I TOTAL        ACCESS:         83 HIT:          8 MISS:         75
cpu1_L1I LOAD         ACCESS:         83 HIT:          8 MISS:         75
cpu1_L1I RFO          ACCESS:          0 HIT:          0 MISS:          0
cpu1_L1I PREFETCH     ACCESS:          0 HIT:          0 MISS:          0
cpu1_L1I WRITE        ACCESS:          0 HIT:          0 MISS:          0
cpu1_L1I TRANSLATION  ACCESS:          0 HIT:          0 MISS:          0
cpu1_L1I PREFETCH REQUESTED:          0 ISSUED:          0 USEFUL:          0 USELESS:          0
cpu1_L1I AVERAGE MISS LATENCY: 937.6 cycles
cpu1_L1I TOTAL        ACCESS:          0 HIT:          0 MISS:          0
cpu1_L1I LOAD         ACCESS:          0 HIT:          0 MISS:          0
cpu1_L1I RFO          ACCESS:          0 HIT:          0 MISS:          0
cpu1_L1I PREFETCH     ACCESS:          0 HIT:          0 MISS:          0
cpu1_L1I WRITE        ACCESS:          0 HIT:          0 MISS:          0
cpu1_L1I TRANSLATION  ACCESS:          0 HIT:          0 MISS:          0
cpu1_L1I PREFETCH REQUESTED:          0 ISSUED:          0 USEFUL:          0 USELESS:          0
cpu1_L1I AVERAGE MISS LATENCY: 937.6 cycles
cpu1_L1I TOTAL        ACCESS:          0 HIT:          0 MISS:          0
cpu1_L1I LOAD         ACCESS:          0 HIT:          0 MISS:          0
cpu1_L1I RFO          ACCESS:          0 HIT:          0 MISS:          0
cpu1_L1I PREFETCH     ACCESS:          0 HIT:          0 MISS:          0
cpu1_L1I WRITE        ACCESS:          0 HIT:          0 MISS:          0
cpu1_L1I TRANSLATION  ACCESS:          0 HIT:          0 MISS:          0
cpu1_L1I PREFETCH REQUESTED:          0 ISSUED:          0 USEFUL:          0 USELESS:          0
cpu1_L1I AVERAGE MISS LATENCY: 937.6 cycles
cpu1_L2C TOTAL        ACCESS:          0 HIT:          0 MISS:          0
cpu1_L2C LOAD         ACCESS:          0 HIT:          0 MISS:          0
cpu1_L2C RFO          ACCESS:          0 HIT:          0 MISS:          0
cpu1_L2C PREFETCH     ACCESS:          0 HIT:          0 MISS:          0
cpu1_L2C WRITE        ACCESS:          0 HIT:          0 MISS:          0
cpu1_L2C TRANSLATION  ACCESS:          0 HIT:          0 MISS:          0
cpu1_L2C PREFETCH REQUESTED:          0 ISSUED:          0 USEFUL:          0 USELESS:          0
cpu1_L2C AVERAGE MISS LATENCY: 1300 cycles
cpu1_L2C TOTAL        ACCESS:   13847148 HIT:    5011968 MISS:    8835180
cpu1_L2C LOAD         ACCESS:    8317973 HIT:    2226482 MISS:    6091491
cpu1_L2C RFO          ACCESS:    2697632 HIT:          3 MISS:    2697629
cpu1_L2C PREFETCH     ACCESS:          0 HIT:          0 MISS:          0
cpu1_L2C WRITE        ACCESS:    2708765 HIT:    2708671 MISS:         94
cpu1_L2C TRANSLATION  ACCESS:     122778 HIT:      76812 MISS:      45966
cpu1_L2C PREFETCH REQUESTED:          0 ISSUED:          0 USEFUL:          0 USELESS:          0
cpu1_L2C AVERAGE MISS LATENCY: 1300 cycles
cpu1_L2C TOTAL        ACCESS:          0 HIT:          0 MISS:          0
cpu1_L2C LOAD         ACCESS:          0 HIT:          0 MISS:          0
cpu1_L2C RFO          ACCESS:          0 HIT:          0 MISS:          0
cpu1_L2C PREFETCH     ACCESS:          0 HIT:          0 MISS:          0
cpu1_L2C WRITE        ACCESS:          0 HIT:          0 MISS:          0
cpu1_L2C TRANSLATION  ACCESS:          0 HIT:          0 MISS:          0
cpu1_L2C PREFETCH REQUESTED:          0 ISSUED:          0 USEFUL:          0 USELESS:          0
cpu1_L2C AVERAGE MISS LATENCY: 1300 cycles
cpu1_L2C TOTAL        ACCESS:          0 HIT:          0 MISS:          0
cpu1_L2C LOAD         ACCESS:          0 HIT:          0 MISS:          0
cpu1_L2C RFO          ACCESS:          0 HIT:          0 MISS:          0
cpu1_L2C PREFETCH     ACCESS:          0 HIT:          0 MISS:          0
cpu1_L2C WRITE        ACCESS:          0 HIT:          0 MISS:          0
cpu1_L2C TRANSLATION  ACCESS:          0 HIT:          0 MISS:          0
cpu1_L2C PREFETCH REQUESTED:          0 ISSUED:          0 USEFUL:          0 USELESS:          0
cpu1_L2C AVERAGE MISS LATENCY: 1300 cycles
cpu1_STLB TOTAL        ACCESS:          0 HIT:          0 MISS:          0
cpu1_STLB LOAD         ACCESS:          0 HIT:          0 MISS:          0
cpu1_STLB RFO          ACCESS:          0 HIT:          0 MISS:          0
cpu1_STLB PREFETCH     ACCESS:          0 HIT:          0 MISS:          0
cpu1_STLB WRITE        ACCESS:          0 HIT:          0 MISS:          0
cpu1_STLB TRANSLATION  ACCESS:          0 HIT:          0 MISS:          0
cpu1_STLB PREFETCH REQUESTED:          0 ISSUED:          0 USEFUL:          0 USELESS:          0
cpu1_STLB AVERAGE MISS LATENCY: 401 cycles
cpu1_STLB TOTAL        ACCESS:     212060 HIT:      15478 MISS:     196582
cpu1_STLB LOAD         ACCESS:     212060 HIT:      15478 MISS:     196582
cpu1_STLB RFO          ACCESS:          0 HIT:          0 MISS:          0
cpu1_STLB PREFETCH     ACCESS:          0 HIT:          0 MISS:          0
cpu1_STLB WRITE        ACCESS:          0 HIT:          0 MISS:          0
cpu1_STLB TRANSLATION  ACCESS:          0 HIT:          0 MISS:          0
cpu1_STLB PREFETCH REQUESTED:          0 ISSUED:          0 USEFUL:          0 USELESS:          0
cpu1_STLB AVERAGE MISS LATENCY: 401 cycles
cpu1_STLB TOTAL        ACCESS:          0 HIT:          0 MISS:          0
cpu1_STLB LOAD         ACCESS:          0 HIT:          0 MISS:          0
cpu1_STLB RFO          ACCESS:          0 HIT:          0 MISS:          0
cpu1_STLB PREFETCH     ACCESS:          0 HIT:          0 MISS:          0
cpu1_STLB WRITE        ACCESS:          0 HIT:          0 MISS:          0
cpu1_STLB TRANSLATION  ACCESS:          0 HIT:          0 MISS:          0
cpu1_STLB PREFETCH REQUESTED:          0 ISSUED:          0 USEFUL:          0 USELESS:          0
cpu1_STLB AVERAGE MISS LATENCY: 401 cycles
cpu1_STLB TOTAL        ACCESS:          0 HIT:          0 MISS:          0
cpu1_STLB LOAD         ACCESS:          0 HIT:          0 MISS:          0
cpu1_STLB RFO          ACCESS:          0 HIT:          0 MISS:          0
cpu1_STLB PREFETCH     ACCESS:          0 HIT:          0 MISS:          0
cpu1_STLB WRITE        ACCESS:          0 HIT:          0 MISS:          0
cpu1_STLB TRANSLATION  ACCESS:          0 HIT:          0 MISS:          0
cpu1_STLB PREFETCH REQUESTED:          0 ISSUED:          0 USEFUL:          0 USELESS:          0
cpu1_STLB AVERAGE MISS LATENCY: 401 cycles
cpu2_DTLB TOTAL        ACCESS:          0 HIT:          0 MISS:          0
cpu2_DTLB LOAD         ACCESS:          0 HIT:          0 MISS:          0
cpu2_DTLB RFO          ACCESS:          0 HIT:          0 MISS:          0
cpu2_DTLB PREFETCH     ACCESS:          0 HIT:          0 MISS:          0
cpu2_DTLB WRITE        ACCESS:          0 HIT:          0 MISS:          0
cpu2_DTLB TRANSLATION  ACCESS:          0 HIT:          0 MISS:          0
cpu2_DTLB PREFETCH REQUESTED:          0 ISSUED:          0 USEFUL:          0 USELESS:          0
cpu2_DTLB AVERAGE MISS LATENCY: 499.1 cycles
cpu2_DTLB TOTAL        ACCESS:          0 HIT:          0 MISS:          0
cpu2_DTLB LOAD         ACCESS:          0 HIT:          0 MISS:          0
cpu2_DTLB RFO          ACCESS:          0 HIT:          0 MISS:          0
cpu2_DTLB PREFETCH     ACCESS:          0 HIT:          0 MISS:          0
cpu2_DTLB WRITE        ACCESS:          0 HIT:          0 MISS:          0
cpu2_DTLB TRANSLATION  ACCESS:          0 HIT:          0 MISS:          0
cpu2_DTLB PREFETCH REQUESTED:          0 ISSUED:          0 USEFUL:          0 USELESS:          0
cpu2_DTLB AVERAGE MISS LATENCY: 499.1 cycles
cpu2_DTLB TOTAL        ACCESS:   36407094 HIT:   33626272 MISS:    2780822
cpu2_DTLB LOAD         ACCESS:   36407094 HIT:   33626272 MISS:    2780822
cpu2_DTLB RFO          ACCESS:          0 HIT:          0 MISS:          0
cpu2_DTLB PREFETCH     ACCESS:          0 HIT:          0 MISS:          0
cpu2_DTLB WRITE        ACCESS:          0 HIT:          0 MISS:          0
cpu2_DTLB TRANSLATION  ACCESS:          0 HIT:          0 MISS:          0
cpu2_DTLB PREFETCH REQUESTED:          0 ISSUED:          0 USEFUL:          0 USELESS:          0
cpu2_DTLB AVERAGE MISS LATENCY: 499.1 cycles
cpu2_DTLB TOTAL        ACCESS:          0 HIT:          0 MISS:          0
cpu2_DTLB LOAD         ACCESS:          0 HIT:          0 MISS:          0
cpu2_DTLB RFO          ACCESS:          0 HIT:          0 MISS:          0
cpu2_DTLB PREFETCH     ACCESS:          0 HIT:          0 MISS:          0
cpu2_DTLB WRITE        ACCESS:          0 HIT:          0 MISS:          0
cpu2_DTLB TRANSLATION  ACCESS:          0 HIT:          0 MISS:          0
cpu2_DTLB PREFETCH REQUESTED:          0 ISSUED:          0 USEFUL:          0 USELESS:          0
cpu2_DTLB AVERAGE MISS LATENCY: 499.1 cycles
cpu2_ITLB TOTAL        ACCESS:          0 HIT:          0 MISS:          0
cpu2_ITLB LOAD         ACCESS:          0 HIT:          0 MISS:          0
cpu2_ITLB RFO          ACCESS:          0 HIT:          0 MISS:          0
cpu2_ITLB PREFETCH     ACCESS:          0 HIT:          0 MISS:          0
cpu2_ITLB WRITE        ACCESS:          0 HIT:          0 MISS:          0
cpu2_ITLB TRANSLATION  ACCESS:          0 HIT:          0 MISS:          0
cpu2_ITLB PREFETCH REQUESTED:          0 ISSUED:          0 USEFUL:          0 USELESS:          0
cpu2_ITLB AVERAGE MISS LATENCY: -nan cycles
cpu2_ITLB TOTAL        ACCESS:          0 HIT:          0 MISS:          0
cpu2_ITLB LOAD         ACCESS:          0 HIT:          0 MISS:          0
cpu2_ITLB RFO          ACCESS:          0 HIT:          0 MISS:          0
cpu2_ITLB PREFETCH     ACCESS:          0 HIT:          0 MISS:          0
cpu2_ITLB WRITE        ACCESS:          0 HIT:          0 MISS:          0
cpu2_ITLB TRANSLATION  ACCESS:          0 HIT:          0 MISS:          0
cpu2_ITLB PREFETCH REQUESTED:          0 ISSUED:          0 USEFUL:          0 USELESS:          0
cpu2_ITLB AVERAGE MISS LATENCY: -nan cycles
cpu2_ITLB TOTAL        ACCESS:      14974 HIT:      14974 MISS:          0
cpu2_ITLB LOAD         ACCESS:      14974 HIT:      14974 MISS:          0
cpu2_ITLB RFO          ACCESS:          0 HIT:          0 MISS:          0
cpu2_ITLB PREFETCH     ACCESS:          0 HIT:          0 MISS:          0
cpu2_ITLB WRITE        ACCESS:          0 HIT:          0 MISS:          0
cpu2_ITLB TRANSLATION  ACCESS:          0 HIT:          0 MISS:          0
cpu2_ITLB PREFETCH REQUESTED:          0 ISSUED:          0 USEFUL:          0 USELESS:          0
cpu2_ITLB AVERAGE MISS LATENCY: -nan cycles
cpu2_ITLB TOTAL        ACCESS:          0 HIT:          0 MISS:          0
cpu2_ITLB LOAD         ACCESS:          0 HIT:          0 MISS:          0
cpu2_ITLB RFO          ACCESS:          0 HIT:          0 MISS:          0
cpu2_ITLB PREFETCH     ACCESS:          0 HIT:          0 MISS:          0
cpu2_ITLB WRITE        ACCESS:          0 HIT:          0 MISS:          0
cpu2_ITLB TRANSLATION  ACCESS:          0 HIT:          0 MISS:          0
cpu2_ITLB PREFETCH REQUESTED:          0 ISSUED:          0 USEFUL:          0 USELESS:          0
cpu2_ITLB AVERAGE MISS LATENCY: -nan cycles
cpu2_L1D TOTAL        ACCESS:          0 HIT:          0 MISS:          0
cpu2_L1D LOAD         ACCESS:          0 HIT:          0 MISS:          0
cpu2_L1D RFO          ACCESS:          0 HIT:          0 MISS:          0
cpu2_L1D PREFETCH     ACCESS:          0 HIT:          0 MISS:          0
cpu2_L1D WRITE        ACCESS:          0 HIT:          0 MISS:          0
cpu2_L1D TRANSLATION  ACCESS:          0 HIT:          0 MISS:          0
cpu2_L1D PREFETCH REQUESTED:          0 ISSUED:          0 USEFUL:          0 USELESS:          0
cpu2_L1D AVERAGE MISS LATENCY: 774.8 cycles
cpu2_L1D TOTAL        ACCESS:          0 HIT:          0 MISS:          0
cpu2_L1D LOAD         ACCESS:          0 HIT:          0 MISS:          0
cpu2_L1D RFO          ACCESS:          0 HIT:          0 MISS:          0
cpu2_L1D PREFETCH     ACCESS:          0 HIT:          0 MISS:          0
cpu2_L1D WRITE        ACCESS:          0 HIT:          0 MISS:          0
cpu2_L1D TRANSLATION  ACCESS:          0 HIT:          0 MISS:          0
cpu2_L1D PREFETCH REQUESTED:          0 ISSUED:          0 USEFUL:          0 USELESS:          0
cpu2_L1D AVERAGE MISS LATENCY: 774.8 cycles
cpu2_L1D TOTAL        ACCESS:   49169317 HIT:   42371764 MISS:    6797553
cpu2_L1D LOAD         ACCESS:   32339332 HIT:   26932080 MISS:    5407252
cpu2_L1D RFO          ACCESS:          0 HIT:          0 MISS:          0
cpu2_L1D PREFETCH     ACCESS:          0 HIT:          0 MISS:          0
cpu2_L1D WRITE        ACCESS:   15084280 HIT:   14946888 MISS:     137392
cpu2_L1D TRANSLATION  ACCESS:    1745705 HIT:     492796 MISS:    1252909
cpu2_L1D PREFETCH REQUESTED:          0 ISSUED:          0 USEFUL:          0 USELESS:          0
cpu2_L1D AVERAGE MISS LATENCY: 774.8 cycles
cpu2_L1D TOTAL        ACCESS:          0 HIT:          0 MISS:          0
cpu2_L1D LOAD         ACCESS:          0 HIT:          0 MISS:          0
cpu2_L1D RFO          ACCESS:          0 HIT:          0 MISS:          0
cpu2_L1D PREFETCH     ACCESS:          0 HIT:          0 MISS:          0
cpu2_L1D WRITE        ACCESS:          0 HIT:          0 MISS:          0
cpu2_L1D TRANSLATION  ACCESS:          0 HIT:          0 MISS:          0
cpu2_L1D PREFETCH REQUESTED:          0 ISSUED:          0 USEFUL:          0 USELESS:          0
cpu2_L1D AVERAGE MISS LATENCY: 774.8 cycles
cpu2_L1I TOTAL        ACCESS:          0 HIT:          0 MISS:          0
cpu2_L1I LOAD         ACCESS:          0 HIT:          0 MISS:          0
cpu2_L1I RFO          ACCESS:          0 HIT:          0 MISS:          0
cpu2_L1I PREFETCH     ACCESS:          0 HIT:          0 MISS:          0
cpu2_L1I WRITE        ACCESS:          0 HIT:          0 MISS:          0
cpu2_L1I TRANSLATION  ACCESS:          0 HIT:          0 MISS:          0
cpu2_L1I PREFETCH REQUESTED:          0 ISSUED:          0 USEFUL:          0 USELESS:          0
cpu2_L1I AVERAGE MISS LATENCY: -nan cycles
cpu2_L1I TOTAL        ACCESS:          0 HIT:          0 MISS:          0
cpu2_L1I LOAD         ACCESS:          0 HIT:          0 MISS:          0
cpu2_L1I RFO          ACCESS:          0 HIT:          0 MISS:          0
cpu2_L1I PREFETCH     ACCESS:          0 HIT:          0 MISS:          0
cpu2_L1I WRITE        ACCESS:          0 HIT:          0 MISS:          0
cpu2_L1I TRANSLATION  ACCESS:          0 HIT:          0 MISS:          0
cpu2_L1I PREFETCH REQUESTED:          0 ISSUED:          0 USEFUL:          0 USELESS:          0
cpu2_L1I AVERAGE MISS LATENCY: -nan cycles
cpu2_L1I TOTAL        ACCESS:      15012 HIT:      15012 MISS:          0
cpu2_L1I LOAD         ACCESS:      15012 HIT:      15012 MISS:          0
cpu2_L1I RFO          ACCESS:          0 HIT:          0 MISS:          0
cpu2_L1I PREFETCH     ACCESS:          0 HIT:          0 MISS:          0
cpu2_L1I WRITE        ACCESS:          0 HIT:          0 MISS:          0
cpu2_L1I TRANSLATION  ACCESS:          0 HIT:          0 MISS:          0
cpu2_L1I PREFETCH REQUESTED:          0 ISSUED:          0 USEFUL:          0 USELESS:          0
cpu2_L1I AVERAGE MISS LATENCY: -nan cycles
cpu2_L1I TOTAL        ACCESS:          0 HIT:          0 MISS:          0
cpu2_L1I LOAD         ACCESS:          0 HIT:          0 MISS:          0
cpu2_L1I RFO          ACCESS:          0 HIT:          0 MISS:          0
cpu2_L1I PREFETCH     ACCESS:          0 HIT:          0 MISS:          0
cpu2_L1I WRITE        ACCESS:          0 HIT:          0 MISS:          0
cpu2_L1I TRANSLATION  ACCESS:          0 HIT:          0 MISS:          0
cpu2_L1I PREFETCH REQUESTED:          0 ISSUED:          0 USEFUL:          0 USELESS:          0
cpu2_L1I AVERAGE MISS LATENCY: -nan cycles
cpu2_L2C TOTAL        ACCESS:          0 HIT:          0 MISS:          0
cpu2_L2C LOAD         ACCESS:          0 HIT:          0 MISS:          0
cpu2_L2C RFO          ACCESS:          0 HIT:          0 MISS:          0
cpu2_L2C PREFETCH     ACCESS:          0 HIT:          0 MISS:          0
cpu2_L2C WRITE        ACCESS:          0 HIT:          0 MISS:          0
cpu2_L2C TRANSLATION  ACCESS:          0 HIT:          0 MISS:          0
cpu2_L2C PREFETCH REQUESTED:          0 ISSUED:          0 USEFUL:          0 USELESS:          0
cpu2_L2C AVERAGE MISS LATENCY: 1163 cycles
cpu2_L2C TOTAL        ACCESS:          0 HIT:          0 MISS:          0
cpu2_L2C LOAD         ACCESS:          0 HIT:          0 MISS:          0
cpu2_L2C RFO          ACCESS:          0 HIT:          0 MISS:          0
cpu2_L2C PREFETCH     ACCESS:          0 HIT:          0 MISS:          0
cpu2_L2C WRITE        ACCESS:          0 HIT:          0 MISS:          0
cpu2_L2C TRANSLATION  ACCESS:          0 HIT:          0 MISS:          0
cpu2_L2C PREFETCH REQUESTED:          0 ISSUED:          0 USEFUL:          0 USELESS:          0
cpu2_L2C AVERAGE MISS LATENCY: 1163 cycles
cpu2_L2C TOTAL        ACCESS:    6938842 HIT:    2460959 MISS:    4477883
cpu2_L2C LOAD         ACCESS:    5274974 HIT:    1817239 MISS:    3457735
cpu2_L2C RFO          ACCESS:      45734 HIT:      39264 MISS:       6470
cpu2_L2C PREFETCH     ACCESS:          0 HIT:          0 MISS:          0
cpu2_L2C WRITE        ACCESS:     367193 HIT:     366706 MISS:        487
cpu2_L2C TRANSLATION  ACCESS:    1250941 HIT:     237750 MISS:    1013191
cpu2_L2C PREFETCH REQUESTED:          0 ISSUED:          0 USEFUL:          0 USELESS:          0
cpu2_L2C AVERAGE MISS LATENCY: 1163 cycles
cpu2_L2C TOTAL        ACCESS:          0 HIT:          0 MISS:          0
cpu2_L2C LOAD         ACCESS:          0 HIT:          0 MISS:          0
cpu2_L2C RFO          ACCESS:          0 HIT:          0 MISS:          0
cpu2_L2C PREFETCH     ACCESS:          0 HIT:          0 MISS:          0
cpu2_L2C WRITE        ACCESS:          0 HIT:          0 MISS:          0
cpu2_L2C TRANSLATION  ACCESS:          0 HIT:          0 MISS:          0
cpu2_L2C PREFETCH REQUESTED:          0 ISSUED:          0 USEFUL:          0 USELESS:          0
cpu2_L2C AVERAGE MISS LATENCY: 1163 cycles
cpu2_STLB TOTAL        ACCESS:          0 HIT:          0 MISS:          0
cpu2_STLB LOAD         ACCESS:          0 HIT:          0 MISS:          0
cpu2_STLB RFO          ACCESS:          0 HIT:          0 MISS:          0
cpu2_STLB PREFETCH     ACCESS:          0 HIT:          0 MISS:          0
cpu2_STLB WRITE        ACCESS:          0 HIT:          0 MISS:          0
cpu2_STLB TRANSLATION  ACCESS:          0 HIT:          0 MISS:          0
cpu2_STLB PREFETCH REQUESTED:          0 ISSUED:          0 USEFUL:          0 USELESS:          0
cpu2_STLB AVERAGE MISS LATENCY: 1271 cycles
cpu2_STLB TOTAL        ACCESS:          0 HIT:          0 MISS:          0
cpu2_STLB LOAD         ACCESS:          0 HIT:          0 MISS:          0
cpu2_STLB RFO          ACCESS:          0 HIT:          0 MISS:          0
cpu2_STLB PREFETCH     ACCESS:          0 HIT:          0 MISS:          0
cpu2_STLB WRITE        ACCESS:          0 HIT:          0 MISS:          0
cpu2_STLB TRANSLATION  ACCESS:          0 HIT:          0 MISS:          0
cpu2_STLB PREFETCH REQUESTED:          0 ISSUED:          0 USEFUL:          0 USELESS:          0
cpu2_STLB AVERAGE MISS LATENCY: 1271 cycles
cpu2_STLB TOTAL        ACCESS:    2150260 HIT:    1064844 MISS:    1085416
cpu2_STLB LOAD         ACCESS:    2150260 HIT:    1064844 MISS:    1085416
cpu2_STLB RFO          ACCESS:          0 HIT:          0 MISS:          0
cpu2_STLB PREFETCH     ACCESS:          0 HIT:          0 MISS:          0
cpu2_STLB WRITE        ACCESS:          0 HIT:          0 MISS:          0
cpu2_STLB TRANSLATION  ACCESS:          0 HIT:          0 MISS:          0
cpu2_STLB PREFETCH REQUESTED:          0 ISSUED:          0 USEFUL:          0 USELESS:          0
cpu2_STLB AVERAGE MISS LATENCY: 1271 cycles
cpu2_STLB TOTAL        ACCESS:          0 HIT:          0 MISS:          0
cpu2_STLB LOAD         ACCESS:          0 HIT:          0 MISS:          0
cpu2_STLB RFO          ACCESS:          0 HIT:          0 MISS:          0
cpu2_STLB PREFETCH     ACCESS:          0 HIT:          0 MISS:          0
cpu2_STLB WRITE        ACCESS:          0 HIT:          0 MISS:          0
cpu2_STLB TRANSLATION  ACCESS:          0 HIT:          0 MISS:          0
cpu2_STLB PREFETCH REQUESTED:          0 ISSUED:          0 USEFUL:          0 USELESS:          0
cpu2_STLB AVERAGE MISS LATENCY: 1271 cycles
cpu3_DTLB TOTAL        ACCESS:          0 HIT:          0 MISS:          0
cpu3_DTLB LOAD         ACCESS:          0 HIT:          0 MISS:          0
cpu3_DTLB RFO          ACCESS:          0 HIT:          0 MISS:          0
cpu3_DTLB PREFETCH     ACCESS:          0 HIT:          0 MISS:          0
cpu3_DTLB WRITE        ACCESS:          0 HIT:          0 MISS:          0
cpu3_DTLB TRANSLATION  ACCESS:          0 HIT:          0 MISS:          0
cpu3_DTLB PREFETCH REQUESTED:          0 ISSUED:          0 USEFUL:          0 USELESS:          0
cpu3_DTLB AVERAGE MISS LATENCY: 67.04 cycles
cpu3_DTLB TOTAL        ACCESS:          0 HIT:          0 MISS:          0
cpu3_DTLB LOAD         ACCESS:          0 HIT:          0 MISS:          0
cpu3_DTLB RFO          ACCESS:          0 HIT:          0 MISS:          0
cpu3_DTLB PREFETCH     ACCESS:          0 HIT:          0 MISS:          0
cpu3_DTLB WRITE        ACCESS:          0 HIT:          0 MISS:          0
cpu3_DTLB TRANSLATION  ACCESS:          0 HIT:          0 MISS:          0
cpu3_DTLB PREFETCH REQUESTED:          0 ISSUED:          0 USEFUL:          0 USELESS:          0
cpu3_DTLB AVERAGE MISS LATENCY: 67.04 cycles
cpu3_DTLB TOTAL        ACCESS:          0 HIT:          0 MISS:          0
cpu3_DTLB LOAD         ACCESS:          0 HIT:          0 MISS:          0
cpu3_DTLB RFO          ACCESS:          0 HIT:          0 MISS:          0
cpu3_DTLB PREFETCH     ACCESS:          0 HIT:          0 MISS:          0
cpu3_DTLB WRITE        ACCESS:          0 HIT:          0 MISS:          0
cpu3_DTLB TRANSLATION  ACCESS:          0 HIT:          0 MISS:          0
cpu3_DTLB PREFETCH REQUESTED:          0 ISSUED:          0 USEFUL:          0 USELESS:          0
cpu3_DTLB AVERAGE MISS LATENCY: 67.04 cycles
cpu3_DTLB TOTAL        ACCESS:   74483116 HIT:   68696969 MISS:    5786147
cpu3_DTLB LOAD         ACCESS:   74483116 HIT:   68696969 MISS:    5786147
cpu3_DTLB RFO          ACCESS:          0 HIT:          0 MISS:          0
cpu3_DTLB PREFETCH     ACCESS:          0 HIT:          0 MISS:          0
cpu3_DTLB WRITE        ACCESS:          0 HIT:          0 MISS:          0
cpu3_DTLB TRANSLATION  ACCESS:          0 HIT:          0 MISS:          0
cpu3_DTLB PREFETCH REQUESTED:          0 ISSUED:          0 USEFUL:          0 USELESS:          0
cpu3_DTLB AVERAGE MISS LATENCY: 67.04 cycles
cpu3_ITLB TOTAL        ACCESS:          0 HIT:          0 MISS:          0
cpu3_ITLB LOAD         ACCESS:          0 HIT:          0 MISS:          0
cpu3_ITLB RFO          ACCESS:          0 HIT:          0 MISS:          0
cpu3_ITLB PREFETCH     ACCESS:          0 HIT:          0 MISS:          0
cpu3_ITLB WRITE        ACCESS:          0 HIT:          0 MISS:          0
cpu3_ITLB TRANSLATION  ACCESS:          0 HIT:          0 MISS:          0
cpu3_ITLB PREFETCH REQUESTED:          0 ISSUED:          0 USEFUL:          0 USELESS:          0
cpu3_ITLB AVERAGE MISS LATENCY: 14.3 cycles
cpu3_ITLB TOTAL        ACCESS:          0 HIT:          0 MISS:          0
cpu3_ITLB LOAD         ACCESS:          0 HIT:          0 MISS:          0
cpu3_ITLB RFO          ACCESS:          0 HIT:          0 MISS:          0
cpu3_ITLB PREFETCH     ACCESS:          0 HIT:          0 MISS:          0
cpu3_ITLB WRITE        ACCESS:          0 HIT:          0 MISS:          0
cpu3_ITLB TRANSLATION  ACCESS:          0 HIT:          0 MISS:          0
cpu3_ITLB PREFETCH REQUESTED:          0 ISSUED:          0 USEFUL:          0 USELESS:          0
cpu3_ITLB AVERAGE MISS LATENCY: 14.3 cycles
cpu3_ITLB TOTAL        ACCESS:          0 HIT:          0 MISS:          0
cpu3_ITLB LOAD         ACCESS:          0 HIT:          0 MISS:          0
cpu3_ITLB RFO          ACCESS:          0 HIT:          0 MISS:          0
cpu3_ITLB PREFETCH     ACCESS:          0 HIT:          0 MISS:          0
cpu3_ITLB WRITE        ACCESS:          0 HIT:          0 MISS:          0
cpu3_ITLB TRANSLATION  ACCESS:          0 HIT:          0 MISS:          0
cpu3_ITLB PREFETCH REQUESTED:          0 ISSUED:          0 USEFUL:          0 USELESS:          0
cpu3_ITLB AVERAGE MISS LATENCY: 14.3 cycles
cpu3_ITLB TOTAL        ACCESS:    6137871 HIT:    5378824 MISS:     759047
cpu3_ITLB LOAD         ACCESS:    6137871 HIT:    5378824 MISS:     759047
cpu3_ITLB RFO          ACCESS:          0 HIT:          0 MISS:          0
cpu3_ITLB PREFETCH     ACCESS:          0 HIT:          0 MISS:          0
cpu3_ITLB WRITE        ACCESS:          0 HIT:          0 MISS:          0
cpu3_ITLB TRANSLATION  ACCESS:          0 HIT:          0 MISS:          0
cpu3_ITLB PREFETCH REQUESTED:          0 ISSUED:          0 USEFUL:          0 USELESS:          0
cpu3_ITLB AVERAGE MISS LATENCY: 14.3 cycles
cpu3_L1D TOTAL        ACCESS:          0 HIT:          0 MISS:          0
cpu3_L1D LOAD         ACCESS:          0 HIT:          0 MISS:          0
cpu3_L1D RFO          ACCESS:          0 HIT:          0 MISS:          0
[...]
cpu2_L1I WRITE        ACCESS:          0 HIT:          0 MISS:          0
cpu2_L1I TRANSLATION  ACCESS:          0 HIT:          0 MISS:          0
cpu2_L1I PREFETCH REQUESTED:          0 ISSUED:          0 USEFUL:          0 USELESS:          0
cpu2_L1I AVERAGE MISS LATENCY: -nan cycles
cpu2_L1I TOTAL        ACCESS:          0 HIT:          0 MISS:          0
cpu2_L1I LOAD         ACCESS:          0 HIT:          0 MISS:          0
cpu2_L1I RFO          ACCESS:          0 HIT:          0 MISS:          0
cpu2_L1I PREFETCH     ACCESS:          0 HIT:          0 MISS:          0
cpu2_L1I WRITE        ACCESS:          0 HIT:          0 MISS:          0
cpu2_L1I TRANSLATION  ACCESS:          0 HIT:          0 MISS:          0
cpu2_L1I PREFETCH REQUESTED:          0 ISSUED:          0 USEFUL:          0 USELESS:          0
cpu2_L1I AVERAGE MISS LATENCY: -nan cycles
cpu2_L2C TOTAL        ACCESS:          0 HIT:          0 MISS:          0
cpu2_L2C LOAD         ACCESS:          0 HIT:          0 MISS:          0
cpu2_L2C RFO          ACCESS:          0 HIT:          0 MISS:          0
cpu2_L2C PREFETCH     ACCESS:          0 HIT:          0 MISS:          0
cpu2_L2C WRITE        ACCESS:          0 HIT:          0 MISS:          0
cpu2_L2C TRANSLATION  ACCESS:          0 HIT:          0 MISS:          0
cpu2_L2C PREFETCH REQUESTED:          0 ISSUED:          0 USEFUL:          0 USELESS:          0
cpu2_L2C AVERAGE MISS LATENCY: 1163 cycles
cpu2_L2C TOTAL        ACCESS:          0 HIT:          0 MISS:          0
cpu2_L2C LOAD         ACCESS:          0 HIT:          0 MISS:          0
cpu2_L2C RFO          ACCESS:          0 HIT:          0 MISS:          0
cpu2_L2C PREFETCH     ACCESS:          0 HIT:          0 MISS:          0
cpu2_L2C WRITE        ACCESS:          0 HIT:          0 MISS:          0
cpu2_L2C TRANSLATION  ACCESS:          0 HIT:          0 MISS:          0
cpu2_L2C PREFETCH REQUESTED:          0 ISSUED:          0 USEFUL:          0 USELESS:          0
cpu2_L2C AVERAGE MISS LATENCY: 1163 cycles
cpu2_L2C TOTAL        ACCESS:    6938842 HIT:    2460959 MISS:    4477883
cpu2_L2C LOAD         ACCESS:    5274974 HIT:    1817239 MISS:    3457735
cpu2_L2C RFO          ACCESS:      45734 HIT:      39264 MISS:       6470
cpu2_L2C PREFETCH     ACCESS:          0 HIT:          0 MISS:          0
cpu2_L2C WRITE        ACCESS:     367193 HIT:     366706 MISS:        487
cpu2_L2C TRANSLATION  ACCESS:    1250941 HIT:     237750 MISS:    1013191
cpu2_L2C PREFETCH REQUESTED:          0 ISSUED:          0 USEFUL:          0 USELESS:          0
cpu2_L2C AVERAGE MISS LATENCY: 1163 cycles
cpu2_L2C TOTAL        ACCESS:          0 HIT:          0 MISS:          0
cpu2_L2C LOAD         ACCESS:          0 HIT:          0 MISS:          0
cpu2_L2C RFO          ACCESS:          0 HIT:          0 MISS:          0
cpu2_L2C PREFETCH     ACCESS:          0 HIT:          0 MISS:          0
cpu2_L2C WRITE        ACCESS:          0 HIT:          0 MISS:          0
cpu2_L2C TRANSLATION  ACCESS:          0 HIT:          0 MISS:          0
cpu2_L2C PREFETCH REQUESTED:          0 ISSUED:          0 USEFUL:          0 USELESS:          0
cpu2_L2C AVERAGE MISS LATENCY: 1163 cycles
cpu2_STLB TOTAL        ACCESS:          0 HIT:          0 MISS:          0
cpu2_STLB LOAD         ACCESS:          0 HIT:          0 MISS:          0
cpu2_STLB RFO          ACCESS:          0 HIT:          0 MISS:          0
cpu2_STLB PREFETCH     ACCESS:          0 HIT:          0 MISS:          0
cpu2_STLB WRITE        ACCESS:          0 HIT:          0 MISS:          0
cpu2_STLB TRANSLATION  ACCESS:          0 HIT:          0 MISS:          0
cpu2_STLB PREFETCH REQUESTED:          0 ISSUED:          0 USEFUL:          0 USELESS:          0
cpu2_STLB AVERAGE MISS LATENCY: 1271 cycles
cpu2_STLB TOTAL        ACCESS:          0 HIT:          0 MISS:          0
cpu2_STLB LOAD         ACCESS:          0 HIT:          0 MISS:          0
cpu2_STLB RFO          ACCESS:          0 HIT:          0 MISS:          0
cpu2_STLB PREFETCH     ACCESS:          0 HIT:          0 MISS:          0
cpu2_STLB WRITE        ACCESS:          0 HIT:          0 MISS:          0
cpu2_STLB TRANSLATION  ACCESS:          0 HIT:          0 MISS:          0
cpu2_STLB PREFETCH REQUESTED:          0 ISSUED:          0 USEFUL:          0 USELESS:          0
cpu2_STLB AVERAGE MISS LATENCY: 1271 cycles
cpu2_STLB TOTAL        ACCESS:    2150260 HIT:    1064844 MISS:    1085416
cpu2_STLB LOAD         ACCESS:    2150260 HIT:    1064844 MISS:    1085416
cpu2_STLB RFO          ACCESS:          0 HIT:          0 MISS:          0
cpu2_STLB PREFETCH     ACCESS:          0 HIT:          0 MISS:          0
cpu2_STLB WRITE        ACCESS:          0 HIT:          0 MISS:          0
cpu2_STLB TRANSLATION  ACCESS:          0 HIT:          0 MISS:          0
cpu2_STLB PREFETCH REQUESTED:          0 ISSUED:          0 USEFUL:          0 USELESS:          0
cpu2_STLB AVERAGE MISS LATENCY: 1271 cycles
cpu2_STLB TOTAL        ACCESS:          0 HIT:          0 MISS:          0
cpu2_STLB LOAD         ACCESS:          0 HIT:          0 MISS:          0
cpu2_STLB RFO          ACCESS:          0 HIT:          0 MISS:          0
cpu2_STLB PREFETCH     ACCESS:          0 HIT:          0 MISS:          0
cpu2_STLB WRITE        ACCESS:          0 HIT:          0 MISS:          0
cpu2_STLB TRANSLATION  ACCESS:          0 HIT:          0 MISS:          0
cpu2_STLB PREFETCH REQUESTED:          0 ISSUED:          0 USEFUL:          0 USELESS:          0
cpu2_STLB AVERAGE MISS LATENCY: 1271 cycles
cpu3_DTLB TOTAL        ACCESS:          0 HIT:          0 MISS:          0
cpu3_DTLB LOAD         ACCESS:          0 HIT:          0 MISS:          0
cpu3_DTLB RFO          ACCESS:          0 HIT:          0 MISS:          0
cpu3_DTLB PREFETCH     ACCESS:          0 HIT:          0 MISS:          0
cpu3_DTLB WRITE        ACCESS:          0 HIT:          0 MISS:          0
cpu3_DTLB TRANSLATION  ACCESS:          0 HIT:          0 MISS:          0
cpu3_DTLB PREFETCH REQUESTED:          0 ISSUED:          0 USEFUL:          0 USELESS:          0
cpu3_DTLB AVERAGE MISS LATENCY: 67.04 cycles
cpu3_DTLB TOTAL        ACCESS:          0 HIT:          0 MISS:          0
cpu3_DTLB LOAD         ACCESS:          0 HIT:          0 MISS:          0
cpu3_DTLB RFO          ACCESS:          0 HIT:          0 MISS:          0
cpu3_DTLB PREFETCH     ACCESS:          0 HIT:          0 MISS:          0
cpu3_DTLB WRITE        ACCESS:          0 HIT:          0 MISS:          0
cpu3_DTLB TRANSLATION  ACCESS:          0 HIT:          0 MISS:          0
cpu3_DTLB PREFETCH REQUESTED:          0 ISSUED:          0 USEFUL:          0 USELESS:          0
cpu3_DTLB AVERAGE MISS LATENCY: 67.04 cycles
cpu3_DTLB TOTAL        ACCESS:          0 HIT:          0 MISS:          0
cpu3_DTLB LOAD         ACCESS:          0 HIT:          0 MISS:          0
cpu3_DTLB RFO          ACCESS:          0 HIT:          0 MISS:          0
cpu3_DTLB PREFETCH     ACCESS:          0 HIT:          0 MISS:          0
cpu3_DTLB WRITE        ACCESS:          0 HIT:          0 MISS:          0
cpu3_DTLB TRANSLATION  ACCESS:          0 HIT:          0 MISS:          0
cpu3_DTLB PREFETCH REQUESTED:          0 ISSUED:          0 USEFUL:          0 USELESS:          0
cpu3_DTLB AVERAGE MISS LATENCY: 67.04 cycles
cpu3_DTLB TOTAL        ACCESS:   21992705 HIT:   20310237 MISS:    1682468
cpu3_DTLB LOAD         ACCESS:   21992705 HIT:   20310237 MISS:    1682468
cpu3_DTLB RFO          ACCESS:          0 HIT:          0 MISS:          0
cpu3_DTLB PREFETCH     ACCESS:          0 HIT:          0 MISS:          0
cpu3_DTLB WRITE        ACCESS:          0 HIT:          0 MISS:          0
cpu3_DTLB TRANSLATION  ACCESS:          0 HIT:          0 MISS:          0
cpu3_DTLB PREFETCH REQUESTED:          0 ISSUED:          0 USEFUL:          0 USELESS:          0
cpu3_DTLB AVERAGE MISS LATENCY: 67.04 cycles
cpu3_ITLB TOTAL        ACCESS:          0 HIT:          0 MISS:          0
cpu3_ITLB LOAD         ACCESS:          0 HIT:          0 MISS:          0
cpu3_ITLB RFO          ACCESS:          0 HIT:          0 MISS:          0
cpu3_ITLB PREFETCH     ACCESS:          0 HIT:          0 MISS:          0
cpu3_ITLB WRITE        ACCESS:          0 HIT:          0 MISS:          0
cpu3_ITLB TRANSLATION  ACCESS:          0 HIT:          0 MISS:          0
cpu3_ITLB PREFETCH REQUESTED:          0 ISSUED:          0 USEFUL:          0 USELESS:          0
cpu3_ITLB AVERAGE MISS LATENCY: 14.3 cycles
cpu3_ITLB TOTAL        ACCESS:          0 HIT:          0 MISS:          0
cpu3_ITLB LOAD         ACCESS:          0 HIT:          0 MISS:          0
cpu3_ITLB RFO          ACCESS:          0 HIT:          0 MISS:          0
cpu3_ITLB PREFETCH     ACCESS:          0 HIT:          0 MISS:          0
cpu3_ITLB WRITE        ACCESS:          0 HIT:          0 MISS:          0
cpu3_ITLB TRANSLATION  ACCESS:          0 HIT:          0 MISS:          0
cpu3_ITLB PREFETCH REQUESTED:          0 ISSUED:          0 USEFUL:          0 USELESS:          0
cpu3_ITLB AVERAGE MISS LATENCY: 14.3 cycles
cpu3_ITLB TOTAL        ACCESS:          0 HIT:          0 MISS:          0
cpu3_ITLB LOAD         ACCESS:          0 HIT:          0 MISS:          0
cpu3_ITLB RFO          ACCESS:          0 HIT:          0 MISS:          0
cpu3_ITLB PREFETCH     ACCESS:          0 HIT:          0 MISS:          0
cpu3_ITLB WRITE        ACCESS:          0 HIT:          0 MISS:          0
cpu3_ITLB TRANSLATION  ACCESS:          0 HIT:          0 MISS:          0
cpu3_ITLB PREFETCH REQUESTED:          0 ISSUED:          0 USEFUL:          0 USELESS:          0
cpu3_ITLB AVERAGE MISS LATENCY: 14.3 cycles
cpu3_ITLB TOTAL        ACCESS:    1808878 HIT:    1585329 MISS:     223549
cpu3_ITLB LOAD         ACCESS:    1808878 HIT:    1585329 MISS:     223549
cpu3_ITLB RFO          ACCESS:          0 HIT:          0 MISS:          0
cpu3_ITLB PREFETCH     ACCESS:          0 HIT:          0 MISS:          0
cpu3_ITLB WRITE        ACCESS:          0 HIT:          0 MISS:          0
cpu3_ITLB TRANSLATION  ACCESS:          0 HIT:          0 MISS:          0
cpu3_ITLB PREFETCH REQUESTED:          0 ISSUED:          0 USEFUL:          0 USELESS:          0
cpu3_ITLB AVERAGE MISS LATENCY: 14.3 cycles
cpu3_L1D TOTAL        ACCESS:          0 HIT:          0 MISS:          0
cpu3_L1D LOAD         ACCESS:          0 HIT:          0 MISS:          0
cpu3_L1D RFO          ACCESS:          0 HIT:          0 MISS:          0
cpu3_L1D PREFETCH     ACCESS:          0 HIT:          0 MISS:          0
cpu3_L1D WRITE        ACCESS:          0 HIT:          0 MISS:          0
cpu3_L1D TRANSLATION  ACCESS:          0 HIT:          0 MISS:          0
cpu3_L1D PREFETCH REQUESTED:          0 ISSUED:          0 USEFUL:          0 USELESS:          0
cpu3_L1D AVERAGE MISS LATENCY: 402.2 cycles
cpu3_L1D TOTAL        ACCESS:          0 HIT:          0 MISS:          0
cpu3_L1D LOAD         ACCESS:          0 HIT:          0 MISS:          0
cpu3_L1D RFO          ACCESS:          0 HIT:          0 MISS:          0
cpu3_L1D PREFETCH     ACCESS:          0 HIT:          0 MISS:          0
cpu3_L1D WRITE        ACCESS:          0 HIT:          0 MISS:          0
cpu3_L1D TRANSLATION  ACCESS:          0 HIT:          0 MISS:          0
cpu3_L1D PREFETCH REQUESTED:          0 ISSUED:          0 USEFUL:          0 USELESS:          0
cpu3_L1D AVERAGE MISS LATENCY: 402.2 cycles
cpu3_L1D TOTAL        ACCESS:          0 HIT:          0 MISS:          0
cpu3_L1D LOAD         ACCESS:          0 HIT:          0 MISS:          0
cpu3_L1D RFO          ACCESS:          0 HIT:          0 MISS:          0
cpu3_L1D PREFETCH     ACCESS:          0 HIT:          0 MISS:          0
cpu3_L1D WRITE        ACCESS:          0 HIT:          0 MISS:          0
cpu3_L1D TRANSLATION  ACCESS:          0 HIT:          0 MISS:          0
cpu3_L1D PREFETCH REQUESTED:          0 ISSUED:          0 USEFUL:          0 USELESS:          0
cpu3_L1D AVERAGE MISS LATENCY: 402.2 cycles
cpu3_L1D TOTAL        ACCESS:   28551842 HIT:   22353674 MISS:    6198168
cpu3_L1D LOAD         ACCESS:   20677099 HIT:   15053010 MISS:    5624089
cpu3_L1D RFO          ACCESS:          0 HIT:          0 MISS:          0
cpu3_L1D PREFETCH     ACCESS:          0 HIT:          0 MISS:          0
cpu3_L1D WRITE        ACCESS:    7155545 HIT:    6790752 MISS:     364793
cpu3_L1D TRANSLATION  ACCESS:     719198 HIT:     509912 MISS:     209286
cpu3_L1D PREFETCH REQUESTED:          0 ISSUED:          0 USEFUL:          0 USELESS:          0
cpu3_L1D AVERAGE MISS LATENCY: 402.2 cycles
cpu3_L1I TOTAL        ACCESS:          0 HIT:          0 MISS:          0
cpu3_L1I LOAD         ACCESS:          0 HIT:          0 MISS:          0
cpu3_L1I RFO          ACCESS:          0 HIT:          0 MISS:          0
cpu3_L1I PREFETCH     ACCESS:          0 HIT:          0 MISS:          0
cpu3_L1I WRITE        ACCESS:          0 HIT:          0 MISS:          0
cpu3_L1I TRANSLATION  ACCESS:          0 HIT:          0 MISS:          0
cpu3_L1I PREFETCH REQUESTED:          0 ISSUED:          0 USEFUL:          0 USELESS:          0
cpu3_L1I AVERAGE MISS LATENCY: 50.56 cycles
cpu3_L1I TOTAL        ACCESS:          0 HIT:          0 MISS:          0
cpu3_L1I LOAD         ACCESS:          0 HIT:          0 MISS:          0
cpu3_L1I RFO          ACCESS:          0 HIT:          0 MISS:          0
cpu3_L1I PREFETCH     ACCESS:          0 HIT:          0 MISS:          0
cpu3_L1I WRITE        ACCESS:          0 HIT:          0 MISS:          0
cpu3_L1I TRANSLATION  ACCESS:          0 HIT:          0 MISS:          0
cpu3_L1I PREFETCH REQUESTED:          0 ISSUED:          0 USEFUL:          0 USELESS:          0
cpu3_L1I AVERAGE MISS LATENCY: 50.56 cycles
cpu3_L1I TOTAL        ACCESS:          0 HIT:          0 MISS:          0
cpu3_L1I LOAD         ACCESS:          0 HIT:          0 MISS:          0
cpu3_L1I RFO          ACCESS:          0 HIT:          0 MISS:          0
cpu3_L1I PREFETCH     ACCESS:          0 HIT:          0 MISS:          0
cpu3_L1I WRITE        ACCESS:          0 HIT:          0 MISS:          0
cpu3_L1I TRANSLATION  ACCESS:          0 HIT:          0 MISS:          0
cpu3_L1I PREFETCH REQUESTED:          0 ISSUED:          0 USEFUL:          0 USELESS:          0
cpu3_L1I AVERAGE MISS LATENCY: 50.56 cycles
cpu3_L1I TOTAL        ACCESS:    2235164 HIT:    1467308 MISS:     767856
cpu3_L1I LOAD         ACCESS:    2235164 HIT:    1467308 MISS:     767856
cpu3_L1I RFO          ACCESS:          0 HIT:          0 MISS:          0
cpu3_L1I PREFETCH     ACCESS:          0 HIT:          0 MISS:          0
cpu3_L1I WRITE        ACCESS:          0 HIT:          0 MISS:          0
cpu3_L1I TRANSLATION  ACCESS:          0 HIT:          0 MISS:          0
cpu3_L1I PREFETCH REQUESTED:          0 ISSUED:          0 USEFUL:          0 USELESS:          0
cpu3_L1I AVERAGE MISS LATENCY: 50.56 cycles
cpu3_L2C TOTAL        ACCESS:          0 HIT:          0 MISS:          0
cpu3_L2C LOAD         ACCESS:          0 HIT:          0 MISS:          0
cpu3_L2C RFO          ACCESS:          0 HIT:          0 MISS:          0
cpu3_L2C PREFETCH     ACCESS:          0 HIT:          0 MISS:          0
cpu3_L2C WRITE        ACCESS:          0 HIT:          0 MISS:          0
cpu3_L2C TRANSLATION  ACCESS:          0 HIT:          0 MISS:          0
cpu3_L2C PREFETCH REQUESTED:          0 ISSUED:          0 USEFUL:          0 USELESS:          0
cpu3_L2C AVERAGE MISS LATENCY: 688.8 cycles
cpu3_L2C TOTAL        ACCESS:          0 HIT:          0 MISS:          0
cpu3_L2C LOAD         ACCESS:          0 HIT:          0 MISS:          0
cpu3_L2C RFO          ACCESS:          0 HIT:          0 MISS:          0
cpu3_L2C PREFETCH     ACCESS:          0 HIT:          0 MISS:          0
cpu3_L2C WRITE        ACCESS:          0 HIT:          0 MISS:          0
cpu3_L2C TRANSLATION  ACCESS:          0 HIT:          0 MISS:          0
cpu3_L2C PREFETCH REQUESTED:          0 ISSUED:          0 USEFUL:          0 USELESS:          0
cpu3_L2C AVERAGE MISS LATENCY: 688.8 cycles
cpu3_L2C TOTAL        ACCESS:          0 HIT:          0 MISS:          0
cpu3_L2C LOAD         ACCESS:          0 HIT:          0 MISS:          0
cpu3_L2C RFO          ACCESS:          0 HIT:          0 MISS:          0
cpu3_L2C PREFETCH     ACCESS:          0 HIT:          0 MISS:          0
cpu3_L2C WRITE        ACCESS:          0 HIT:          0 MISS:          0
cpu3_L2C TRANSLATION  ACCESS:          0 HIT:          0 MISS:          0
cpu3_L2C PREFETCH REQUESTED:          0 ISSUED:          0 USEFUL:          0 USELESS:          0
cpu3_L2C AVERAGE MISS LATENCY: 688.8 cycles
cpu3_L2C TOTAL        ACCESS:    4869417 HIT:    1047136 MISS:    3822281
cpu3_L2C LOAD         ACCESS:    4480132 HIT:     875111 MISS:    3605021
cpu3_L2C RFO          ACCESS:      63205 HIT:      23591 MISS:      39614
cpu3_L2C PREFETCH     ACCESS:          0 HIT:          0 MISS:          0
cpu3_L2C WRITE        ACCESS:     119883 HIT:     119326 MISS:        557
cpu3_L2C TRANSLATION  ACCESS:     206197 HIT:      29108 MISS:     177089
cpu3_L2C PREFETCH REQUESTED:          0 ISSUED:          0 USEFUL:          0 USELESS:          0
cpu3_L2C AVERAGE MISS LATENCY: 688.8 cycles
cpu3_STLB TOTAL        ACCESS:          0 HIT:          0 MISS:          0
cpu3_STLB LOAD         ACCESS:          0 HIT:          0 MISS:          0
cpu3_STLB RFO          ACCESS:          0 HIT:          0 MISS:          0
cpu3_STLB PREFETCH     ACCESS:          0 HIT:          0 MISS:          0
cpu3_STLB WRITE        ACCESS:          0 HIT:          0 MISS:          0
cpu3_STLB TRANSLATION  ACCESS:          0 HIT:          0 MISS:          0
cpu3_STLB PREFETCH REQUESTED:          0 ISSUED:          0 USEFUL:          0 USELESS:          0
cpu3_STLB AVERAGE MISS LATENCY: 183.8 cycles
cpu3_STLB TOTAL        ACCESS:          0 HIT:          0 MISS:          0
cpu3_STLB LOAD         ACCESS:          0 HIT:          0 MISS:          0
cpu3_STLB RFO          ACCESS:          0 HIT:          0 MISS:          0
cpu3_STLB PREFETCH     ACCESS:          0 HIT:          0 MISS:          0
cpu3_STLB WRITE        ACCESS:          0 HIT:          0 MISS:          0
cpu3_STLB TRANSLATION  ACCESS:          0 HIT:          0 MISS:          0
cpu3_STLB PREFETCH REQUESTED:          0 ISSUED:          0 USEFUL:          0 USELESS:          0
cpu3_STLB AVERAGE MISS LATENCY: 183.8 cycles
cpu3_STLB TOTAL        ACCESS:          0 HIT:          0 MISS:          0
cpu3_STLB LOAD         ACCESS:          0 HIT:          0 MISS:          0
cpu3_STLB RFO          ACCESS:          0 HIT:          0 MISS:          0
cpu3_STLB PREFETCH     ACCESS:          0 HIT:          0 MISS:          0
cpu3_STLB WRITE        ACCESS:          0 HIT:          0 MISS:          0
cpu3_STLB TRANSLATION  ACCESS:          0 HIT:          0 MISS:          0
cpu3_STLB PREFETCH REQUESTED:          0 ISSUED:          0 USEFUL:          0 USELESS:          0
cpu3_STLB AVERAGE MISS LATENCY: 183.8 cycles
cpu3_STLB TOTAL        ACCESS:    1076959 HIT:     360938 MISS:     716021
cpu3_STLB LOAD         ACCESS:    1076959 HIT:     360938 MISS:     716021
cpu3_STLB RFO          ACCESS:          0 HIT:          0 MISS:          0
cpu3_STLB PREFETCH     ACCESS:          0 HIT:          0 MISS:          0
cpu3_STLB WRITE        ACCESS:          0 HIT:          0 MISS:          0
cpu3_STLB TRANSLATION  ACCESS:          0 HIT:          0 MISS:          0
cpu3_STLB PREFETCH REQUESTED:          0 ISSUED:          0 USEFUL:          0 USELESS:          0
cpu3_STLB AVERAGE MISS LATENCY: 183.8 cycles

DRAM Statistics

Channel 0 RQ ROW_BUFFER_HIT:    2766537
  ROW_BUFFER_MISS:   20171762
 AVG DBUS CONGESTED CYCLE: 3.99
WQ ROW_BUFFER_HIT: Channel 0 
  ROW_BUFFER_MISS:      58032
  FULL:    4477879
