Original cmd-> /home/grads/r/rdas40/ECEN676/ChampSim/bin/multi_core/nopref_2ch --warmup_instructions=50000000 --simulation_instructions=150000000  /home/grads/r/rdas40/dpc3_traces/619.lbm_s-4268B.champsimtrace.xz /home/grads/r/rdas40/dpc3_traces/607.cactuBSSN_s-2421B.champsimtrace.xz /home/grads/r/rdas40/dpc3_traces/627.cam4_s-573B.champsimtrace.xz /home/grads/r/rdas40/dpc3_traces/621.wrf_s-575B.champsimtrace.xz
WARNING: physical memory size is smaller than virtual memory size.
WARNING: option --warmup_instructions is deprecated. Use --warmup-instructions instead.
WARNING: option --simulation_instructions is deprecated. Use --simulation-instructions instead.

*** ChampSim Multicore Out-of-Order Simulator ***
Warmup Instructions: 50000000
Simulation Instructions: 150000000
Number of CPUs: 4
Page size: 4096

Off-chip DRAM Size: 8 GiB Channels: 2 Width: 64-bit Data Race: 3200 MT/s
Heartbeat CPU 3 instructions: 10000001 cycles: 2502764 heartbeat IPC: 3.996 cumulative IPC: 3.996 (Simulation time: 00 hr 02 min 56 sec)
Heartbeat CPU 2 instructions: 10000002 cycles: 2724909 heartbeat IPC: 3.67 cumulative IPC: 3.67 (Simulation time: 00 hr 03 min 12 sec)
Heartbeat CPU 0 instructions: 10000002 cycles: 3386574 heartbeat IPC: 2.953 cumulative IPC: 2.953 (Simulation time: 00 hr 04 min 00 sec)
Heartbeat CPU 1 instructions: 10000001 cycles: 3680997 heartbeat IPC: 2.717 cumulative IPC: 2.717 (Simulation time: 00 hr 04 min 21 sec)
Heartbeat CPU 3 instructions: 20000000 cycles: 5005381 heartbeat IPC: 3.996 cumulative IPC: 3.996 (Simulation time: 00 hr 05 min 56 sec)
Heartbeat CPU 2 instructions: 20000003 cycles: 5241653 heartbeat IPC: 3.973 cumulative IPC: 3.816 (Simulation time: 00 hr 06 min 13 sec)
Heartbeat CPU 0 instructions: 20000003 cycles: 6766094 heartbeat IPC: 2.959 cumulative IPC: 2.956 (Simulation time: 00 hr 08 min 02 sec)
Heartbeat CPU 1 instructions: 20000000 cycles: 7363521 heartbeat IPC: 2.716 cumulative IPC: 2.716 (Simulation time: 00 hr 08 min 44 sec)
Heartbeat CPU 3 instructions: 30000001 cycles: 7507708 heartbeat IPC: 3.996 cumulative IPC: 3.996 (Simulation time: 00 hr 08 min 55 sec)
Heartbeat CPU 2 instructions: 30000000 cycles: 7758008 heartbeat IPC: 3.974 cumulative IPC: 3.867 (Simulation time: 00 hr 09 min 13 sec)
Heartbeat CPU 3 instructions: 40000001 cycles: 10010384 heartbeat IPC: 3.996 cumulative IPC: 3.996 (Simulation time: 00 hr 11 min 52 sec)
Heartbeat CPU 0 instructions: 30000001 cycles: 10129835 heartbeat IPC: 2.973 cumulative IPC: 2.962 (Simulation time: 00 hr 12 min 01 sec)
Heartbeat CPU 2 instructions: 40000002 cycles: 10280758 heartbeat IPC: 3.964 cumulative IPC: 3.891 (Simulation time: 00 hr 12 min 12 sec)
Heartbeat CPU 1 instructions: 30000004 cycles: 11043578 heartbeat IPC: 2.717 cumulative IPC: 2.717 (Simulation time: 00 hr 13 min 06 sec)
Heartbeat CPU 3 instructions: 50000002 cycles: 12513112 heartbeat IPC: 3.996 cumulative IPC: 3.996 (Simulation time: 00 hr 14 min 53 sec)
Warmup finished CPU 3 instructions: 50000002 cycles: 12513113 cumulative IPC: 3.996 (Simulation time: 00 hr 14 min 53 sec)
Heartbeat CPU 2 instructions: 50000001 cycles: 12834745 heartbeat IPC: 3.915 cumulative IPC: 3.896 (Simulation time: 00 hr 15 min 17 sec)
Warmup finished CPU 2 instructions: 50000001 cycles: 12834746 cumulative IPC: 3.896 (Simulation time: 00 hr 15 min 17 sec)
Heartbeat CPU 0 instructions: 40000003 cycles: 13527619 heartbeat IPC: 2.943 cumulative IPC: 2.957 (Simulation time: 00 hr 16 min 07 sec)
Heartbeat CPU 1 instructions: 40000000 cycles: 14723054 heartbeat IPC: 2.718 cumulative IPC: 2.717 (Simulation time: 00 hr 17 min 34 sec)
Heartbeat CPU 3 instructions: 60000002 cycles: 15015794 heartbeat IPC: 3.996 cumulative IPC: 3.996 (Simulation time: 00 hr 17 min 55 sec)
Heartbeat CPU 2 instructions: 60000000 cycles: 15394659 heartbeat IPC: 3.906 cumulative IPC: 3.897 (Simulation time: 00 hr 18 min 23 sec)
Heartbeat CPU 0 instructions: 50000002 cycles: 16930628 heartbeat IPC: 2.939 cumulative IPC: 2.953 (Simulation time: 00 hr 20 min 15 sec)
Warmup finished CPU 0 instructions: 50000002 cycles: 16930629 cumulative IPC: 2.953 (Simulation time: 00 hr 20 min 15 sec)
Heartbeat CPU 3 instructions: 70000003 cycles: 17520631 heartbeat IPC: 3.992 cumulative IPC: 3.995 (Simulation time: 00 hr 20 min 57 sec)
Heartbeat CPU 2 instructions: 70000003 cycles: 17935506 heartbeat IPC: 3.936 cumulative IPC: 3.903 (Simulation time: 00 hr 21 min 27 sec)
Heartbeat CPU 1 instructions: 50000002 cycles: 18404502 heartbeat IPC: 2.716 cumulative IPC: 2.717 (Simulation time: 00 hr 22 min 00 sec)
Warmup finished CPU 1 instructions: 50000002 cycles: 18404503 cumulative IPC: 2.717 (Simulation time: 00 hr 22 min 00 sec)
Warmup complete CPU 0 instructions: 54293787 cycles: 18404503 cumulative IPC: 2.95 (Simulation time: 00 hr 22 min 00 sec)
Warmup complete CPU 1 instructions: 50000002 cycles: 18404503 cumulative IPC: 2.717 (Simulation time: 00 hr 22 min 00 sec)
Warmup complete CPU 2 instructions: 71866645 cycles: 18404503 cumulative IPC: 3.905 (Simulation time: 00 hr 22 min 00 sec)
Warmup complete CPU 3 instructions: 73535487 cycles: 18404503 cumulative IPC: 3.996 (Simulation time: 00 hr 22 min 00 sec)
Heartbeat CPU 3 instructions: 80000001 cycles: 21526026 heartbeat IPC: 2.497 cumulative IPC: 2.071 (Simulation time: 00 hr 24 min 18 sec)
Heartbeat CPU 2 instructions: 80000003 cycles: 24456749 heartbeat IPC: 1.533 cumulative IPC: 1.344 (Simulation time: 00 hr 26 min 30 sec)
Heartbeat CPU 3 instructions: 90000004 cycles: 26293334 heartbeat IPC: 2.098 cumulative IPC: 2.087 (Simulation time: 00 hr 27 min 53 sec)
Heartbeat CPU 2 instructions: 90000003 cycles: 28989213 heartbeat IPC: 2.206 cumulative IPC: 1.713 (Simulation time: 00 hr 30 min 04 sec)
Heartbeat CPU 3 instructions: 100000000 cycles: 31073463 heartbeat IPC: 2.092 cumulative IPC: 2.089 (Simulation time: 00 hr 31 min 36 sec)
Heartbeat CPU 1 instructions: 60000002 cycles: 33586549 heartbeat IPC: 0.6587 cumulative IPC: 0.6587 (Simulation time: 00 hr 33 min 21 sec)
Heartbeat CPU 3 instructions: 110000001 cycles: 35811591 heartbeat IPC: 2.111 cumulative IPC: 2.095 (Simulation time: 00 hr 34 min 52 sec)
Heartbeat CPU 3 instructions: 120000000 cycles: 40506528 heartbeat IPC: 2.13 cumulative IPC: 2.102 (Simulation time: 00 hr 38 min 15 sec)
Heartbeat CPU 0 instructions: 60000003 cycles: 43127554 heartbeat IPC: 0.3817 cumulative IPC: 0.2308 (Simulation time: 00 hr 40 min 09 sec)
Heartbeat CPU 3 instructions: 130000002 cycles: 45260234 heartbeat IPC: 2.104 cumulative IPC: 2.103 (Simulation time: 00 hr 41 min 37 sec)
Heartbeat CPU 2 instructions: 100000000 cycles: 45371077 heartbeat IPC: 0.6104 cumulative IPC: 1.043 (Simulation time: 00 hr 41 min 41 sec)
Heartbeat CPU 3 instructions: 140000000 cycles: 50128582 heartbeat IPC: 2.054 cumulative IPC: 2.095 (Simulation time: 00 hr 44 min 44 sec)
Heartbeat CPU 1 instructions: 70000004 cycles: 52566272 heartbeat IPC: 0.5269 cumulative IPC: 0.5854 (Simulation time: 00 hr 46 min 18 sec)
Heartbeat CPU 3 instructions: 150000004 cycles: 54900055 heartbeat IPC: 2.096 cumulative IPC: 2.095 (Simulation time: 00 hr 47 min 44 sec)
Heartbeat CPU 3 instructions: 160000003 cycles: 59672246 heartbeat IPC: 2.095 cumulative IPC: 2.095 (Simulation time: 00 hr 50 min 43 sec)
Heartbeat CPU 3 instructions: 170000003 cycles: 64430736 heartbeat IPC: 2.102 cumulative IPC: 2.096 (Simulation time: 00 hr 53 min 42 sec)
Heartbeat CPU 3 instructions: 180000004 cycles: 69166153 heartbeat IPC: 2.112 cumulative IPC: 2.097 (Simulation time: 00 hr 56 min 44 sec)
Heartbeat CPU 3 instructions: 190000002 cycles: 73935755 heartbeat IPC: 2.097 cumulative IPC: 2.097 (Simulation time: 00 hr 59 min 44 sec)
Heartbeat CPU 2 instructions: 110000001 cycles: 78225885 heartbeat IPC: 0.3044 cumulative IPC: 0.6375 (Simulation time: 01 hr 02 min 50 sec)
Heartbeat CPU 3 instructions: 200000000 cycles: 78741526 heartbeat IPC: 2.081 cumulative IPC: 2.096 (Simulation time: 01 hr 03 min 15 sec)
Heartbeat CPU 1 instructions: 80000000 cycles: 80193769 heartbeat IPC: 0.362 cumulative IPC: 0.4855 (Simulation time: 01 hr 04 min 18 sec)
Heartbeat CPU 3 instructions: 210000000 cycles: 83388110 heartbeat IPC: 2.152 cumulative IPC: 2.1 (Simulation time: 01 hr 06 min 53 sec)
Heartbeat CPU 2 instructions: 120000003 cycles: 83391786 heartbeat IPC: 1.936 cumulative IPC: 0.7407 (Simulation time: 01 hr 06 min 53 sec)
Heartbeat CPU 2 instructions: 130000001 cycles: 87073320 heartbeat IPC: 2.716 cumulative IPC: 0.8466 (Simulation time: 01 hr 09 min 58 sec)
Heartbeat CPU 3 instructions: 220000000 cycles: 88021852 heartbeat IPC: 2.158 cumulative IPC: 2.104 (Simulation time: 01 hr 10 min 46 sec)
Simulation finished CPU 3 instructions: 150000000 cycles: 71248264 cumulative IPC: 2.105 (Simulation time: 01 hr 12 min 10 sec)
Heartbeat CPU 2 instructions: 140000000 cycles: 90678390 heartbeat IPC: 2.774 cumulative IPC: 0.9427 (Simulation time: 01 hr 13 min 01 sec)
Heartbeat CPU 3 instructions: 230000001 cycles: 92692049 heartbeat IPC: 2.141 cumulative IPC: 2.106 (Simulation time: 01 hr 14 min 37 sec)
Heartbeat CPU 1 instructions: 90000001 cycles: 95161754 heartbeat IPC: 0.6681 cumulative IPC: 0.5211 (Simulation time: 01 hr 16 min 34 sec)
Heartbeat CPU 2 instructions: 150000003 cycles: 95916461 heartbeat IPC: 1.909 cumulative IPC: 1.008 (Simulation time: 01 hr 17 min 10 sec)
Heartbeat CPU 3 instructions: 240000000 cycles: 97363330 heartbeat IPC: 2.141 cumulative IPC: 2.108 (Simulation time: 01 hr 18 min 18 sec)
Heartbeat CPU 2 instructions: 160000000 cycles: 101357581 heartbeat IPC: 1.838 cumulative IPC: 1.062 (Simulation time: 01 hr 21 min 29 sec)
Heartbeat CPU 3 instructions: 250000002 cycles: 102018233 heartbeat IPC: 2.148 cumulative IPC: 2.11 (Simulation time: 01 hr 21 min 59 sec)
Heartbeat CPU 0 instructions: 70000000 cycles: 103060287 heartbeat IPC: 0.1669 cumulative IPC: 0.1855 (Simulation time: 01 hr 22 min 46 sec)
Heartbeat CPU 3 instructions: 260000000 cycles: 106758571 heartbeat IPC: 2.11 cumulative IPC: 2.11 (Simulation time: 01 hr 25 min 37 sec)
Heartbeat CPU 2 instructions: 170000000 cycles: 107275650 heartbeat IPC: 1.69 cumulative IPC: 1.104 (Simulation time: 01 hr 26 min 03 sec)
Heartbeat CPU 1 instructions: 100000001 cycles: 109362579 heartbeat IPC: 0.7042 cumulative IPC: 0.5497 (Simulation time: 01 hr 27 min 43 sec)
Heartbeat CPU 3 instructions: 270000000 cycles: 111442819 heartbeat IPC: 2.135 cumulative IPC: 2.112 (Simulation time: 01 hr 29 min 18 sec)
Heartbeat CPU 2 instructions: 180000000 cycles: 113394903 heartbeat IPC: 1.634 cumulative IPC: 1.138 (Simulation time: 01 hr 30 min 47 sec)
Heartbeat CPU 3 instructions: 280000001 cycles: 116131200 heartbeat IPC: 2.133 cumulative IPC: 2.113 (Simulation time: 01 hr 32 min 52 sec)
Heartbeat CPU 2 instructions: 190000003 cycles: 118346875 heartbeat IPC: 2.019 cumulative IPC: 1.182 (Simulation time: 01 hr 34 min 40 sec)
Heartbeat CPU 3 instructions: 290000004 cycles: 120821859 heartbeat IPC: 2.132 cumulative IPC: 2.114 (Simulation time: 01 hr 36 min 34 sec)
Heartbeat CPU 1 instructions: 110000003 cycles: 124078884 heartbeat IPC: 0.6795 cumulative IPC: 0.5678 (Simulation time: 01 hr 38 min 49 sec)
Heartbeat CPU 3 instructions: 300000000 cycles: 125497869 heartbeat IPC: 2.139 cumulative IPC: 2.115 (Simulation time: 01 hr 39 min 46 sec)
Heartbeat CPU 3 instructions: 310000001 cycles: 130183467 heartbeat IPC: 2.134 cumulative IPC: 2.115 (Simulation time: 01 hr 43 min 05 sec)
Heartbeat CPU 2 instructions: 200000004 cycles: 131148142 heartbeat IPC: 0.7812 cumulative IPC: 1.137 (Simulation time: 01 hr 43 min 46 sec)
Heartbeat CPU 3 instructions: 320000001 cycles: 134860155 heartbeat IPC: 2.138 cumulative IPC: 2.116 (Simulation time: 01 hr 46 min 23 sec)
Heartbeat CPU 3 instructions: 330000001 cycles: 139600431 heartbeat IPC: 2.11 cumulative IPC: 2.116 (Simulation time: 01 hr 49 min 24 sec)
Heartbeat CPU 1 instructions: 120000004 cycles: 143697415 heartbeat IPC: 0.5097 cumulative IPC: 0.5587 (Simulation time: 01 hr 51 min 38 sec)
Heartbeat CPU 3 instructions: 340000000 cycles: 151880037 heartbeat IPC: 0.8144 cumulative IPC: 1.996 (Simulation time: 01 hr 56 min 30 sec)
Heartbeat CPU 0 instructions: 80000003 cycles: 158356112 heartbeat IPC: 0.1808 cumulative IPC: 0.1837 (Simulation time: 02 hr 00 min 24 sec)
Heartbeat CPU 3 instructions: 350000002 cycles: 159744464 heartbeat IPC: 1.272 cumulative IPC: 1.956 (Simulation time: 02 hr 01 min 16 sec)
Heartbeat CPU 3 instructions: 360000002 cycles: 166603902 heartbeat IPC: 1.458 cumulative IPC: 1.933 (Simulation time: 02 hr 05 min 38 sec)
Heartbeat CPU 2 instructions: 210000003 cycles: 168352759 heartbeat IPC: 0.2688 cumulative IPC: 0.9212 (Simulation time: 02 hr 06 min 52 sec)
Heartbeat CPU 1 instructions: 130000001 cycles: 171568582 heartbeat IPC: 0.3588 cumulative IPC: 0.5223 (Simulation time: 02 hr 09 min 17 sec)
Heartbeat CPU 3 instructions: 370000000 cycles: 172576603 heartbeat IPC: 1.674 cumulative IPC: 1.923 (Simulation time: 02 hr 10 min 05 sec)
Heartbeat CPU 2 instructions: 220000001 cycles: 173815271 heartbeat IPC: 1.831 cumulative IPC: 0.9532 (Simulation time: 02 hr 11 min 06 sec)
Simulation finished CPU 2 instructions: 150000002 cycles: 156068541 cumulative IPC: 0.9611 (Simulation time: 02 hr 11 min 39 sec)
Heartbeat CPU 2 instructions: 230000001 cycles: 177439458 heartbeat IPC: 2.759 cumulative IPC: 0.9943 (Simulation time: 02 hr 14 min 07 sec)
Heartbeat CPU 3 instructions: 380000002 cycles: 178372050 heartbeat IPC: 1.725 cumulative IPC: 1.916 (Simulation time: 02 hr 14 min 54 sec)
Heartbeat CPU 2 instructions: 240000000 cycles: 181120045 heartbeat IPC: 2.717 cumulative IPC: 1.033 (Simulation time: 02 hr 17 min 07 sec)
Heartbeat CPU 2 instructions: 250000004 cycles: 186557517 heartbeat IPC: 1.839 cumulative IPC: 1.059 (Simulation time: 02 hr 20 min 57 sec)
Heartbeat CPU 1 instructions: 140000002 cycles: 189170267 heartbeat IPC: 0.5681 cumulative IPC: 0.527 (Simulation time: 02 hr 22 min 45 sec)
Heartbeat CPU 2 instructions: 260000004 cycles: 193531351 heartbeat IPC: 1.434 cumulative IPC: 1.074 (Simulation time: 02 hr 25 min 43 sec)
Heartbeat CPU 3 instructions: 390000001 cycles: 196636637 heartbeat IPC: 0.5475 cumulative IPC: 1.776 (Simulation time: 02 hr 27 min 57 sec)
Heartbeat CPU 2 instructions: 270000000 cycles: 199502896 heartbeat IPC: 1.675 cumulative IPC: 1.094 (Simulation time: 02 hr 30 min 14 sec)
Heartbeat CPU 3 instructions: 400000000 cycles: 203869499 heartbeat IPC: 1.383 cumulative IPC: 1.76 (Simulation time: 02 hr 33 min 43 sec)
Heartbeat CPU 2 instructions: 280000001 cycles: 205271450 heartbeat IPC: 1.734 cumulative IPC: 1.114 (Simulation time: 02 hr 34 min 49 sec)
Heartbeat CPU 1 instructions: 150000004 cycles: 207026706 heartbeat IPC: 0.56 cumulative IPC: 0.5302 (Simulation time: 02 hr 36 min 08 sec)
Heartbeat CPU 3 instructions: 410000003 cycles: 211188322 heartbeat IPC: 1.366 cumulative IPC: 1.745 (Simulation time: 02 hr 39 min 24 sec)
Heartbeat CPU 2 instructions: 290000002 cycles: 211638840 heartbeat IPC: 1.571 cumulative IPC: 1.129 (Simulation time: 02 hr 39 min 47 sec)
Heartbeat CPU 0 instructions: 90000003 cycles: 213193554 heartbeat IPC: 0.1824 cumulative IPC: 0.1833 (Simulation time: 02 hr 41 min 05 sec)
Heartbeat CPU 3 instructions: 420000000 cycles: 218791004 heartbeat IPC: 1.315 cumulative IPC: 1.729 (Simulation time: 02 hr 45 min 11 sec)
Heartbeat CPU 2 instructions: 300000002 cycles: 220620033 heartbeat IPC: 1.113 cumulative IPC: 1.128 (Simulation time: 02 hr 46 min 26 sec)
Heartbeat CPU 1 instructions: 160000003 cycles: 222391960 heartbeat IPC: 0.6508 cumulative IPC: 0.5392 (Simulation time: 02 hr 47 min 39 sec)
Heartbeat CPU 3 instructions: 430000001 cycles: 226781152 heartbeat IPC: 1.252 cumulative IPC: 1.711 (Simulation time: 02 hr 50 min 55 sec)
Heartbeat CPU 3 instructions: 440000003 cycles: 237510045 heartbeat IPC: 0.9321 cumulative IPC: 1.673 (Simulation time: 02 hr 57 min 48 sec)
Heartbeat CPU 1 instructions: 170000000 cycles: 246130602 heartbeat IPC: 0.4213 cumulative IPC: 0.5269 (Simulation time: 03 hr 02 min 55 sec)
Heartbeat CPU 3 instructions: 450000000 cycles: 252751327 heartbeat IPC: 0.6561 cumulative IPC: 1.606 (Simulation time: 03 hr 06 min 53 sec)
Heartbeat CPU 2 instructions: 310000000 cycles: 262388662 heartbeat IPC: 0.2394 cumulative IPC: 0.976 (Simulation time: 03 hr 12 min 50 sec)
Heartbeat CPU 3 instructions: 460000004 cycles: 265074828 heartbeat IPC: 0.8115 cumulative IPC: 1.567 (Simulation time: 03 hr 14 min 44 sec)
Heartbeat CPU 2 instructions: 320000004 cycles: 268873647 heartbeat IPC: 1.542 cumulative IPC: 0.9907 (Simulation time: 03 hr 17 min 38 sec)
Heartbeat CPU 1 instructions: 180000001 cycles: 271136237 heartbeat IPC: 0.3999 cumulative IPC: 0.5144 (Simulation time: 03 hr 19 min 32 sec)
Heartbeat CPU 2 instructions: 330000002 cycles: 272563709 heartbeat IPC: 2.71 cumulative IPC: 1.016 (Simulation time: 03 hr 20 min 45 sec)
Heartbeat CPU 3 instructions: 470000001 cycles: 272859552 heartbeat IPC: 1.285 cumulative IPC: 1.558 (Simulation time: 03 hr 21 min 02 sec)
Heartbeat CPU 2 instructions: 340000004 cycles: 276164448 heartbeat IPC: 2.777 cumulative IPC: 1.04 (Simulation time: 03 hr 23 min 51 sec)
Heartbeat CPU 0 instructions: 100000003 cycles: 278027016 heartbeat IPC: 0.1542 cumulative IPC: 0.176 (Simulation time: 03 hr 25 min 22 sec)
Heartbeat CPU 2 instructions: 350000004 cycles: 280520311 heartbeat IPC: 2.296 cumulative IPC: 1.061 (Simulation time: 03 hr 27 min 26 sec)
Heartbeat CPU 3 instructions: 480000000 cycles: 280591616 heartbeat IPC: 1.293 cumulative IPC: 1.55 (Simulation time: 03 hr 27 min 29 sec)
Heartbeat CPU 2 instructions: 360000001 cycles: 285499800 heartbeat IPC: 2.008 cumulative IPC: 1.079 (Simulation time: 03 hr 31 min 23 sec)
Heartbeat CPU 1 instructions: 190000002 cycles: 286461027 heartbeat IPC: 0.6525 cumulative IPC: 0.5223 (Simulation time: 03 hr 32 min 05 sec)
Heartbeat CPU 2 instructions: 370000001 cycles: 291254100 heartbeat IPC: 1.738 cumulative IPC: 1.093 (Simulation time: 03 hr 35 min 44 sec)
Heartbeat CPU 3 instructions: 490000002 cycles: 291335937 heartbeat IPC: 0.9307 cumulative IPC: 1.526 (Simulation time: 03 hr 35 min 48 sec)
Heartbeat CPU 2 instructions: 380000002 cycles: 296947831 heartbeat IPC: 1.756 cumulative IPC: 1.106 (Simulation time: 03 hr 40 min 10 sec)
Heartbeat CPU 3 instructions: 500000000 cycles: 298510435 heartbeat IPC: 1.394 cumulative IPC: 1.523 (Simulation time: 03 hr 41 min 27 sec)
Heartbeat CPU 1 instructions: 200000002 cycles: 302520088 heartbeat IPC: 0.6227 cumulative IPC: 0.528 (Simulation time: 03 hr 44 min 28 sec)
Simulation finished CPU 1 instructions: 150000000 cycles: 284115586 cumulative IPC: 0.528 (Simulation time: 03 hr 44 min 28 sec)
Heartbeat CPU 2 instructions: 390000000 cycles: 303466992 heartbeat IPC: 1.534 cumulative IPC: 1.116 (Simulation time: 03 hr 45 min 13 sec)
Heartbeat CPU 3 instructions: 510000002 cycles: 305369040 heartbeat IPC: 1.458 cumulative IPC: 1.521 (Simulation time: 03 hr 46 min 41 sec)
Heartbeat CPU 2 instructions: 400000001 cycles: 308137040 heartbeat IPC: 2.141 cumulative IPC: 1.133 (Simulation time: 03 hr 48 min 59 sec)
Heartbeat CPU 3 instructions: 520000000 cycles: 312371406 heartbeat IPC: 1.428 cumulative IPC: 1.519 (Simulation time: 03 hr 51 min 58 sec)
Heartbeat CPU 1 instructions: 210000003 cycles: 318661215 heartbeat IPC: 0.6195 cumulative IPC: 0.5329 (Simulation time: 03 hr 56 min 24 sec)
Heartbeat CPU 3 instructions: 530000003 cycles: 319316731 heartbeat IPC: 1.44 cumulative IPC: 1.517 (Simulation time: 03 hr 56 min 53 sec)
Heartbeat CPU 0 instructions: 110000002 cycles: 325146904 heartbeat IPC: 0.2122 cumulative IPC: 0.1816 (Simulation time: 04 hr 01 min 03 sec)
Heartbeat CPU 3 instructions: 540000000 cycles: 326499103 heartbeat IPC: 1.392 cumulative IPC: 1.514 (Simulation time: 04 hr 01 min 56 sec)
Heartbeat CPU 2 instructions: 410000000 cycles: 329325712 heartbeat IPC: 0.472 cumulative IPC: 1.088 (Simulation time: 04 hr 03 min 43 sec)
Heartbeat CPU 3 instructions: 550000002 cycles: 335247771 heartbeat IPC: 1.143 cumulative IPC: 1.504 (Simulation time: 04 hr 07 min 21 sec)
Heartbeat CPU 3 instructions: 560000001 cycles: 344086787 heartbeat IPC: 1.131 cumulative IPC: 1.494 (Simulation time: 04 hr 12 min 47 sec)
Heartbeat CPU 1 instructions: 220000000 cycles: 344646723 heartbeat IPC: 0.3848 cumulative IPC: 0.5211 (Simulation time: 04 hr 13 min 07 sec)
Heartbeat CPU 3 instructions: 570000004 cycles: 353169346 heartbeat IPC: 1.101 cumulative IPC: 1.483 (Simulation time: 04 hr 18 min 23 sec)
Heartbeat CPU 3 instructions: 580000000 cycles: 361821078 heartbeat IPC: 1.156 cumulative IPC: 1.475 (Simulation time: 04 hr 23 min 57 sec)
Heartbeat CPU 2 instructions: 420000002 cycles: 363314032 heartbeat IPC: 0.2942 cumulative IPC: 1.009 (Simulation time: 04 hr 25 min 07 sec)
Heartbeat CPU 2 instructions: 430000000 cycles: 368831886 heartbeat IPC: 1.812 cumulative IPC: 1.022 (Simulation time: 04 hr 29 min 23 sec)
Heartbeat CPU 3 instructions: 590000001 cycles: 368974550 heartbeat IPC: 1.398 cumulative IPC: 1.473 (Simulation time: 04 hr 29 min 31 sec)
Heartbeat CPU 1 instructions: 230000000 cycles: 370086454 heartbeat IPC: 0.3931 cumulative IPC: 0.5118 (Simulation time: 04 hr 30 min 27 sec)
Heartbeat CPU 2 instructions: 440000003 cycles: 372726861 heartbeat IPC: 2.567 cumulative IPC: 1.039 (Simulation time: 04 hr 32 min 39 sec)
Heartbeat CPU 3 instructions: 600000000 cycles: 375563633 heartbeat IPC: 1.518 cumulative IPC: 1.474 (Simulation time: 04 hr 35 min 02 sec)
Heartbeat CPU 2 instructions: 450000002 cycles: 376746668 heartbeat IPC: 2.488 cumulative IPC: 1.055 (Simulation time: 04 hr 36 min 00 sec)
Heartbeat CPU 2 instructions: 460000001 cycles: 381801208 heartbeat IPC: 1.978 cumulative IPC: 1.068 (Simulation time: 04 hr 40 min 03 sec)
Heartbeat CPU 3 instructions: 610000000 cycles: 382338688 heartbeat IPC: 1.476 cumulative IPC: 1.474 (Simulation time: 04 hr 40 min 28 sec)
Heartbeat CPU 1 instructions: 240000003 cycles: 386368479 heartbeat IPC: 0.6142 cumulative IPC: 0.5164 (Simulation time: 04 hr 43 min 29 sec)
Heartbeat CPU 2 instructions: 470000000 cycles: 387382077 heartbeat IPC: 1.792 cumulative IPC: 1.079 (Simulation time: 04 hr 44 min 15 sec)
Heartbeat CPU 2 instructions: 480000002 cycles: 393931596 heartbeat IPC: 1.527 cumulative IPC: 1.087 (Simulation time: 04 hr 48 min 54 sec)
Heartbeat CPU 0 instructions: 120000003 cycles: 396008717 heartbeat IPC: 0.1411 cumulative IPC: 0.174 (Simulation time: 04 hr 50 min 27 sec)
Heartbeat CPU 2 instructions: 490000001 cycles: 400880761 heartbeat IPC: 1.439 cumulative IPC: 1.093 (Simulation time: 04 hr 53 min 42 sec)
Heartbeat CPU 1 instructions: 250000003 cycles: 403981343 heartbeat IPC: 0.5678 cumulative IPC: 0.5187 (Simulation time: 04 hr 55 min 56 sec)
Heartbeat CPU 2 instructions: 500000000 cycles: 405749078 heartbeat IPC: 2.054 cumulative IPC: 1.105 (Simulation time: 04 hr 57 min 15 sec)
Heartbeat CPU 3 instructions: 620000003 cycles: 416538852 heartbeat IPC: 0.2924 cumulative IPC: 1.373 (Simulation time: 05 hr 03 min 59 sec)
Heartbeat CPU 1 instructions: 260000001 cycles: 423495996 heartbeat IPC: 0.5124 cumulative IPC: 0.5184 (Simulation time: 05 hr 08 min 27 sec)
Heartbeat CPU 2 instructions: 510000000 cycles: 427275061 heartbeat IPC: 0.4646 cumulative IPC: 1.072 (Simulation time: 05 hr 10 min 49 sec)
Heartbeat CPU 1 instructions: 270000000 cycles: 452876239 heartbeat IPC: 0.3404 cumulative IPC: 0.5064 (Simulation time: 05 hr 25 min 18 sec)
Heartbeat CPU 2 instructions: 520000003 cycles: 467252603 heartbeat IPC: 0.2501 cumulative IPC: 0.9984 (Simulation time: 05 hr 33 min 36 sec)
Heartbeat CPU 3 instructions: 630000003 cycles: 469840076 heartbeat IPC: 0.1876 cumulative IPC: 1.233 (Simulation time: 05 hr 35 min 21 sec)
Heartbeat CPU 2 instructions: 530000001 cycles: 472513366 heartbeat IPC: 1.901 cumulative IPC: 1.009 (Simulation time: 05 hr 37 min 20 sec)
Heartbeat CPU 0 instructions: 130000000 cycles: 473607791 heartbeat IPC: 0.1289 cumulative IPC: 0.1663 (Simulation time: 05 hr 38 min 09 sec)
Heartbeat CPU 1 instructions: 280000003 cycles: 476143451 heartbeat IPC: 0.4298 cumulative IPC: 0.5025 (Simulation time: 05 hr 40 min 08 sec)
Heartbeat CPU 2 instructions: 540000001 cycles: 476226569 heartbeat IPC: 2.693 cumulative IPC: 1.023 (Simulation time: 05 hr 40 min 12 sec)
Heartbeat CPU 2 instructions: 550000001 cycles: 480403335 heartbeat IPC: 2.394 cumulative IPC: 1.035 (Simulation time: 05 hr 43 min 21 sec)
Heartbeat CPU 2 instructions: 560000000 cycles: 485413985 heartbeat IPC: 1.996 cumulative IPC: 1.045 (Simulation time: 05 hr 47 min 00 sec)
Heartbeat CPU 2 instructions: 570000002 cycles: 491340865 heartbeat IPC: 1.687 cumulative IPC: 1.053 (Simulation time: 05 hr 51 min 13 sec)
Heartbeat CPU 1 instructions: 290000001 cycles: 492703962 heartbeat IPC: 0.6038 cumulative IPC: 0.506 (Simulation time: 05 hr 52 min 09 sec)
Heartbeat CPU 2 instructions: 580000003 cycles: 497464493 heartbeat IPC: 1.633 cumulative IPC: 1.061 (Simulation time: 05 hr 55 min 28 sec)
Heartbeat CPU 3 instructions: 640000000 cycles: 501291012 heartbeat IPC: 0.318 cumulative IPC: 1.173 (Simulation time: 05 hr 58 min 10 sec)
Heartbeat CPU 2 instructions: 590000000 cycles: 504135549 heartbeat IPC: 1.499 cumulative IPC: 1.067 (Simulation time: 06 hr 00 min 03 sec)
Heartbeat CPU 1 instructions: 300000001 cycles: 508941865 heartbeat IPC: 0.6158 cumulative IPC: 0.5096 (Simulation time: 06 hr 03 min 30 sec)
Heartbeat CPU 2 instructions: 600000001 cycles: 509148310 heartbeat IPC: 1.995 cumulative IPC: 1.076 (Simulation time: 06 hr 03 min 39 sec)
Heartbeat CPU 1 instructions: 310000001 cycles: 526785892 heartbeat IPC: 0.5604 cumulative IPC: 0.5114 (Simulation time: 06 hr 14 min 50 sec)
Heartbeat CPU 2 instructions: 610000003 cycles: 527118358 heartbeat IPC: 0.5565 cumulative IPC: 1.058 (Simulation time: 06 hr 15 min 03 sec)
Heartbeat CPU 0 instructions: 140000000 cycles: 527416080 heartbeat IPC: 0.1858 cumulative IPC: 0.1684 (Simulation time: 06 hr 15 min 14 sec)
Heartbeat CPU 3 instructions: 650000004 cycles: 555859461 heartbeat IPC: 0.1833 cumulative IPC: 1.073 (Simulation time: 06 hr 30 min 38 sec)
Heartbeat CPU 1 instructions: 320000000 cycles: 558165409 heartbeat IPC: 0.3187 cumulative IPC: 0.5002 (Simulation time: 06 hr 31 min 53 sec)
Heartbeat CPU 2 instructions: 620000003 cycles: 568323310 heartbeat IPC: 0.2427 cumulative IPC: 0.9968 (Simulation time: 06 hr 37 min 48 sec)
Heartbeat CPU 2 instructions: 630000002 cycles: 573502146 heartbeat IPC: 1.931 cumulative IPC: 1.005 (Simulation time: 06 hr 41 min 22 sec)
Heartbeat CPU 2 instructions: 640000004 cycles: 577223351 heartbeat IPC: 2.687 cumulative IPC: 1.017 (Simulation time: 06 hr 44 min 07 sec)
Heartbeat CPU 1 instructions: 330000001 cycles: 578129101 heartbeat IPC: 0.5009 cumulative IPC: 0.5002 (Simulation time: 06 hr 44 min 48 sec)
Heartbeat CPU 2 instructions: 650000000 cycles: 581663951 heartbeat IPC: 2.252 cumulative IPC: 1.026 (Simulation time: 06 hr 47 min 22 sec)
Heartbeat CPU 3 instructions: 660000001 cycles: 583525629 heartbeat IPC: 0.3615 cumulative IPC: 1.038 (Simulation time: 06 hr 48 min 41 sec)
Heartbeat CPU 2 instructions: 660000001 cycles: 587332828 heartbeat IPC: 1.764 cumulative IPC: 1.034 (Simulation time: 06 hr 51 min 32 sec)
Heartbeat CPU 2 instructions: 670000000 cycles: 593267202 heartbeat IPC: 1.685 cumulative IPC: 1.04 (Simulation time: 06 hr 56 min 01 sec)
Heartbeat CPU 1 instructions: 340000003 cycles: 593584785 heartbeat IPC: 0.647 cumulative IPC: 0.5042 (Simulation time: 06 hr 56 min 15 sec)
Heartbeat CPU 0 instructions: 150000000 cycles: 596108719 heartbeat IPC: 0.1456 cumulative IPC: 0.1657 (Simulation time: 06 hr 58 min 16 sec)
Heartbeat CPU 2 instructions: 680000001 cycles: 599301866 heartbeat IPC: 1.657 cumulative IPC: 1.047 (Simulation time: 07 hr 00 min 32 sec)
Heartbeat CPU 2 instructions: 690000001 cycles: 605050335 heartbeat IPC: 1.74 cumulative IPC: 1.054 (Simulation time: 07 hr 04 min 48 sec)
Heartbeat CPU 1 instructions: 350000002 cycles: 609569132 heartbeat IPC: 0.6256 cumulative IPC: 0.5075 (Simulation time: 07 hr 08 min 05 sec)
Heartbeat CPU 3 instructions: 670000002 cycles: 610660507 heartbeat IPC: 0.3685 cumulative IPC: 1.007 (Simulation time: 07 hr 08 min 47 sec)
Heartbeat CPU 2 instructions: 700000000 cycles: 621481796 heartbeat IPC: 0.6086 cumulative IPC: 1.042 (Simulation time: 07 hr 15 min 41 sec)
Heartbeat CPU 1 instructions: 360000004 cycles: 628334274 heartbeat IPC: 0.5329 cumulative IPC: 0.5083 (Simulation time: 07 hr 20 min 04 sec)
Heartbeat CPU 1 instructions: 370000001 cycles: 662330717 heartbeat IPC: 0.2941 cumulative IPC: 0.497 (Simulation time: 07 hr 39 min 53 sec)
Heartbeat CPU 2 instructions: 710000000 cycles: 666477228 heartbeat IPC: 0.2222 cumulative IPC: 0.9847 (Simulation time: 07 hr 42 min 19 sec)
Heartbeat CPU 2 instructions: 720000002 cycles: 673680772 heartbeat IPC: 1.388 cumulative IPC: 0.9891 (Simulation time: 07 hr 47 min 02 sec)
Heartbeat CPU 0 instructions: 160000003 cycles: 676072406 heartbeat IPC: 0.1251 cumulative IPC: 0.1607 (Simulation time: 07 hr 48 min 56 sec)
Heartbeat CPU 2 instructions: 730000003 cycles: 677675962 heartbeat IPC: 2.503 cumulative IPC: 0.9983 (Simulation time: 07 hr 50 min 12 sec)
Heartbeat CPU 3 instructions: 680000001 cycles: 682091272 heartbeat IPC: 0.14 cumulative IPC: 0.9138 (Simulation time: 07 hr 53 min 43 sec)
Heartbeat CPU 2 instructions: 740000002 cycles: 682301487 heartbeat IPC: 2.162 cumulative IPC: 1.006 (Simulation time: 07 hr 53 min 52 sec)
Heartbeat CPU 1 instructions: 380000001 cycles: 683135244 heartbeat IPC: 0.4807 cumulative IPC: 0.4964 (Simulation time: 07 hr 54 min 31 sec)
Heartbeat CPU 2 instructions: 750000003 cycles: 687790586 heartbeat IPC: 1.822 cumulative IPC: 1.013 (Simulation time: 07 hr 58 min 05 sec)
Heartbeat CPU 2 instructions: 760000000 cycles: 693418987 heartbeat IPC: 1.777 cumulative IPC: 1.019 (Simulation time: 08 hr 02 min 27 sec)
Heartbeat CPU 1 instructions: 390000004 cycles: 698220449 heartbeat IPC: 0.6629 cumulative IPC: 0.5001 (Simulation time: 08 hr 06 min 06 sec)
Heartbeat CPU 2 instructions: 770000003 cycles: 699681335 heartbeat IPC: 1.597 cumulative IPC: 1.025 (Simulation time: 08 hr 07 min 08 sec)
Heartbeat CPU 2 instructions: 780000001 cycles: 705097306 heartbeat IPC: 1.846 cumulative IPC: 1.031 (Simulation time: 08 hr 11 min 16 sec)
Heartbeat CPU 3 instructions: 690000001 cycles: 706938634 heartbeat IPC: 0.4025 cumulative IPC: 0.8953 (Simulation time: 08 hr 12 min 44 sec)
Heartbeat CPU 1 instructions: 400000003 cycles: 713474432 heartbeat IPC: 0.6556 cumulative IPC: 0.5035 (Simulation time: 08 hr 17 min 06 sec)
Heartbeat CPU 2 instructions: 790000004 cycles: 716573844 heartbeat IPC: 0.8713 cumulative IPC: 1.029 (Simulation time: 08 hr 19 min 16 sec)
Heartbeat CPU 0 instructions: 170000002 cycles: 721887245 heartbeat IPC: 0.2183 cumulative IPC: 0.1645 (Simulation time: 08 hr 22 min 59 sec)
Heartbeat CPU 1 instructions: 410000002 cycles: 734406789 heartbeat IPC: 0.4777 cumulative IPC: 0.5028 (Simulation time: 08 hr 30 min 29 sec)
Heartbeat CPU 3 instructions: 700000002 cycles: 743740222 heartbeat IPC: 0.2717 cumulative IPC: 0.8637 (Simulation time: 08 hr 36 min 00 sec)
Heartbeat CPU 2 instructions: 800000000 cycles: 757056549 heartbeat IPC: 0.247 cumulative IPC: 0.9858 (Simulation time: 08 hr 44 min 03 sec)
Heartbeat CPU 1 instructions: 420000000 cycles: 761624384 heartbeat IPC: 0.3674 cumulative IPC: 0.4978 (Simulation time: 08 hr 47 min 24 sec)
Heartbeat CPU 2 instructions: 810000002 cycles: 762479177 heartbeat IPC: 1.844 cumulative IPC: 0.992 (Simulation time: 08 hr 48 min 05 sec)
Heartbeat CPU 2 instructions: 820000003 cycles: 766181168 heartbeat IPC: 2.701 cumulative IPC: 1 (Simulation time: 08 hr 51 min 06 sec)
Heartbeat CPU 2 instructions: 830000001 cycles: 771100415 heartbeat IPC: 2.033 cumulative IPC: 1.007 (Simulation time: 08 hr 54 min 55 sec)
Heartbeat CPU 2 instructions: 840000001 cycles: 776043929 heartbeat IPC: 2.023 cumulative IPC: 1.014 (Simulation time: 08 hr 58 min 49 sec)
Heartbeat CPU 1 instructions: 430000002 cycles: 777013542 heartbeat IPC: 0.6498 cumulative IPC: 0.5009 (Simulation time: 08 hr 59 min 34 sec)
Heartbeat CPU 3 instructions: 710000002 cycles: 778227530 heartbeat IPC: 0.29 cumulative IPC: 0.8376 (Simulation time: 09 hr 00 min 31 sec)
Heartbeat CPU 2 instructions: 850000003 cycles: 781507899 heartbeat IPC: 1.83 cumulative IPC: 1.02 (Simulation time: 09 hr 03 min 03 sec)
Heartbeat CPU 0 instructions: 180000002 cycles: 786337054 heartbeat IPC: 0.1552 cumulative IPC: 0.1637 (Simulation time: 09 hr 06 min 47 sec)
Heartbeat CPU 2 instructions: 860000001 cycles: 787256731 heartbeat IPC: 1.739 cumulative IPC: 1.025 (Simulation time: 09 hr 07 min 28 sec)
Heartbeat CPU 1 instructions: 440000003 cycles: 792331520 heartbeat IPC: 0.6528 cumulative IPC: 0.5039 (Simulation time: 09 hr 11 min 11 sec)
Heartbeat CPU 2 instructions: 870000000 cycles: 793499490 heartbeat IPC: 1.602 cumulative IPC: 1.03 (Simulation time: 09 hr 12 min 06 sec)
Heartbeat CPU 3 instructions: 720000000 cycles: 802718851 heartbeat IPC: 0.4083 cumulative IPC: 0.8242 (Simulation time: 09 hr 18 min 32 sec)
Heartbeat CPU 2 instructions: 880000000 cycles: 804852146 heartbeat IPC: 0.8809 cumulative IPC: 1.028 (Simulation time: 09 hr 19 min 58 sec)
Heartbeat CPU 1 instructions: 450000000 cycles: 807825583 heartbeat IPC: 0.6454 cumulative IPC: 0.5067 (Simulation time: 09 hr 22 min 06 sec)
Heartbeat CPU 1 instructions: 460000001 cycles: 835427658 heartbeat IPC: 0.3623 cumulative IPC: 0.5018 (Simulation time: 09 hr 38 min 39 sec)
Heartbeat CPU 2 instructions: 890000004 cycles: 844539975 heartbeat IPC: 0.252 cumulative IPC: 0.9903 (Simulation time: 09 hr 44 min 15 sec)
Heartbeat CPU 3 instructions: 730000001 cycles: 848810176 heartbeat IPC: 0.217 cumulative IPC: 0.7905 (Simulation time: 09 hr 47 min 24 sec)
Heartbeat CPU 2 instructions: 900000000 cycles: 849903535 heartbeat IPC: 1.864 cumulative IPC: 0.996 (Simulation time: 09 hr 48 min 16 sec)
Heartbeat CPU 0 instructions: 190000003 cycles: 852290795 heartbeat IPC: 0.1516 cumulative IPC: 0.1627 (Simulation time: 09 hr 50 min 13 sec)
Heartbeat CPU 2 instructions: 910000000 cycles: 853666947 heartbeat IPC: 2.657 cumulative IPC: 1.003 (Simulation time: 09 hr 51 min 22 sec)
Heartbeat CPU 1 instructions: 470000001 cycles: 856095139 heartbeat IPC: 0.4839 cumulative IPC: 0.5014 (Simulation time: 09 hr 53 min 23 sec)
Heartbeat CPU 2 instructions: 920000000 cycles: 857381011 heartbeat IPC: 2.692 cumulative IPC: 1.011 (Simulation time: 09 hr 54 min 26 sec)
Heartbeat CPU 2 instructions: 930000001 cycles: 862573522 heartbeat IPC: 1.926 cumulative IPC: 1.017 (Simulation time: 09 hr 58 min 26 sec)
Heartbeat CPU 2 instructions: 940000004 cycles: 868122650 heartbeat IPC: 1.802 cumulative IPC: 1.022 (Simulation time: 10 hr 02 min 42 sec)
Heartbeat CPU 1 instructions: 480000004 cycles: 871315707 heartbeat IPC: 0.657 cumulative IPC: 0.5042 (Simulation time: 10 hr 05 min 01 sec)
Heartbeat CPU 2 instructions: 950000002 cycles: 874837765 heartbeat IPC: 1.489 cumulative IPC: 1.025 (Simulation time: 10 hr 07 min 33 sec)
Heartbeat CPU 2 instructions: 960000000 cycles: 881356437 heartbeat IPC: 1.534 cumulative IPC: 1.029 (Simulation time: 10 hr 12 min 20 sec)
Heartbeat CPU 3 instructions: 740000004 cycles: 882019208 heartbeat IPC: 0.3011 cumulative IPC: 0.7717 (Simulation time: 10 hr 12 min 52 sec)
Heartbeat CPU 2 instructions: 970000003 cycles: 885969171 heartbeat IPC: 2.168 cumulative IPC: 1.035 (Simulation time: 10 hr 15 min 57 sec)
Heartbeat CPU 1 instructions: 490000003 cycles: 886948745 heartbeat IPC: 0.6397 cumulative IPC: 0.5066 (Simulation time: 10 hr 16 min 42 sec)
Heartbeat CPU 0 instructions: 200000000 cycles: 901609557 heartbeat IPC: 0.2028 cumulative IPC: 0.165 (Simulation time: 10 hr 26 min 26 sec)
Heartbeat CPU 2 instructions: 980000001 cycles: 901944968 heartbeat IPC: 0.6259 cumulative IPC: 1.028 (Simulation time: 10 hr 26 min 42 sec)
Heartbeat CPU 1 instructions: 500000002 cycles: 904265882 heartbeat IPC: 0.5775 cumulative IPC: 0.508 (Simulation time: 10 hr 28 min 13 sec)
Heartbeat CPU 1 instructions: 510000004 cycles: 934199157 heartbeat IPC: 0.3341 cumulative IPC: 0.5023 (Simulation time: 10 hr 45 min 42 sec)
Heartbeat CPU 2 instructions: 990000003 cycles: 943063912 heartbeat IPC: 0.2432 cumulative IPC: 0.9929 (Simulation time: 10 hr 51 min 08 sec)
Simulation finished CPU 0 instructions: 150000002 cycles: 925472163 cumulative IPC: 0.1621 (Simulation time: 10 hr 51 min 44 sec)
Simulation complete CPU 0 instructions: 150000002 cycles: 925472163 cumulative IPC: 0.1621 (Simulation time: 10 hr 51 min 44 sec)
Simulation complete CPU 1 instructions: 463666994 cycles: 925472163 cumulative IPC: 0.501 (Simulation time: 10 hr 51 min 44 sec)
Simulation complete CPU 2 instructions: 919803277 cycles: 925472163 cumulative IPC: 0.9939 (Simulation time: 10 hr 51 min 44 sec)
Simulation complete CPU 3 instructions: 675692481 cycles: 925472163 cumulative IPC: 0.7301 (Simulation time: 10 hr 51 min 44 sec)

ChampSim completed all CPUs

=== Simulation ===
CPU 0 runs /home/grads/r/rdas40/dpc3_traces/619.lbm_s-4268B.champsimtrace.xzCPU 1 runs /home/grads/r/rdas40/dpc3_traces/607.cactuBSSN_s-2421B.champsimtrace.xzCPU 2 runs /home/grads/r/rdas40/dpc3_traces/627.cam4_s-573B.champsimtrace.xzCPU 3 runs /home/grads/r/rdas40/dpc3_traces/621.wrf_s-575B.champsimtrace.xz
Total Simulation Statistics (not including warmup)

CPU 0 cumulative IPC: 0.1621 instructions: 150000002 cycles: 925472163
CPU 0 Branch Prediction Accuracy: 97.11% MPKI: 0.5213 Average ROB Occupancy at Mispredict: 247
Branch type MPKI
BRANCH_DIRECT_JUMP: 0
BRANCH_INDIRECT: 0
BRANCH_CONDITIONAL: 0.521
BRANCH_DIRECT_CALL: 0
BRANCH_INDIRECT_CALL: 0
BRANCH_RETURN: 0


CPU 1 cumulative IPC: 0.501 instructions: 463666994 cycles: 925472163
CPU 1 Branch Prediction Accuracy: 99.12% MPKI: 0.01116 Average ROB Occupancy at Mispredict: 143
Branch type MPKI
BRANCH_DIRECT_JUMP: 6.47e-05
BRANCH_INDIRECT: 0.000183
BRANCH_CONDITIONAL: 0.00707
BRANCH_DIRECT_CALL: 0.00134
BRANCH_INDIRECT_CALL: 6.47e-06
BRANCH_RETURN: 0.0025


CPU 2 cumulative IPC: 0.9939 instructions: 919803277 cycles: 925472163
CPU 2 Branch Prediction Accuracy: 94.76% MPKI: 7.108 Average ROB Occupancy at Mispredict: 66.46
Branch type MPKI
BRANCH_DIRECT_JUMP: 0.0055
BRANCH_INDIRECT: 0.00153
BRANCH_CONDITIONAL: 6.46
BRANCH_DIRECT_CALL: 0.0188
BRANCH_INDIRECT_CALL: 0
BRANCH_RETURN: 0.623


CPU 3 cumulative IPC: 0.7301 instructions: 675692481 cycles: 925472163
CPU 3 Branch Prediction Accuracy: 95.42% MPKI: 5.639 Average ROB Occupancy at Mispredict: 107
Branch type MPKI
BRANCH_DIRECT_JUMP: 0.000466
BRANCH_INDIRECT: 2.52e-05
BRANCH_CONDITIONAL: 5.22
BRANCH_DIRECT_CALL: 0.00271
BRANCH_INDIRECT_CALL: 0
BRANCH_RETURN: 0.414

LLC TOTAL        ACCESS:   12769721 HIT:    5585925 MISS:    7183796
LLC LOAD         ACCESS:    1795761 HIT:         39 MISS:    1795722
LLC RFO          ACCESS:    5487090 HIT:     100263 MISS:    5386827
LLC PREFETCH     ACCESS:          0 HIT:          0 MISS:          0
LLC WRITE        ACCESS:    5486059 HIT:    5485619 MISS:        440
LLC TRANSLATION  ACCESS:        811 HIT:          4 MISS:        807
LLC PREFETCH REQUESTED:          0 ISSUED:          0 USEFUL:          0 USELESS:          0
LLC AVERAGE MISS LATENCY: 2011 cycles
LLC TOTAL        ACCESS:    5343102 HIT:    1705206 MISS:    3637896
LLC LOAD         ACCESS:    4808113 HIT:    1216303 MISS:    3591810
LLC RFO          ACCESS:       9219 HIT:       8111 MISS:       1108
LLC PREFETCH     ACCESS:          0 HIT:          0 MISS:          0
LLC WRITE        ACCESS:     455129 HIT:     454904 MISS:        225
LLC TRANSLATION  ACCESS:      70641 HIT:      25888 MISS:      44753
LLC PREFETCH REQUESTED:          0 ISSUED:          0 USEFUL:          0 USELESS:          0
LLC AVERAGE MISS LATENCY: 2011 cycles
LLC TOTAL        ACCESS:   10488056 HIT:    5017974 MISS:    5470082
LLC LOAD         ACCESS:     667060 HIT:     120059 MISS:     547001
LLC RFO          ACCESS:    4867740 HIT:      79818 MISS:    4787922
LLC PREFETCH     ACCESS:          0 HIT:          0 MISS:          0
LLC WRITE        ACCESS:    4937270 HIT:    4817013 MISS:     120257
LLC TRANSLATION  ACCESS:      15986 HIT:       1084 MISS:      14902
LLC PREFETCH REQUESTED:          0 ISSUED:          0 USEFUL:          0 USELESS:          0
LLC AVERAGE MISS LATENCY: 2011 cycles
LLC TOTAL        ACCESS:    4073750 HIT:    1803064 MISS:    2270686
LLC LOAD         ACCESS:    1959992 HIT:     404787 MISS:    1555205
LLC RFO          ACCESS:     780282 HIT:     138101 MISS:     642181
LLC PREFETCH     ACCESS:          0 HIT:          0 MISS:          0
LLC WRITE        ACCESS:    1329191 HIT:    1259030 MISS:      70161
LLC TRANSLATION  ACCESS:       4285 HIT:       1146 MISS:       3139
LLC PREFETCH REQUESTED:          0 ISSUED:          0 USEFUL:          0 USELESS:          0
LLC AVERAGE MISS LATENCY: 2011 cycles
cpu0_DTLB TOTAL        ACCESS:   24081167 HIT:   23766276 MISS:     314891
cpu0_DTLB LOAD         ACCESS:   24081167 HIT:   23766276 MISS:     314891
cpu0_DTLB RFO          ACCESS:          0 HIT:          0 MISS:          0
cpu0_DTLB PREFETCH     ACCESS:          0 HIT:          0 MISS:          0
cpu0_DTLB WRITE        ACCESS:          0 HIT:          0 MISS:          0
cpu0_DTLB TRANSLATION  ACCESS:          0 HIT:          0 MISS:          0
cpu0_DTLB PREFETCH REQUESTED:          0 ISSUED:          0 USEFUL:          0 USELESS:          0
cpu0_DTLB AVERAGE MISS LATENCY: 55.64 cycles
cpu0_DTLB TOTAL        ACCESS:          0 HIT:          0 MISS:          0
cpu0_DTLB LOAD         ACCESS:          0 HIT:          0 MISS:          0
cpu0_DTLB RFO          ACCESS:          0 HIT:          0 MISS:          0
cpu0_DTLB PREFETCH     ACCESS:          0 HIT:          0 MISS:          0
cpu0_DTLB WRITE        ACCESS:          0 HIT:          0 MISS:          0
cpu0_DTLB TRANSLATION  ACCESS:          0 HIT:          0 MISS:          0
cpu0_DTLB PREFETCH REQUESTED:          0 ISSUED:          0 USEFUL:          0 USELESS:          0
cpu0_DTLB AVERAGE MISS LATENCY: 55.64 cycles
cpu0_DTLB TOTAL        ACCESS:          0 HIT:          0 MISS:          0
cpu0_DTLB LOAD         ACCESS:          0 HIT:          0 MISS:          0
cpu0_DTLB RFO          ACCESS:          0 HIT:          0 MISS:          0
cpu0_DTLB PREFETCH     ACCESS:          0 HIT:          0 MISS:          0
cpu0_DTLB WRITE        ACCESS:          0 HIT:          0 MISS:          0
cpu0_DTLB TRANSLATION  ACCESS:          0 HIT:          0 MISS:          0
cpu0_DTLB PREFETCH REQUESTED:          0 ISSUED:          0 USEFUL:          0 USELESS:          0
cpu0_DTLB AVERAGE MISS LATENCY: 55.64 cycles
cpu0_DTLB TOTAL        ACCESS:          0 HIT:          0 MISS:          0
cpu0_DTLB LOAD         ACCESS:          0 HIT:          0 MISS:          0
cpu0_DTLB RFO          ACCESS:          0 HIT:          0 MISS:          0
cpu0_DTLB PREFETCH     ACCESS:          0 HIT:          0 MISS:          0
cpu0_DTLB WRITE        ACCESS:          0 HIT:          0 MISS:          0
cpu0_DTLB TRANSLATION  ACCESS:          0 HIT:          0 MISS:          0
cpu0_DTLB PREFETCH REQUESTED:          0 ISSUED:          0 USEFUL:          0 USELESS:          0
cpu0_DTLB AVERAGE MISS LATENCY: 55.64 cycles
cpu0_ITLB TOTAL        ACCESS:          0 HIT:          0 MISS:          0
cpu0_ITLB LOAD         ACCESS:          0 HIT:          0 MISS:          0
cpu0_ITLB RFO          ACCESS:          0 HIT:          0 MISS:          0
cpu0_ITLB PREFETCH     ACCESS:          0 HIT:          0 MISS:          0
cpu0_ITLB WRITE        ACCESS:          0 HIT:          0 MISS:          0
cpu0_ITLB TRANSLATION  ACCESS:          0 HIT:          0 MISS:          0
cpu0_ITLB PREFETCH REQUESTED:          0 ISSUED:          0 USEFUL:          0 USELESS:          0
cpu0_ITLB AVERAGE MISS LATENCY: -nan cycles
cpu0_ITLB TOTAL        ACCESS:          0 HIT:          0 MISS:          0
cpu0_ITLB LOAD         ACCESS:          0 HIT:          0 MISS:          0
cpu0_ITLB RFO          ACCESS:          0 HIT:          0 MISS:          0
cpu0_ITLB PREFETCH     ACCESS:          0 HIT:          0 MISS:          0
cpu0_ITLB WRITE        ACCESS:          0 HIT:          0 MISS:          0
cpu0_ITLB TRANSLATION  ACCESS:          0 HIT:          0 MISS:          0
cpu0_ITLB PREFETCH REQUESTED:          0 ISSUED:          0 USEFUL:          0 USELESS:          0
cpu0_ITLB AVERAGE MISS LATENCY: -nan cycles
cpu0_ITLB TOTAL        ACCESS:          0 HIT:          0 MISS:          0
cpu0_ITLB LOAD         ACCESS:          0 HIT:          0 MISS:          0
cpu0_ITLB RFO          ACCESS:          0 HIT:          0 MISS:          0
cpu0_ITLB PREFETCH     ACCESS:          0 HIT:          0 MISS:          0
cpu0_ITLB WRITE        ACCESS:          0 HIT:          0 MISS:          0
cpu0_ITLB TRANSLATION  ACCESS:          0 HIT:          0 MISS:          0
cpu0_ITLB PREFETCH REQUESTED:          0 ISSUED:          0 USEFUL:          0 USELESS:          0
cpu0_ITLB AVERAGE MISS LATENCY: -nan cycles
cpu0_ITLB TOTAL        ACCESS:          0 HIT:          0 MISS:          0
cpu0_ITLB LOAD         ACCESS:          0 HIT:          0 MISS:          0
cpu0_ITLB RFO          ACCESS:          0 HIT:          0 MISS:          0
cpu0_ITLB PREFETCH     ACCESS:          0 HIT:          0 MISS:          0
cpu0_ITLB WRITE        ACCESS:          0 HIT:          0 MISS:          0
cpu0_ITLB TRANSLATION  ACCESS:          0 HIT:          0 MISS:          0
cpu0_ITLB PREFETCH REQUESTED:          0 ISSUED:          0 USEFUL:          0 USELESS:          0
cpu0_ITLB AVERAGE MISS LATENCY: -nan cycles
cpu0_L1D TOTAL        ACCESS:   33734423 HIT:   19653785 MISS:   14080638
cpu0_L1D LOAD         ACCESS:    5997141 HIT:    2891686 MISS:    3105455
cpu0_L1D RFO          ACCESS:          0 HIT:          0 MISS:          0
cpu0_L1D PREFETCH     ACCESS:          0 HIT:          0 MISS:          0
cpu0_L1D WRITE        ACCESS:   27624911 HIT:   16762051 MISS:   10862860
cpu0_L1D TRANSLATION  ACCESS:     112371 HIT:         48 MISS:     112323
cpu0_L1D PREFETCH REQUESTED:          0 ISSUED:          0 USEFUL:          0 USELESS:          0
cpu0_L1D AVERAGE MISS LATENCY: 749.2 cycles
cpu0_L1D TOTAL        ACCESS:          0 HIT:          0 MISS:          0
cpu0_L1D LOAD         ACCESS:          0 HIT:          0 MISS:          0
cpu0_L1D RFO          ACCESS:          0 HIT:          0 MISS:          0
cpu0_L1D PREFETCH     ACCESS:          0 HIT:          0 MISS:          0
cpu0_L1D WRITE        ACCESS:          0 HIT:          0 MISS:          0
cpu0_L1D TRANSLATION  ACCESS:          0 HIT:          0 MISS:          0
cpu0_L1D PREFETCH REQUESTED:          0 ISSUED:          0 USEFUL:          0 USELESS:          0
cpu0_L1D AVERAGE MISS LATENCY: 749.2 cycles
cpu0_L1D TOTAL        ACCESS:          0 HIT:          0 MISS:          0
cpu0_L1D LOAD         ACCESS:          0 HIT:          0 MISS:          0
cpu0_L1D RFO          ACCESS:          0 HIT:          0 MISS:          0
cpu0_L1D PREFETCH     ACCESS:          0 HIT:          0 MISS:          0
cpu0_L1D WRITE        ACCESS:          0 HIT:          0 MISS:          0
cpu0_L1D TRANSLATION  ACCESS:          0 HIT:          0 MISS:          0
cpu0_L1D PREFETCH REQUESTED:          0 ISSUED:          0 USEFUL:          0 USELESS:          0
cpu0_L1D AVERAGE MISS LATENCY: 749.2 cycles
cpu0_L1D TOTAL        ACCESS:          0 HIT:          0 MISS:          0
cpu0_L1D LOAD         ACCESS:          0 HIT:          0 MISS:          0
cpu0_L1D RFO          ACCESS:          0 HIT:          0 MISS:          0
cpu0_L1D PREFETCH     ACCESS:          0 HIT:          0 MISS:          0
cpu0_L1D WRITE        ACCESS:          0 HIT:          0 MISS:          0
cpu0_L1D TRANSLATION  ACCESS:          0 HIT:          0 MISS:          0
cpu0_L1D PREFETCH REQUESTED:          0 ISSUED:          0 USEFUL:          0 USELESS:          0
cpu0_L1D AVERAGE MISS LATENCY: 749.2 cycles
cpu0_L1I TOTAL        ACCESS:          0 HIT:          0 MISS:          0
cpu0_L1I LOAD         ACCESS:          0 HIT:          0 MISS:          0
cpu0_L1I RFO          ACCESS:          0 HIT:          0 MISS:          0
cpu0_L1I PREFETCH     ACCESS:          0 HIT:          0 MISS:          0
cpu0_L1I WRITE        ACCESS:          0 HIT:          0 MISS:          0
cpu0_L1I TRANSLATION  ACCESS:          0 HIT:          0 MISS:          0
cpu0_L1I PREFETCH REQUESTED:          0 ISSUED:          0 USEFUL:          0 USELESS:          0
cpu0_L1I AVERAGE MISS LATENCY: -nan cycles
cpu0_L1I TOTAL        ACCESS:          0 HIT:          0 MISS:          0
cpu0_L1I LOAD         ACCESS:          0 HIT:          0 MISS:          0
cpu0_L1I RFO          ACCESS:          0 HIT:          0 MISS:          0
cpu0_L1I PREFETCH     ACCESS:          0 HIT:          0 MISS:          0
cpu0_L1I WRITE        ACCESS:          0 HIT:          0 MISS:          0
cpu0_L1I TRANSLATION  ACCESS:          0 HIT:          0 MISS:          0
cpu0_L1I PREFETCH REQUESTED:          0 ISSUED:          0 USEFUL:          0 USELESS:          0
cpu0_L1I AVERAGE MISS LATENCY: -nan cycles
cpu0_L1I TOTAL        ACCESS:          0 HIT:          0 MISS:          0
cpu0_L1I LOAD         ACCESS:          0 HIT:          0 MISS:          0
cpu0_L1I RFO          ACCESS:          0 HIT:          0 MISS:          0
cpu0_L1I PREFETCH     ACCESS:          0 HIT:          0 MISS:          0
cpu0_L1I WRITE        ACCESS:          0 HIT:          0 MISS:          0
cpu0_L1I TRANSLATION  ACCESS:          0 HIT:          0 MISS:          0
cpu0_L1I PREFETCH REQUESTED:          0 ISSUED:          0 USEFUL:          0 USELESS:          0
cpu0_L1I AVERAGE MISS LATENCY: -nan cycles
cpu0_L1I TOTAL        ACCESS:          0 HIT:          0 MISS:          0
cpu0_L1I LOAD         ACCESS:          0 HIT:          0 MISS:          0
cpu0_L1I RFO          ACCESS:          0 HIT:          0 MISS:          0
cpu0_L1I PREFETCH     ACCESS:          0 HIT:          0 MISS:          0
cpu0_L1I WRITE        ACCESS:          0 HIT:          0 MISS:          0
cpu0_L1I TRANSLATION  ACCESS:          0 HIT:          0 MISS:          0
cpu0_L1I PREFETCH REQUESTED:          0 ISSUED:          0 USEFUL:          0 USELESS:          0
cpu0_L1I AVERAGE MISS LATENCY: -nan cycles
cpu0_L2C TOTAL        ACCESS:   22195032 HIT:   14911369 MISS:    7283663
cpu0_L2C LOAD         ACCESS:    1795820 HIT:         59 MISS:    1795761
cpu0_L2C RFO          ACCESS:   10143300 HIT:    4656209 MISS:    5487091
cpu0_L2C PREFETCH     ACCESS:          0 HIT:          0 MISS:          0
cpu0_L2C WRITE        ACCESS:   10143589 HIT:   10143589 MISS:          0
cpu0_L2C TRANSLATION  ACCESS:     112323 HIT:     111512 MISS:        811
cpu0_L2C PREFETCH REQUESTED:          0 ISSUED:          0 USEFUL:          0 USELESS:          0
cpu0_L2C AVERAGE MISS LATENCY: 1520 cycles
cpu0_L2C TOTAL        ACCESS:          0 HIT:          0 MISS:          0
cpu0_L2C LOAD         ACCESS:          0 HIT:          0 MISS:          0
cpu0_L2C RFO          ACCESS:          0 HIT:          0 MISS:          0
cpu0_L2C PREFETCH     ACCESS:          0 HIT:          0 MISS:          0
cpu0_L2C WRITE        ACCESS:          0 HIT:          0 MISS:          0
cpu0_L2C TRANSLATION  ACCESS:          0 HIT:          0 MISS:          0
cpu0_L2C PREFETCH REQUESTED:          0 ISSUED:          0 USEFUL:          0 USELESS:          0
cpu0_L2C AVERAGE MISS LATENCY: 1520 cycles
cpu0_L2C TOTAL        ACCESS:          0 HIT:          0 MISS:          0
cpu0_L2C LOAD         ACCESS:          0 HIT:          0 MISS:          0
cpu0_L2C RFO          ACCESS:          0 HIT:          0 MISS:          0
cpu0_L2C PREFETCH     ACCESS:          0 HIT:          0 MISS:          0
cpu0_L2C WRITE        ACCESS:          0 HIT:          0 MISS:          0
cpu0_L2C TRANSLATION  ACCESS:          0 HIT:          0 MISS:          0
cpu0_L2C PREFETCH REQUESTED:          0 ISSUED:          0 USEFUL:          0 USELESS:          0
cpu0_L2C AVERAGE MISS LATENCY: 1520 cycles
cpu0_L2C TOTAL        ACCESS:          0 HIT:          0 MISS:          0
cpu0_L2C LOAD         ACCESS:          0 HIT:          0 MISS:          0
cpu0_L2C RFO          ACCESS:          0 HIT:          0 MISS:          0
cpu0_L2C PREFETCH     ACCESS:          0 HIT:          0 MISS:          0
cpu0_L2C WRITE        ACCESS:          0 HIT:          0 MISS:          0
cpu0_L2C TRANSLATION  ACCESS:          0 HIT:          0 MISS:          0
cpu0_L2C PREFETCH REQUESTED:          0 ISSUED:          0 USEFUL:          0 USELESS:          0
cpu0_L2C AVERAGE MISS LATENCY: 1520 cycles
cpu0_STLB TOTAL        ACCESS:     206894 HIT:      94632 MISS:     112262
cpu0_STLB LOAD         ACCESS:     206894 HIT:      94632 MISS:     112262
cpu0_STLB RFO          ACCESS:          0 HIT:          0 MISS:          0
cpu0_STLB PREFETCH     ACCESS:          0 HIT:          0 MISS:          0
cpu0_STLB WRITE        ACCESS:          0 HIT:          0 MISS:          0
cpu0_STLB TRANSLATION  ACCESS:          0 HIT:          0 MISS:          0
cpu0_STLB PREFETCH REQUESTED:          0 ISSUED:          0 USEFUL:          0 USELESS:          0
cpu0_STLB AVERAGE MISS LATENCY: 165.5 cycles
cpu0_STLB TOTAL        ACCESS:          0 HIT:          0 MISS:          0
cpu0_STLB LOAD         ACCESS:          0 HIT:          0 MISS:          0
cpu0_STLB RFO          ACCESS:          0 HIT:          0 MISS:          0
cpu0_STLB PREFETCH     ACCESS:          0 HIT:          0 MISS:          0
cpu0_STLB WRITE        ACCESS:          0 HIT:          0 MISS:          0
cpu0_STLB TRANSLATION  ACCESS:          0 HIT:          0 MISS:          0
cpu0_STLB PREFETCH REQUESTED:          0 ISSUED:          0 USEFUL:          0 USELESS:          0
cpu0_STLB AVERAGE MISS LATENCY: 165.5 cycles
cpu0_STLB TOTAL        ACCESS:          0 HIT:          0 MISS:          0
cpu0_STLB LOAD         ACCESS:          0 HIT:          0 MISS:          0
cpu0_STLB RFO          ACCESS:          0 HIT:          0 MISS:          0
cpu0_STLB PREFETCH     ACCESS:          0 HIT:          0 MISS:          0
cpu0_STLB WRITE        ACCESS:          0 HIT:          0 MISS:          0
cpu0_STLB TRANSLATION  ACCESS:          0 HIT:          0 MISS:          0
cpu0_STLB PREFETCH REQUESTED:          0 ISSUED:          0 USEFUL:          0 USELESS:          0
cpu0_STLB AVERAGE MISS LATENCY: 165.5 cycles
cpu0_STLB TOTAL        ACCESS:          0 HIT:          0 MISS:          0
cpu0_STLB LOAD         ACCESS:          0 HIT:          0 MISS:          0
cpu0_STLB RFO          ACCESS:          0 HIT:          0 MISS:          0
cpu0_STLB PREFETCH     ACCESS:          0 HIT:          0 MISS:          0
cpu0_STLB WRITE        ACCESS:          0 HIT:          0 MISS:          0
cpu0_STLB TRANSLATION  ACCESS:          0 HIT:          0 MISS:          0
cpu0_STLB PREFETCH REQUESTED:          0 ISSUED:          0 USEFUL:          0 USELESS:          0
cpu0_STLB AVERAGE MISS LATENCY: 165.5 cycles
cpu1_DTLB TOTAL        ACCESS:          0 HIT:          0 MISS:          0
cpu1_DTLB LOAD         ACCESS:          0 HIT:          0 MISS:          0
cpu1_DTLB RFO          ACCESS:          0 HIT:          0 MISS:          0
cpu1_DTLB PREFETCH     ACCESS:          0 HIT:          0 MISS:          0
cpu1_DTLB WRITE        ACCESS:          0 HIT:          0 MISS:          0
cpu1_DTLB TRANSLATION  ACCESS:          0 HIT:          0 MISS:          0
cpu1_DTLB PREFETCH REQUESTED:          0 ISSUED:          0 USEFUL:          0 USELESS:          0
cpu1_DTLB AVERAGE MISS LATENCY: 8.589 cycles
cpu1_DTLB TOTAL        ACCESS:   97980498 HIT:   57413950 MISS:   40566548
cpu1_DTLB LOAD         ACCESS:   97980498 HIT:   57413950 MISS:   40566548
cpu1_DTLB RFO          ACCESS:          0 HIT:          0 MISS:          0
cpu1_DTLB PREFETCH     ACCESS:          0 HIT:          0 MISS:          0
cpu1_DTLB WRITE        ACCESS:          0 HIT:          0 MISS:          0
cpu1_DTLB TRANSLATION  ACCESS:          0 HIT:          0 MISS:          0
cpu1_DTLB PREFETCH REQUESTED:          0 ISSUED:          0 USEFUL:          0 USELESS:          0
cpu1_DTLB AVERAGE MISS LATENCY: 8.589 cycles
cpu1_DTLB TOTAL        ACCESS:          0 HIT:          0 MISS:          0
cpu1_DTLB LOAD         ACCESS:          0 HIT:          0 MISS:          0
cpu1_DTLB RFO          ACCESS:          0 HIT:          0 MISS:          0
cpu1_DTLB PREFETCH     ACCESS:          0 HIT:          0 MISS:          0
cpu1_DTLB WRITE        ACCESS:          0 HIT:          0 MISS:          0
cpu1_DTLB TRANSLATION  ACCESS:          0 HIT:          0 MISS:          0
cpu1_DTLB PREFETCH REQUESTED:          0 ISSUED:          0 USEFUL:          0 USELESS:          0
cpu1_DTLB AVERAGE MISS LATENCY: 8.589 cycles
cpu1_DTLB TOTAL        ACCESS:          0 HIT:          0 MISS:          0
cpu1_DTLB LOAD         ACCESS:          0 HIT:          0 MISS:          0
cpu1_DTLB RFO          ACCESS:          0 HIT:          0 MISS:          0
cpu1_DTLB PREFETCH     ACCESS:          0 HIT:          0 MISS:          0
cpu1_DTLB WRITE        ACCESS:          0 HIT:          0 MISS:          0
cpu1_DTLB TRANSLATION  ACCESS:          0 HIT:          0 MISS:          0
cpu1_DTLB PREFETCH REQUESTED:          0 ISSUED:          0 USEFUL:          0 USELESS:          0
cpu1_DTLB AVERAGE MISS LATENCY: 8.589 cycles
cpu1_ITLB TOTAL        ACCESS:          0 HIT:          0 MISS:          0
cpu1_ITLB LOAD         ACCESS:          0 HIT:          0 MISS:          0
cpu1_ITLB RFO          ACCESS:          0 HIT:          0 MISS:          0
cpu1_ITLB PREFETCH     ACCESS:          0 HIT:          0 MISS:          0
cpu1_ITLB WRITE        ACCESS:          0 HIT:          0 MISS:          0
cpu1_ITLB TRANSLATION  ACCESS:          0 HIT:          0 MISS:          0
cpu1_ITLB PREFETCH REQUESTED:          0 ISSUED:          0 USEFUL:          0 USELESS:          0
cpu1_ITLB AVERAGE MISS LATENCY: 585.6 cycles
cpu1_ITLB TOTAL        ACCESS:   60167186 HIT:   60167103 MISS:         83
cpu1_ITLB LOAD         ACCESS:   60167186 HIT:   60167103 MISS:         83
cpu1_ITLB RFO          ACCESS:          0 HIT:          0 MISS:          0
cpu1_ITLB PREFETCH     ACCESS:          0 HIT:          0 MISS:          0
cpu1_ITLB WRITE        ACCESS:          0 HIT:          0 MISS:          0
cpu1_ITLB TRANSLATION  ACCESS:          0 HIT:          0 MISS:          0
cpu1_ITLB PREFETCH REQUESTED:          0 ISSUED:          0 USEFUL:          0 USELESS:          0
cpu1_ITLB AVERAGE MISS LATENCY: 585.6 cycles
cpu1_ITLB TOTAL        ACCESS:          0 HIT:          0 MISS:          0
cpu1_ITLB LOAD         ACCESS:          0 HIT:          0 MISS:          0
cpu1_ITLB RFO          ACCESS:          0 HIT:          0 MISS:          0
cpu1_ITLB PREFETCH     ACCESS:          0 HIT:          0 MISS:          0
cpu1_ITLB WRITE        ACCESS:          0 HIT:          0 MISS:          0
cpu1_ITLB TRANSLATION  ACCESS:          0 HIT:          0 MISS:          0
cpu1_ITLB PREFETCH REQUESTED:          0 ISSUED:          0 USEFUL:          0 USELESS:          0
cpu1_ITLB AVERAGE MISS LATENCY: 585.6 cycles
cpu1_ITLB TOTAL        ACCESS:          0 HIT:          0 MISS:          0
cpu1_ITLB LOAD         ACCESS:          0 HIT:          0 MISS:          0
cpu1_ITLB RFO          ACCESS:          0 HIT:          0 MISS:          0
cpu1_ITLB PREFETCH     ACCESS:          0 HIT:          0 MISS:          0
cpu1_ITLB WRITE        ACCESS:          0 HIT:          0 MISS:          0
cpu1_ITLB TRANSLATION  ACCESS:          0 HIT:          0 MISS:          0
cpu1_ITLB PREFETCH REQUESTED:          0 ISSUED:          0 USEFUL:          0 USELESS:          0
cpu1_ITLB AVERAGE MISS LATENCY: 585.6 cycles
cpu1_L1D TOTAL        ACCESS:          0 HIT:          0 MISS:          0
cpu1_L1D LOAD         ACCESS:          0 HIT:          0 MISS:          0
cpu1_L1D RFO          ACCESS:          0 HIT:          0 MISS:          0
cpu1_L1D PREFETCH     ACCESS:          0 HIT:          0 MISS:          0
cpu1_L1D WRITE        ACCESS:          0 HIT:          0 MISS:          0
cpu1_L1D TRANSLATION  ACCESS:          0 HIT:          0 MISS:          0
cpu1_L1D PREFETCH REQUESTED:          0 ISSUED:          0 USEFUL:          0 USELESS:          0
cpu1_L1D AVERAGE MISS LATENCY: 205.5 cycles
cpu1_L1D TOTAL        ACCESS:  120949134 HIT:   67176788 MISS:   53772346
cpu1_L1D LOAD         ACCESS:   67954637 HIT:   17038537 MISS:   50916100
cpu1_L1D RFO          ACCESS:          0 HIT:          0 MISS:          0
cpu1_L1D PREFETCH     ACCESS:          0 HIT:          0 MISS:          0
cpu1_L1D WRITE        ACCESS:   52906493 HIT:   50137477 MISS:    2769016
cpu1_L1D TRANSLATION  ACCESS:      88004 HIT:        774 MISS:      87230
cpu1_L1D PREFETCH REQUESTED:          0 ISSUED:          0 USEFUL:          0 USELESS:          0
cpu1_L1D AVERAGE MISS LATENCY: 205.5 cycles
cpu1_L1D TOTAL        ACCESS:          0 HIT:          0 MISS:          0
cpu1_L1D LOAD         ACCESS:          0 HIT:          0 MISS:          0
cpu1_L1D RFO          ACCESS:          0 HIT:          0 MISS:          0
cpu1_L1D PREFETCH     ACCESS:          0 HIT:          0 MISS:          0
cpu1_L1D WRITE        ACCESS:          0 HIT:          0 MISS:          0
cpu1_L1D TRANSLATION  ACCESS:          0 HIT:          0 MISS:          0
cpu1_L1D PREFETCH REQUESTED:          0 ISSUED:          0 USEFUL:          0 USELESS:          0
cpu1_L1D AVERAGE MISS LATENCY: 205.5 cycles
cpu1_L1D TOTAL        ACCESS:          0 HIT:          0 MISS:          0
cpu1_L1D LOAD         ACCESS:          0 HIT:          0 MISS:          0
cpu1_L1D RFO          ACCESS:          0 HIT:          0 MISS:          0
cpu1_L1D PREFETCH     ACCESS:          0 HIT:          0 MISS:          0
cpu1_L1D WRITE        ACCESS:          0 HIT:          0 MISS:          0
cpu1_L1D TRANSLATION  ACCESS:          0 HIT:          0 MISS:          0
cpu1_L1D PREFETCH REQUESTED:          0 ISSUED:          0 USEFUL:          0 USELESS:          0
cpu1_L1D AVERAGE MISS LATENCY: 205.5 cycles
cpu1_L1I TOTAL        ACCESS:          0 HIT:          0 MISS:          0
cpu1_L1I LOAD         ACCESS:          0 HIT:          0 MISS:          0
cpu1_L1I RFO          ACCESS:          0 HIT:          0 MISS:          0
cpu1_L1I PREFETCH     ACCESS:          0 HIT:          0 MISS:          0
cpu1_L1I WRITE        ACCESS:          0 HIT:          0 MISS:          0
cpu1_L1I TRANSLATION  ACCESS:          0 HIT:          0 MISS:          0
cpu1_L1I PREFETCH REQUESTED:          0 ISSUED:          0 USEFUL:          0 USELESS:          0
cpu1_L1I AVERAGE MISS LATENCY: 15.25 cycles
cpu1_L1I TOTAL        ACCESS:   78406611 HIT:   78330757 MISS:      75854
cpu1_L1I LOAD         ACCESS:   78406611 HIT:   78330757 MISS:      75854
cpu1_L1I RFO          ACCESS:          0 HIT:          0 MISS:          0
cpu1_L1I PREFETCH     ACCESS:          0 HIT:          0 MISS:          0
cpu1_L1I WRITE        ACCESS:          0 HIT:          0 MISS:          0
cpu1_L1I TRANSLATION  ACCESS:          0 HIT:          0 MISS:          0
cpu1_L1I PREFETCH REQUESTED:          0 ISSUED:          0 USEFUL:          0 USELESS:          0
cpu1_L1I AVERAGE MISS LATENCY: 15.25 cycles
cpu1_L1I TOTAL        ACCESS:          0 HIT:          0 MISS:          0
cpu1_L1I LOAD         ACCESS:          0 HIT:          0 MISS:          0
cpu1_L1I RFO          ACCESS:          0 HIT:          0 MISS:          0
cpu1_L1I PREFETCH     ACCESS:          0 HIT:          0 MISS:          0
cpu1_L1I WRITE        ACCESS:          0 HIT:          0 MISS:          0
cpu1_L1I TRANSLATION  ACCESS:          0 HIT:          0 MISS:          0
cpu1_L1I PREFETCH REQUESTED:          0 ISSUED:          0 USEFUL:          0 USELESS:          0
cpu1_L1I AVERAGE MISS LATENCY: 15.25 cycles
cpu1_L1I TOTAL        ACCESS:          0 HIT:          0 MISS:          0
cpu1_L1I LOAD         ACCESS:          0 HIT:          0 MISS:          0
cpu1_L1I RFO          ACCESS:          0 HIT:          0 MISS:          0
cpu1_L1I PREFETCH     ACCESS:          0 HIT:          0 MISS:          0
cpu1_L1I WRITE        ACCESS:          0 HIT:          0 MISS:          0
cpu1_L1I TRANSLATION  ACCESS:          0 HIT:          0 MISS:          0
cpu1_L1I PREFETCH REQUESTED:          0 ISSUED:          0 USEFUL:          0 USELESS:          0
cpu1_L1I AVERAGE MISS LATENCY: 15.25 cycles
cpu1_L2C TOTAL        ACCESS:          0 HIT:          0 MISS:          0
cpu1_L2C LOAD         ACCESS:          0 HIT:          0 MISS:          0
cpu1_L2C RFO          ACCESS:          0 HIT:          0 MISS:          0
cpu1_L2C PREFETCH     ACCESS:          0 HIT:          0 MISS:          0
cpu1_L2C WRITE        ACCESS:          0 HIT:          0 MISS:          0
cpu1_L2C TRANSLATION  ACCESS:          0 HIT:          0 MISS:          0
cpu1_L2C PREFETCH REQUESTED:          0 ISSUED:          0 USEFUL:          0 USELESS:          0
cpu1_L2C AVERAGE MISS LATENCY: 2149 cycles
cpu1_L2C TOTAL        ACCESS:   56567643 HIT:   51679571 MISS:    4888072
cpu1_L2C LOAD         ACCESS:   50421673 HIT:   45613508 MISS:    4808165
cpu1_L2C RFO          ACCESS:    2070049 HIT:    2060784 MISS:       9265
cpu1_L2C PREFETCH     ACCESS:          0 HIT:          0 MISS:          0
cpu1_L2C WRITE        ACCESS:    3988780 HIT:    3988779 MISS:          1
cpu1_L2C TRANSLATION  ACCESS:      87141 HIT:      16500 MISS:      70641
cpu1_L2C PREFETCH REQUESTED:          0 ISSUED:          0 USEFUL:          0 USELESS:          0
cpu1_L2C AVERAGE MISS LATENCY: 2149 cycles
cpu1_L2C TOTAL        ACCESS:          0 HIT:          0 MISS:          0
cpu1_L2C LOAD         ACCESS:          0 HIT:          0 MISS:          0
cpu1_L2C RFO          ACCESS:          0 HIT:          0 MISS:          0
cpu1_L2C PREFETCH     ACCESS:          0 HIT:          0 MISS:          0
cpu1_L2C WRITE        ACCESS:          0 HIT:          0 MISS:          0
cpu1_L2C TRANSLATION  ACCESS:          0 HIT:          0 MISS:          0
cpu1_L2C PREFETCH REQUESTED:          0 ISSUED:          0 USEFUL:          0 USELESS:          0
cpu1_L2C AVERAGE MISS LATENCY: 2149 cycles
cpu1_L2C TOTAL        ACCESS:          0 HIT:          0 MISS:          0
cpu1_L2C LOAD         ACCESS:          0 HIT:          0 MISS:          0
cpu1_L2C RFO          ACCESS:          0 HIT:          0 MISS:          0
cpu1_L2C PREFETCH     ACCESS:          0 HIT:          0 MISS:          0
cpu1_L2C WRITE        ACCESS:          0 HIT:          0 MISS:          0
cpu1_L2C TRANSLATION  ACCESS:          0 HIT:          0 MISS:          0
cpu1_L2C PREFETCH REQUESTED:          0 ISSUED:          0 USEFUL:          0 USELESS:          0
cpu1_L2C AVERAGE MISS LATENCY: 2149 cycles
cpu1_STLB TOTAL        ACCESS:          0 HIT:          0 MISS:          0
cpu1_STLB LOAD         ACCESS:          0 HIT:          0 MISS:          0
cpu1_STLB RFO          ACCESS:          0 HIT:          0 MISS:          0
cpu1_STLB PREFETCH     ACCESS:          0 HIT:          0 MISS:          0
cpu1_STLB WRITE        ACCESS:          0 HIT:          0 MISS:          0
cpu1_STLB TRANSLATION  ACCESS:          0 HIT:          0 MISS:          0
cpu1_STLB PREFETCH REQUESTED:          0 ISSUED:          0 USEFUL:          0 USELESS:          0
cpu1_STLB AVERAGE MISS LATENCY: 1856 cycles
cpu1_STLB TOTAL        ACCESS:   34908425 HIT:   34851930 MISS:      56495
cpu1_STLB LOAD         ACCESS:   34908425 HIT:   34851930 MISS:      56495
cpu1_STLB RFO          ACCESS:          0 HIT:          0 MISS:          0
cpu1_STLB PREFETCH     ACCESS:          0 HIT:          0 MISS:          0
cpu1_STLB WRITE        ACCESS:          0 HIT:          0 MISS:          0
cpu1_STLB TRANSLATION  ACCESS:          0 HIT:          0 MISS:          0
cpu1_STLB PREFETCH REQUESTED:          0 ISSUED:          0 USEFUL:          0 USELESS:          0
cpu1_STLB AVERAGE MISS LATENCY: 1856 cycles
cpu1_STLB TOTAL        ACCESS:          0 HIT:          0 MISS:          0
cpu1_STLB LOAD         ACCESS:          0 HIT:          0 MISS:          0
cpu1_STLB RFO          ACCESS:          0 HIT:          0 MISS:          0
cpu1_STLB PREFETCH     ACCESS:          0 HIT:          0 MISS:          0
cpu1_STLB WRITE        ACCESS:          0 HIT:          0 MISS:          0
cpu1_STLB TRANSLATION  ACCESS:          0 HIT:          0 MISS:          0
cpu1_STLB PREFETCH REQUESTED:          0 ISSUED:          0 USEFUL:          0 USELESS:          0
cpu1_STLB AVERAGE MISS LATENCY: 1856 cycles
cpu1_STLB TOTAL        ACCESS:          0 HIT:          0 MISS:          0
cpu1_STLB LOAD         ACCESS:          0 HIT:          0 MISS:          0
cpu1_STLB RFO          ACCESS:          0 HIT:          0 MISS:          0
cpu1_STLB PREFETCH     ACCESS:          0 HIT:          0 MISS:          0
cpu1_STLB WRITE        ACCESS:          0 HIT:          0 MISS:          0
cpu1_STLB TRANSLATION  ACCESS:          0 HIT:          0 MISS:          0
cpu1_STLB PREFETCH REQUESTED:          0 ISSUED:          0 USEFUL:          0 USELESS:          0
cpu1_STLB AVERAGE MISS LATENCY: 1856 cycles
cpu2_DTLB TOTAL        ACCESS:          0 HIT:          0 MISS:          0
cpu2_DTLB LOAD         ACCESS:          0 HIT:          0 MISS:          0
cpu2_DTLB RFO          ACCESS:          0 HIT:          0 MISS:          0
cpu2_DTLB PREFETCH     ACCESS:          0 HIT:          0 MISS:          0
cpu2_DTLB WRITE        ACCESS:          0 HIT:          0 MISS:          0
cpu2_DTLB TRANSLATION  ACCESS:          0 HIT:          0 MISS:          0
cpu2_DTLB PREFETCH REQUESTED:          0 ISSUED:          0 USEFUL:          0 USELESS:          0
cpu2_DTLB AVERAGE MISS LATENCY: 13.88 cycles
cpu2_DTLB TOTAL        ACCESS:          0 HIT:          0 MISS:          0
cpu2_DTLB LOAD         ACCESS:          0 HIT:          0 MISS:          0
cpu2_DTLB RFO          ACCESS:          0 HIT:          0 MISS:          0
cpu2_DTLB PREFETCH     ACCESS:          0 HIT:          0 MISS:          0
cpu2_DTLB WRITE        ACCESS:          0 HIT:          0 MISS:          0
cpu2_DTLB TRANSLATION  ACCESS:          0 HIT:          0 MISS:          0
cpu2_DTLB PREFETCH REQUESTED:          0 ISSUED:          0 USEFUL:          0 USELESS:          0
cpu2_DTLB AVERAGE MISS LATENCY: 13.88 cycles
cpu2_DTLB TOTAL        ACCESS:  134726900 HIT:  133330755 MISS:    1396145
cpu2_DTLB LOAD         ACCESS:  134726900 HIT:  133330755 MISS:    1396145
cpu2_DTLB RFO          ACCESS:          0 HIT:          0 MISS:          0
cpu2_DTLB PREFETCH     ACCESS:          0 HIT:          0 MISS:          0
cpu2_DTLB WRITE        ACCESS:          0 HIT:          0 MISS:          0
cpu2_DTLB TRANSLATION  ACCESS:          0 HIT:          0 MISS:          0
cpu2_DTLB PREFETCH REQUESTED:          0 ISSUED:          0 USEFUL:          0 USELESS:          0
cpu2_DTLB AVERAGE MISS LATENCY: 13.88 cycles
cpu2_DTLB TOTAL        ACCESS:          0 HIT:          0 MISS:          0
cpu2_DTLB LOAD         ACCESS:          0 HIT:          0 MISS:          0
cpu2_DTLB RFO          ACCESS:          0 HIT:          0 MISS:          0
cpu2_DTLB PREFETCH     ACCESS:          0 HIT:          0 MISS:          0
cpu2_DTLB WRITE        ACCESS:          0 HIT:          0 MISS:          0
cpu2_DTLB TRANSLATION  ACCESS:          0 HIT:          0 MISS:          0
cpu2_DTLB PREFETCH REQUESTED:          0 ISSUED:          0 USEFUL:          0 USELESS:          0
cpu2_DTLB AVERAGE MISS LATENCY: 13.88 cycles
cpu2_ITLB TOTAL        ACCESS:          0 HIT:          0 MISS:          0
cpu2_ITLB LOAD         ACCESS:          0 HIT:          0 MISS:          0
cpu2_ITLB RFO          ACCESS:          0 HIT:          0 MISS:          0
cpu2_ITLB PREFETCH     ACCESS:          0 HIT:          0 MISS:          0
cpu2_ITLB WRITE        ACCESS:          0 HIT:          0 MISS:          0
cpu2_ITLB TRANSLATION  ACCESS:          0 HIT:          0 MISS:          0
cpu2_ITLB PREFETCH REQUESTED:          0 ISSUED:          0 USEFUL:          0 USELESS:          0
cpu2_ITLB AVERAGE MISS LATENCY: 102.2 cycles
cpu2_ITLB TOTAL        ACCESS:          0 HIT:          0 MISS:          0
cpu2_ITLB LOAD         ACCESS:          0 HIT:          0 MISS:          0
cpu2_ITLB RFO          ACCESS:          0 HIT:          0 MISS:          0
cpu2_ITLB PREFETCH     ACCESS:          0 HIT:          0 MISS:          0
cpu2_ITLB WRITE        ACCESS:          0 HIT:          0 MISS:          0
cpu2_ITLB TRANSLATION  ACCESS:          0 HIT:          0 MISS:          0
cpu2_ITLB PREFETCH REQUESTED:          0 ISSUED:          0 USEFUL:          0 USELESS:          0
cpu2_ITLB AVERAGE MISS LATENCY: 102.2 cycles
cpu2_ITLB TOTAL        ACCESS:   18727953 HIT:   18706395 MISS:      21558
cpu2_ITLB LOAD         ACCESS:   18727953 HIT:   18706395 MISS:      21558
cpu2_ITLB RFO          ACCESS:          0 HIT:          0 MISS:          0
cpu2_ITLB PREFETCH     ACCESS:          0 HIT:          0 MISS:          0
cpu2_ITLB WRITE        ACCESS:          0 HIT:          0 MISS:          0
cpu2_ITLB TRANSLATION  ACCESS:          0 HIT:          0 MISS:          0
cpu2_ITLB PREFETCH REQUESTED:          0 ISSUED:          0 USEFUL:          0 USELESS:          0
cpu2_ITLB AVERAGE MISS LATENCY: 102.2 cycles
cpu2_ITLB TOTAL        ACCESS:          0 HIT:          0 MISS:          0
cpu2_ITLB LOAD         ACCESS:          0 HIT:          0 MISS:          0
cpu2_ITLB RFO          ACCESS:          0 HIT:          0 MISS:          0
cpu2_ITLB PREFETCH     ACCESS:          0 HIT:          0 MISS:          0
cpu2_ITLB WRITE        ACCESS:          0 HIT:          0 MISS:          0
cpu2_ITLB TRANSLATION  ACCESS:          0 HIT:          0 MISS:          0
cpu2_ITLB PREFETCH REQUESTED:          0 ISSUED:          0 USEFUL:          0 USELESS:          0
cpu2_ITLB AVERAGE MISS LATENCY: 102.2 cycles
cpu2_L1D TOTAL        ACCESS:          0 HIT:          0 MISS:          0
cpu2_L1D LOAD         ACCESS:          0 HIT:          0 MISS:          0
cpu2_L1D RFO          ACCESS:          0 HIT:          0 MISS:          0
cpu2_L1D PREFETCH     ACCESS:          0 HIT:          0 MISS:          0
cpu2_L1D WRITE        ACCESS:          0 HIT:          0 MISS:          0
cpu2_L1D TRANSLATION  ACCESS:          0 HIT:          0 MISS:          0
cpu2_L1D PREFETCH REQUESTED:          0 ISSUED:          0 USEFUL:          0 USELESS:          0
cpu2_L1D AVERAGE MISS LATENCY: 419.8 cycles
cpu2_L1D TOTAL        ACCESS:          0 HIT:          0 MISS:          0
cpu2_L1D LOAD         ACCESS:          0 HIT:          0 MISS:          0
cpu2_L1D RFO          ACCESS:          0 HIT:          0 MISS:          0
cpu2_L1D PREFETCH     ACCESS:          0 HIT:          0 MISS:          0
cpu2_L1D WRITE        ACCESS:          0 HIT:          0 MISS:          0
cpu2_L1D TRANSLATION  ACCESS:          0 HIT:          0 MISS:          0
cpu2_L1D PREFETCH REQUESTED:          0 ISSUED:          0 USEFUL:          0 USELESS:          0
cpu2_L1D AVERAGE MISS LATENCY: 419.8 cycles
cpu2_L1D TOTAL        ACCESS:  179051714 HIT:  150509618 MISS:   28542096
cpu2_L1D LOAD         ACCESS:   86223577 HIT:   81830779 MISS:    4392798
cpu2_L1D RFO          ACCESS:          0 HIT:          0 MISS:          0
cpu2_L1D PREFETCH     ACCESS:          0 HIT:          0 MISS:          0
cpu2_L1D WRITE        ACCESS:   92729637 HIT:   68602983 MISS:   24126654
cpu2_L1D TRANSLATION  ACCESS:      98500 HIT:      75856 MISS:      22644
cpu2_L1D PREFETCH REQUESTED:          0 ISSUED:          0 USEFUL:          0 USELESS:          0
cpu2_L1D AVERAGE MISS LATENCY: 419.8 cycles
cpu2_L1D TOTAL        ACCESS:          0 HIT:          0 MISS:          0
cpu2_L1D LOAD         ACCESS:          0 HIT:          0 MISS:          0
cpu2_L1D RFO          ACCESS:          0 HIT:          0 MISS:          0
cpu2_L1D PREFETCH     ACCESS:          0 HIT:          0 MISS:          0
cpu2_L1D WRITE        ACCESS:          0 HIT:          0 MISS:          0
cpu2_L1D TRANSLATION  ACCESS:          0 HIT:          0 MISS:          0
cpu2_L1D PREFETCH REQUESTED:          0 ISSUED:          0 USEFUL:          0 USELESS:          0
cpu2_L1D AVERAGE MISS LATENCY: 419.8 cycles
cpu2_L1I TOTAL        ACCESS:          0 HIT:          0 MISS:          0
cpu2_L1I LOAD         ACCESS:          0 HIT:          0 MISS:          0
cpu2_L1I RFO          ACCESS:          0 HIT:          0 MISS:          0
cpu2_L1I PREFETCH     ACCESS:          0 HIT:          0 MISS:          0
cpu2_L1I WRITE        ACCESS:          0 HIT:          0 MISS:          0
cpu2_L1I TRANSLATION  ACCESS:          0 HIT:          0 MISS:          0
cpu2_L1I PREFETCH REQUESTED:          0 ISSUED:          0 USEFUL:          0 USELESS:          0
cpu2_L1I AVERAGE MISS LATENCY: 264.1 cycles
cpu2_L1I TOTAL        ACCESS:          0 HIT:          0 MISS:          0
cpu2_L1I LOAD         ACCESS:          0 HIT:          0 MISS:          0
cpu2_L1I RFO          ACCESS:          0 HIT:          0 MISS:          0
cpu2_L1I PREFETCH     ACCESS:          0 HIT:          0 MISS:          0
cpu2_L1I WRITE        ACCESS:          0 HIT:          0 MISS:          0
cpu2_L1I TRANSLATION  ACCESS:          0 HIT:          0 MISS:          0
cpu2_L1I PREFETCH REQUESTED:          0 ISSUED:          0 USEFUL:          0 USELESS:          0
cpu2_L1I AVERAGE MISS LATENCY: 264.1 cycles
cpu2_L1I TOTAL        ACCESS:   23477873 HIT:   22962361 MISS:     515512
cpu2_L1I LOAD         ACCESS:   23477873 HIT:   22962361 MISS:     515512
cpu2_L1I RFO          ACCESS:          0 HIT:          0 MISS:          0
cpu2_L1I PREFETCH     ACCESS:          0 HIT:          0 MISS:          0
cpu2_L1I WRITE        ACCESS:          0 HIT:          0 MISS:          0
cpu2_L1I TRANSLATION  ACCESS:          0 HIT:          0 MISS:          0
cpu2_L1I PREFETCH REQUESTED:          0 ISSUED:          0 USEFUL:          0 USELESS:          0
cpu2_L1I AVERAGE MISS LATENCY: 264.1 cycles
cpu2_L1I TOTAL        ACCESS:          0 HIT:          0 MISS:          0
cpu2_L1I LOAD         ACCESS:          0 HIT:          0 MISS:          0
cpu2_L1I RFO          ACCESS:          0 HIT:          0 MISS:          0
cpu2_L1I PREFETCH     ACCESS:          0 HIT:          0 MISS:          0
cpu2_L1I WRITE        ACCESS:          0 HIT:          0 MISS:          0
cpu2_L1I TRANSLATION  ACCESS:          0 HIT:          0 MISS:          0
cpu2_L1I PREFETCH REQUESTED:          0 ISSUED:          0 USEFUL:          0 USELESS:          0
cpu2_L1I AVERAGE MISS LATENCY: 264.1 cycles
cpu2_L2C TOTAL        ACCESS:          0 HIT:          0 MISS:          0
cpu2_L2C LOAD         ACCESS:          0 HIT:          0 MISS:          0
cpu2_L2C RFO          ACCESS:          0 HIT:          0 MISS:          0
cpu2_L2C PREFETCH     ACCESS:          0 HIT:          0 MISS:          0
cpu2_L2C WRITE        ACCESS:          0 HIT:          0 MISS:          0
cpu2_L2C TRANSLATION  ACCESS:          0 HIT:          0 MISS:          0
cpu2_L2C PREFETCH REQUESTED:          0 ISSUED:          0 USEFUL:          0 USELESS:          0
cpu2_L2C AVERAGE MISS LATENCY: 2183 cycles
cpu2_L2C TOTAL        ACCESS:          0 HIT:          0 MISS:          0
cpu2_L2C LOAD         ACCESS:          0 HIT:          0 MISS:          0
cpu2_L2C RFO          ACCESS:          0 HIT:          0 MISS:          0
cpu2_L2C PREFETCH     ACCESS:          0 HIT:          0 MISS:          0
cpu2_L2C WRITE        ACCESS:          0 HIT:          0 MISS:          0
cpu2_L2C TRANSLATION  ACCESS:          0 HIT:          0 MISS:          0
cpu2_L2C PREFETCH REQUESTED:          0 ISSUED:          0 USEFUL:          0 USELESS:          0
cpu2_L2C AVERAGE MISS LATENCY: 2183 cycles
[...]
cpu2_L1I PREFETCH REQUESTED:          0 ISSUED:          0 USEFUL:          0 USELESS:          0
cpu2_L1I AVERAGE MISS LATENCY: 264.1 cycles
cpu2_L1I TOTAL        ACCESS:          0 HIT:          0 MISS:          0
cpu2_L1I LOAD         ACCESS:          0 HIT:          0 MISS:          0
cpu2_L1I RFO          ACCESS:          0 HIT:          0 MISS:          0
cpu2_L1I PREFETCH     ACCESS:          0 HIT:          0 MISS:          0
cpu2_L1I WRITE        ACCESS:          0 HIT:          0 MISS:          0
cpu2_L1I TRANSLATION  ACCESS:          0 HIT:          0 MISS:          0
cpu2_L1I PREFETCH REQUESTED:          0 ISSUED:          0 USEFUL:          0 USELESS:          0
cpu2_L1I AVERAGE MISS LATENCY: 264.1 cycles
cpu2_L2C TOTAL        ACCESS:          0 HIT:          0 MISS:          0
cpu2_L2C LOAD         ACCESS:          0 HIT:          0 MISS:          0
cpu2_L2C RFO          ACCESS:          0 HIT:          0 MISS:          0
cpu2_L2C PREFETCH     ACCESS:          0 HIT:          0 MISS:          0
cpu2_L2C WRITE        ACCESS:          0 HIT:          0 MISS:          0
cpu2_L2C TRANSLATION  ACCESS:          0 HIT:          0 MISS:          0
cpu2_L2C PREFETCH REQUESTED:          0 ISSUED:          0 USEFUL:          0 USELESS:          0
cpu2_L2C AVERAGE MISS LATENCY: 2183 cycles
cpu2_L2C TOTAL        ACCESS:          0 HIT:          0 MISS:          0
cpu2_L2C LOAD         ACCESS:          0 HIT:          0 MISS:          0
cpu2_L2C RFO          ACCESS:          0 HIT:          0 MISS:          0
cpu2_L2C PREFETCH     ACCESS:          0 HIT:          0 MISS:          0
cpu2_L2C WRITE        ACCESS:          0 HIT:          0 MISS:          0
cpu2_L2C TRANSLATION  ACCESS:          0 HIT:          0 MISS:          0
cpu2_L2C PREFETCH REQUESTED:          0 ISSUED:          0 USEFUL:          0 USELESS:          0
cpu2_L2C AVERAGE MISS LATENCY: 2183 cycles
cpu2_L2C TOTAL        ACCESS:    3045723 HIT:    1952164 MISS:    1093559
cpu2_L2C LOAD         ACCESS:     590078 HIT:     471393 MISS:     118685
cpu2_L2C RFO          ACCESS:    1187255 HIT:     215565 MISS:     971690
cpu2_L2C PREFETCH     ACCESS:          0 HIT:          0 MISS:          0
cpu2_L2C WRITE        ACCESS:    1264172 HIT:    1264061 MISS:        111
cpu2_L2C TRANSLATION  ACCESS:       4218 HIT:       1145 MISS:       3073
cpu2_L2C PREFETCH REQUESTED:          0 ISSUED:          0 USEFUL:          0 USELESS:          0
cpu2_L2C AVERAGE MISS LATENCY: 2183 cycles
cpu2_L2C TOTAL        ACCESS:          0 HIT:          0 MISS:          0
cpu2_L2C LOAD         ACCESS:          0 HIT:          0 MISS:          0
cpu2_L2C RFO          ACCESS:          0 HIT:          0 MISS:          0
cpu2_L2C PREFETCH     ACCESS:          0 HIT:          0 MISS:          0
cpu2_L2C WRITE        ACCESS:          0 HIT:          0 MISS:          0
cpu2_L2C TRANSLATION  ACCESS:          0 HIT:          0 MISS:          0
cpu2_L2C PREFETCH REQUESTED:          0 ISSUED:          0 USEFUL:          0 USELESS:          0
cpu2_L2C AVERAGE MISS LATENCY: 2183 cycles
cpu2_STLB TOTAL        ACCESS:          0 HIT:          0 MISS:          0
cpu2_STLB LOAD         ACCESS:          0 HIT:          0 MISS:          0
cpu2_STLB RFO          ACCESS:          0 HIT:          0 MISS:          0
cpu2_STLB PREFETCH     ACCESS:          0 HIT:          0 MISS:          0
cpu2_STLB WRITE        ACCESS:          0 HIT:          0 MISS:          0
cpu2_STLB TRANSLATION  ACCESS:          0 HIT:          0 MISS:          0
cpu2_STLB PREFETCH REQUESTED:          0 ISSUED:          0 USEFUL:          0 USELESS:          0
cpu2_STLB AVERAGE MISS LATENCY: 222.3 cycles
cpu2_STLB TOTAL        ACCESS:          0 HIT:          0 MISS:          0
cpu2_STLB LOAD         ACCESS:          0 HIT:          0 MISS:          0
cpu2_STLB RFO          ACCESS:          0 HIT:          0 MISS:          0
cpu2_STLB PREFETCH     ACCESS:          0 HIT:          0 MISS:          0
cpu2_STLB WRITE        ACCESS:          0 HIT:          0 MISS:          0
cpu2_STLB TRANSLATION  ACCESS:          0 HIT:          0 MISS:          0
cpu2_STLB PREFETCH REQUESTED:          0 ISSUED:          0 USEFUL:          0 USELESS:          0
cpu2_STLB AVERAGE MISS LATENCY: 222.3 cycles
cpu2_STLB TOTAL        ACCESS:     100602 HIT:      81518 MISS:      19084
cpu2_STLB LOAD         ACCESS:     100602 HIT:      81518 MISS:      19084
cpu2_STLB RFO          ACCESS:          0 HIT:          0 MISS:          0
cpu2_STLB PREFETCH     ACCESS:          0 HIT:          0 MISS:          0
cpu2_STLB WRITE        ACCESS:          0 HIT:          0 MISS:          0
cpu2_STLB TRANSLATION  ACCESS:          0 HIT:          0 MISS:          0
cpu2_STLB PREFETCH REQUESTED:          0 ISSUED:          0 USEFUL:          0 USELESS:          0
cpu2_STLB AVERAGE MISS LATENCY: 222.3 cycles
cpu2_STLB TOTAL        ACCESS:          0 HIT:          0 MISS:          0
cpu2_STLB LOAD         ACCESS:          0 HIT:          0 MISS:          0
cpu2_STLB RFO          ACCESS:          0 HIT:          0 MISS:          0
cpu2_STLB PREFETCH     ACCESS:          0 HIT:          0 MISS:          0
cpu2_STLB WRITE        ACCESS:          0 HIT:          0 MISS:          0
cpu2_STLB TRANSLATION  ACCESS:          0 HIT:          0 MISS:          0
cpu2_STLB PREFETCH REQUESTED:          0 ISSUED:          0 USEFUL:          0 USELESS:          0
cpu2_STLB AVERAGE MISS LATENCY: 222.3 cycles
cpu3_DTLB TOTAL        ACCESS:          0 HIT:          0 MISS:          0
cpu3_DTLB LOAD         ACCESS:          0 HIT:          0 MISS:          0
cpu3_DTLB RFO          ACCESS:          0 HIT:          0 MISS:          0
cpu3_DTLB PREFETCH     ACCESS:          0 HIT:          0 MISS:          0
cpu3_DTLB WRITE        ACCESS:          0 HIT:          0 MISS:          0
cpu3_DTLB TRANSLATION  ACCESS:          0 HIT:          0 MISS:          0
cpu3_DTLB PREFETCH REQUESTED:          0 ISSUED:          0 USEFUL:          0 USELESS:          0
cpu3_DTLB AVERAGE MISS LATENCY: 10.45 cycles
cpu3_DTLB TOTAL        ACCESS:          0 HIT:          0 MISS:          0
cpu3_DTLB LOAD         ACCESS:          0 HIT:          0 MISS:          0
cpu3_DTLB RFO          ACCESS:          0 HIT:          0 MISS:          0
cpu3_DTLB PREFETCH     ACCESS:          0 HIT:          0 MISS:          0
cpu3_DTLB WRITE        ACCESS:          0 HIT:          0 MISS:          0
cpu3_DTLB TRANSLATION  ACCESS:          0 HIT:          0 MISS:          0
cpu3_DTLB PREFETCH REQUESTED:          0 ISSUED:          0 USEFUL:          0 USELESS:          0
cpu3_DTLB AVERAGE MISS LATENCY: 10.45 cycles
cpu3_DTLB TOTAL        ACCESS:          0 HIT:          0 MISS:          0
cpu3_DTLB LOAD         ACCESS:          0 HIT:          0 MISS:          0
cpu3_DTLB RFO          ACCESS:          0 HIT:          0 MISS:          0
cpu3_DTLB PREFETCH     ACCESS:          0 HIT:          0 MISS:          0
cpu3_DTLB WRITE        ACCESS:          0 HIT:          0 MISS:          0
cpu3_DTLB TRANSLATION  ACCESS:          0 HIT:          0 MISS:          0
cpu3_DTLB PREFETCH REQUESTED:          0 ISSUED:          0 USEFUL:          0 USELESS:          0
cpu3_DTLB AVERAGE MISS LATENCY: 10.45 cycles
cpu3_DTLB TOTAL        ACCESS:   17919403 HIT:   17908341 MISS:      11062
cpu3_DTLB LOAD         ACCESS:   17919403 HIT:   17908341 MISS:      11062
cpu3_DTLB RFO          ACCESS:          0 HIT:          0 MISS:          0
cpu3_DTLB PREFETCH     ACCESS:          0 HIT:          0 MISS:          0
cpu3_DTLB WRITE        ACCESS:          0 HIT:          0 MISS:          0
cpu3_DTLB TRANSLATION  ACCESS:          0 HIT:          0 MISS:          0
cpu3_DTLB PREFETCH REQUESTED:          0 ISSUED:          0 USEFUL:          0 USELESS:          0
cpu3_DTLB AVERAGE MISS LATENCY: 10.45 cycles
cpu3_ITLB TOTAL        ACCESS:          0 HIT:          0 MISS:          0
cpu3_ITLB LOAD         ACCESS:          0 HIT:          0 MISS:          0
cpu3_ITLB RFO          ACCESS:          0 HIT:          0 MISS:          0
cpu3_ITLB PREFETCH     ACCESS:          0 HIT:          0 MISS:          0
cpu3_ITLB WRITE        ACCESS:          0 HIT:          0 MISS:          0
cpu3_ITLB TRANSLATION  ACCESS:          0 HIT:          0 MISS:          0
cpu3_ITLB PREFETCH REQUESTED:          0 ISSUED:          0 USEFUL:          0 USELESS:          0
cpu3_ITLB AVERAGE MISS LATENCY: 522.3 cycles
cpu3_ITLB TOTAL        ACCESS:          0 HIT:          0 MISS:          0
cpu3_ITLB LOAD         ACCESS:          0 HIT:          0 MISS:          0
cpu3_ITLB RFO          ACCESS:          0 HIT:          0 MISS:          0
cpu3_ITLB PREFETCH     ACCESS:          0 HIT:          0 MISS:          0
cpu3_ITLB WRITE        ACCESS:          0 HIT:          0 MISS:          0
cpu3_ITLB TRANSLATION  ACCESS:          0 HIT:          0 MISS:          0
cpu3_ITLB PREFETCH REQUESTED:          0 ISSUED:          0 USEFUL:          0 USELESS:          0
cpu3_ITLB AVERAGE MISS LATENCY: 522.3 cycles
cpu3_ITLB TOTAL        ACCESS:          0 HIT:          0 MISS:          0
cpu3_ITLB LOAD         ACCESS:          0 HIT:          0 MISS:          0
cpu3_ITLB RFO          ACCESS:          0 HIT:          0 MISS:          0
cpu3_ITLB PREFETCH     ACCESS:          0 HIT:          0 MISS:          0
cpu3_ITLB WRITE        ACCESS:          0 HIT:          0 MISS:          0
cpu3_ITLB TRANSLATION  ACCESS:          0 HIT:          0 MISS:          0
cpu3_ITLB PREFETCH REQUESTED:          0 ISSUED:          0 USEFUL:          0 USELESS:          0
cpu3_ITLB AVERAGE MISS LATENCY: 522.3 cycles
cpu3_ITLB TOTAL        ACCESS:     515080 HIT:     515080 MISS:          0
cpu3_ITLB LOAD         ACCESS:     515080 HIT:     515080 MISS:          0
cpu3_ITLB RFO          ACCESS:          0 HIT:          0 MISS:          0
cpu3_ITLB PREFETCH     ACCESS:          0 HIT:          0 MISS:          0
cpu3_ITLB WRITE        ACCESS:          0 HIT:          0 MISS:          0
cpu3_ITLB TRANSLATION  ACCESS:          0 HIT:          0 MISS:          0
cpu3_ITLB PREFETCH REQUESTED:          0 ISSUED:          0 USEFUL:          0 USELESS:          0
cpu3_ITLB AVERAGE MISS LATENCY: 522.3 cycles
cpu3_L1D TOTAL        ACCESS:          0 HIT:          0 MISS:          0
cpu3_L1D LOAD         ACCESS:          0 HIT:          0 MISS:          0
cpu3_L1D RFO          ACCESS:          0 HIT:          0 MISS:          0
cpu3_L1D PREFETCH     ACCESS:          0 HIT:          0 MISS:          0
cpu3_L1D WRITE        ACCESS:          0 HIT:          0 MISS:          0
cpu3_L1D TRANSLATION  ACCESS:          0 HIT:          0 MISS:          0
cpu3_L1D PREFETCH REQUESTED:          0 ISSUED:          0 USEFUL:          0 USELESS:          0
cpu3_L1D AVERAGE MISS LATENCY: 288.6 cycles
cpu3_L1D TOTAL        ACCESS:          0 HIT:          0 MISS:          0
cpu3_L1D LOAD         ACCESS:          0 HIT:          0 MISS:          0
cpu3_L1D RFO          ACCESS:          0 HIT:          0 MISS:          0
cpu3_L1D PREFETCH     ACCESS:          0 HIT:          0 MISS:          0
cpu3_L1D WRITE        ACCESS:          0 HIT:          0 MISS:          0
cpu3_L1D TRANSLATION  ACCESS:          0 HIT:          0 MISS:          0
cpu3_L1D PREFETCH REQUESTED:          0 ISSUED:          0 USEFUL:          0 USELESS:          0
cpu3_L1D AVERAGE MISS LATENCY: 288.6 cycles
cpu3_L1D TOTAL        ACCESS:          0 HIT:          0 MISS:          0
cpu3_L1D LOAD         ACCESS:          0 HIT:          0 MISS:          0
cpu3_L1D RFO          ACCESS:          0 HIT:          0 MISS:          0
cpu3_L1D PREFETCH     ACCESS:          0 HIT:          0 MISS:          0
cpu3_L1D WRITE        ACCESS:          0 HIT:          0 MISS:          0
cpu3_L1D TRANSLATION  ACCESS:          0 HIT:          0 MISS:          0
cpu3_L1D PREFETCH REQUESTED:          0 ISSUED:          0 USEFUL:          0 USELESS:          0
cpu3_L1D AVERAGE MISS LATENCY: 288.6 cycles
cpu3_L1D TOTAL        ACCESS:   21984340 HIT:   21971248 MISS:      13092
cpu3_L1D LOAD         ACCESS:   16402403 HIT:   16399535 MISS:       2868
cpu3_L1D RFO          ACCESS:          0 HIT:          0 MISS:          0
cpu3_L1D PREFETCH     ACCESS:          0 HIT:          0 MISS:          0
cpu3_L1D WRITE        ACCESS:    5581769 HIT:    5571695 MISS:      10074
cpu3_L1D TRANSLATION  ACCESS:        168 HIT:         18 MISS:        150
cpu3_L1D PREFETCH REQUESTED:          0 ISSUED:          0 USEFUL:          0 USELESS:          0
cpu3_L1D AVERAGE MISS LATENCY: 288.6 cycles
cpu3_L1I TOTAL        ACCESS:          0 HIT:          0 MISS:          0
cpu3_L1I LOAD         ACCESS:          0 HIT:          0 MISS:          0
cpu3_L1I RFO          ACCESS:          0 HIT:          0 MISS:          0
cpu3_L1I PREFETCH     ACCESS:          0 HIT:          0 MISS:          0
cpu3_L1I WRITE        ACCESS:          0 HIT:          0 MISS:          0
cpu3_L1I TRANSLATION  ACCESS:          0 HIT:          0 MISS:          0
cpu3_L1I PREFETCH REQUESTED:          0 ISSUED:          0 USEFUL:          0 USELESS:          0
cpu3_L1I AVERAGE MISS LATENCY: 25.41 cycles
cpu3_L1I TOTAL        ACCESS:          0 HIT:          0 MISS:          0
cpu3_L1I LOAD         ACCESS:          0 HIT:          0 MISS:          0
cpu3_L1I RFO          ACCESS:          0 HIT:          0 MISS:          0
cpu3_L1I PREFETCH     ACCESS:          0 HIT:          0 MISS:          0
cpu3_L1I WRITE        ACCESS:          0 HIT:          0 MISS:          0
cpu3_L1I TRANSLATION  ACCESS:          0 HIT:          0 MISS:          0
cpu3_L1I PREFETCH REQUESTED:          0 ISSUED:          0 USEFUL:          0 USELESS:          0
cpu3_L1I AVERAGE MISS LATENCY: 25.41 cycles
cpu3_L1I TOTAL        ACCESS:          0 HIT:          0 MISS:          0
cpu3_L1I LOAD         ACCESS:          0 HIT:          0 MISS:          0
cpu3_L1I RFO          ACCESS:          0 HIT:          0 MISS:          0
cpu3_L1I PREFETCH     ACCESS:          0 HIT:          0 MISS:          0
cpu3_L1I WRITE        ACCESS:          0 HIT:          0 MISS:          0
cpu3_L1I TRANSLATION  ACCESS:          0 HIT:          0 MISS:          0
cpu3_L1I PREFETCH REQUESTED:          0 ISSUED:          0 USEFUL:          0 USELESS:          0
cpu3_L1I AVERAGE MISS LATENCY: 25.41 cycles
cpu3_L1I TOTAL        ACCESS:     570337 HIT:     568924 MISS:       1413
cpu3_L1I LOAD         ACCESS:     570337 HIT:     568924 MISS:       1413
cpu3_L1I RFO          ACCESS:          0 HIT:          0 MISS:          0
cpu3_L1I PREFETCH     ACCESS:          0 HIT:          0 MISS:          0
cpu3_L1I WRITE        ACCESS:          0 HIT:          0 MISS:          0
cpu3_L1I TRANSLATION  ACCESS:          0 HIT:          0 MISS:          0
cpu3_L1I PREFETCH REQUESTED:          0 ISSUED:          0 USEFUL:          0 USELESS:          0
cpu3_L1I AVERAGE MISS LATENCY: 25.41 cycles
cpu3_L2C TOTAL        ACCESS:          0 HIT:          0 MISS:          0
cpu3_L2C LOAD         ACCESS:          0 HIT:          0 MISS:          0
cpu3_L2C RFO          ACCESS:          0 HIT:          0 MISS:          0
cpu3_L2C PREFETCH     ACCESS:          0 HIT:          0 MISS:          0
cpu3_L2C WRITE        ACCESS:          0 HIT:          0 MISS:          0
cpu3_L2C TRANSLATION  ACCESS:          0 HIT:          0 MISS:          0
cpu3_L2C PREFETCH REQUESTED:          0 ISSUED:          0 USEFUL:          0 USELESS:          0
cpu3_L2C AVERAGE MISS LATENCY: 1476 cycles
cpu3_L2C TOTAL        ACCESS:          0 HIT:          0 MISS:          0
cpu3_L2C LOAD         ACCESS:          0 HIT:          0 MISS:          0
cpu3_L2C RFO          ACCESS:          0 HIT:          0 MISS:          0
cpu3_L2C PREFETCH     ACCESS:          0 HIT:          0 MISS:          0
cpu3_L2C WRITE        ACCESS:          0 HIT:          0 MISS:          0
cpu3_L2C TRANSLATION  ACCESS:          0 HIT:          0 MISS:          0
cpu3_L2C PREFETCH REQUESTED:          0 ISSUED:          0 USEFUL:          0 USELESS:          0
cpu3_L2C AVERAGE MISS LATENCY: 1476 cycles
cpu3_L2C TOTAL        ACCESS:          0 HIT:          0 MISS:          0
cpu3_L2C LOAD         ACCESS:          0 HIT:          0 MISS:          0
cpu3_L2C RFO          ACCESS:          0 HIT:          0 MISS:          0
cpu3_L2C PREFETCH     ACCESS:          0 HIT:          0 MISS:          0
cpu3_L2C WRITE        ACCESS:          0 HIT:          0 MISS:          0
cpu3_L2C TRANSLATION  ACCESS:          0 HIT:          0 MISS:          0
cpu3_L2C PREFETCH REQUESTED:          0 ISSUED:          0 USEFUL:          0 USELESS:          0
cpu3_L2C AVERAGE MISS LATENCY: 1476 cycles
cpu3_L2C TOTAL        ACCESS:       8528 HIT:       4356 MISS:       4172
cpu3_L2C LOAD         ACCESS:       2774 HIT:       1203 MISS:       1571
cpu3_L2C RFO          ACCESS:       2564 HIT:         69 MISS:       2495
cpu3_L2C PREFETCH     ACCESS:          0 HIT:          0 MISS:          0
cpu3_L2C WRITE        ACCESS:       3040 HIT:       3028 MISS:         12
cpu3_L2C TRANSLATION  ACCESS:        150 HIT:         56 MISS:         94
cpu3_L2C PREFETCH REQUESTED:          0 ISSUED:          0 USEFUL:          0 USELESS:          0
cpu3_L2C AVERAGE MISS LATENCY: 1476 cycles
cpu3_STLB TOTAL        ACCESS:          0 HIT:          0 MISS:          0
cpu3_STLB LOAD         ACCESS:          0 HIT:          0 MISS:          0
cpu3_STLB RFO          ACCESS:          0 HIT:          0 MISS:          0
cpu3_STLB PREFETCH     ACCESS:          0 HIT:          0 MISS:          0
cpu3_STLB WRITE        ACCESS:          0 HIT:          0 MISS:          0
cpu3_STLB TRANSLATION  ACCESS:          0 HIT:          0 MISS:          0
cpu3_STLB PREFETCH REQUESTED:          0 ISSUED:          0 USEFUL:          0 USELESS:          0
cpu3_STLB AVERAGE MISS LATENCY: 443.7 cycles
cpu3_STLB TOTAL        ACCESS:          0 HIT:          0 MISS:          0
cpu3_STLB LOAD         ACCESS:          0 HIT:          0 MISS:          0
cpu3_STLB RFO          ACCESS:          0 HIT:          0 MISS:          0
cpu3_STLB PREFETCH     ACCESS:          0 HIT:          0 MISS:          0
cpu3_STLB WRITE        ACCESS:          0 HIT:          0 MISS:          0
cpu3_STLB TRANSLATION  ACCESS:          0 HIT:          0 MISS:          0
cpu3_STLB PREFETCH REQUESTED:          0 ISSUED:          0 USEFUL:          0 USELESS:          0
cpu3_STLB AVERAGE MISS LATENCY: 443.7 cycles
cpu3_STLB TOTAL        ACCESS:          0 HIT:          0 MISS:          0
cpu3_STLB LOAD         ACCESS:          0 HIT:          0 MISS:          0
cpu3_STLB RFO          ACCESS:          0 HIT:          0 MISS:          0
cpu3_STLB PREFETCH     ACCESS:          0 HIT:          0 MISS:          0
cpu3_STLB WRITE        ACCESS:          0 HIT:          0 MISS:          0
cpu3_STLB TRANSLATION  ACCESS:          0 HIT:          0 MISS:          0
cpu3_STLB PREFETCH REQUESTED:          0 ISSUED:          0 USEFUL:          0 USELESS:          0
cpu3_STLB AVERAGE MISS LATENCY: 443.7 cycles
cpu3_STLB TOTAL        ACCESS:       9858 HIT:       9690 MISS:        168
cpu3_STLB LOAD         ACCESS:       9858 HIT:       9690 MISS:        168
cpu3_STLB RFO          ACCESS:          0 HIT:          0 MISS:          0
cpu3_STLB PREFETCH     ACCESS:          0 HIT:          0 MISS:          0
cpu3_STLB WRITE        ACCESS:          0 HIT:          0 MISS:          0
cpu3_STLB TRANSLATION  ACCESS:          0 HIT:          0 MISS:          0
cpu3_STLB PREFETCH REQUESTED:          0 ISSUED:          0 USEFUL:          0 USELESS:          0
cpu3_STLB AVERAGE MISS LATENCY: 443.7 cycles

DRAM Statistics

Channel 0 RQ ROW_BUFFER_HIT:    1675360
  ROW_BUFFER_MISS:    7514404
 AVG DBUS CONGESTED CYCLE: 3.984
WQ ROW_BUFFER_HIT: Channel 0 
  ROW_BUFFER_MISS:     219440
  FULL:    5683144

Channel 1 RQ ROW_BUFFER_HIT:    1676689
  ROW_BUFFER_MISS:    7504603
 AVG DBUS CONGESTED CYCLE: 3.983
WQ ROW_BUFFER_HIT: Channel 1 
  ROW_BUFFER_MISS:     220675
  FULL:    5682155
