Original cmd-> /home/grads/r/rdas40/ECEN676/ChampSim/bin/multi_core/nopref_2ch --warmup_instructions=50000000 --simulation_instructions=150000000  /home/grads/r/rdas40/dpc3_traces/620.omnetpp_s-874B.champsimtrace.xz /home/grads/r/rdas40/dpc3_traces/644.nab_s-5853B.champsimtrace.xz /home/grads/r/rdas40/dpc3_traces/623.xalancbmk_s-700B.champsimtrace.xz /home/grads/r/rdas40/dpc3_traces/621.wrf_s-575B.champsimtrace.xz
WARNING: physical memory size is smaller than virtual memory size.
WARNING: option --warmup_instructions is deprecated. Use --warmup-instructions instead.
WARNING: option --simulation_instructions is deprecated. Use --simulation-instructions instead.

*** ChampSim Multicore Out-of-Order Simulator ***
Warmup Instructions: 50000000
Simulation Instructions: 150000000
Number of CPUs: 4
Page size: 4096

Off-chip DRAM Size: 8 GiB Channels: 2 Width: 64-bit Data Race: 3200 MT/s
Heartbeat CPU 3 instructions: 10000001 cycles: 2502764 heartbeat IPC: 3.996 cumulative IPC: 3.996 (Simulation time: 00 hr 03 min 07 sec)
Heartbeat CPU 1 instructions: 10000001 cycles: 2991208 heartbeat IPC: 3.343 cumulative IPC: 3.343 (Simulation time: 00 hr 03 min 43 sec)
Heartbeat CPU 2 instructions: 10000004 cycles: 3064063 heartbeat IPC: 3.264 cumulative IPC: 3.264 (Simulation time: 00 hr 03 min 48 sec)
Heartbeat CPU 0 instructions: 10000002 cycles: 4174981 heartbeat IPC: 2.395 cumulative IPC: 2.395 (Simulation time: 00 hr 05 min 10 sec)
Heartbeat CPU 3 instructions: 20000000 cycles: 5005381 heartbeat IPC: 3.996 cumulative IPC: 3.996 (Simulation time: 00 hr 06 min 11 sec)
Heartbeat CPU 2 instructions: 20000002 cycles: 5748976 heartbeat IPC: 3.725 cumulative IPC: 3.479 (Simulation time: 00 hr 07 min 06 sec)
Heartbeat CPU 1 instructions: 20000003 cycles: 5981112 heartbeat IPC: 3.345 cumulative IPC: 3.344 (Simulation time: 00 hr 07 min 24 sec)
Heartbeat CPU 3 instructions: 30000001 cycles: 7507708 heartbeat IPC: 3.996 cumulative IPC: 3.996 (Simulation time: 00 hr 09 min 18 sec)
Heartbeat CPU 0 instructions: 20000004 cycles: 8346122 heartbeat IPC: 2.397 cumulative IPC: 2.396 (Simulation time: 00 hr 10 min 22 sec)
Heartbeat CPU 2 instructions: 30000000 cycles: 8967549 heartbeat IPC: 3.107 cumulative IPC: 3.345 (Simulation time: 00 hr 11 min 08 sec)
Heartbeat CPU 1 instructions: 30000000 cycles: 8968071 heartbeat IPC: 3.348 cumulative IPC: 3.345 (Simulation time: 00 hr 11 min 08 sec)
Heartbeat CPU 3 instructions: 40000001 cycles: 10010384 heartbeat IPC: 3.996 cumulative IPC: 3.996 (Simulation time: 00 hr 12 min 26 sec)
Heartbeat CPU 1 instructions: 40000001 cycles: 11937325 heartbeat IPC: 3.368 cumulative IPC: 3.351 (Simulation time: 00 hr 14 min 51 sec)
Heartbeat CPU 2 instructions: 40000004 cycles: 12221482 heartbeat IPC: 3.073 cumulative IPC: 3.273 (Simulation time: 00 hr 15 min 12 sec)
Heartbeat CPU 3 instructions: 50000002 cycles: 12513112 heartbeat IPC: 3.996 cumulative IPC: 3.996 (Simulation time: 00 hr 15 min 34 sec)
Warmup finished CPU 3 instructions: 50000002 cycles: 12513113 cumulative IPC: 3.996 (Simulation time: 00 hr 15 min 34 sec)
Heartbeat CPU 0 instructions: 30000001 cycles: 12520157 heartbeat IPC: 2.396 cumulative IPC: 2.396 (Simulation time: 00 hr 15 min 34 sec)
Heartbeat CPU 1 instructions: 50000002 cycles: 14909202 heartbeat IPC: 3.365 cumulative IPC: 3.354 (Simulation time: 00 hr 18 min 32 sec)
Warmup finished CPU 1 instructions: 50000002 cycles: 14909203 cumulative IPC: 3.354 (Simulation time: 00 hr 18 min 32 sec)
Heartbeat CPU 3 instructions: 60000002 cycles: 15015794 heartbeat IPC: 3.996 cumulative IPC: 3.996 (Simulation time: 00 hr 18 min 40 sec)
Heartbeat CPU 2 instructions: 50000002 cycles: 15375091 heartbeat IPC: 3.171 cumulative IPC: 3.252 (Simulation time: 00 hr 19 min 07 sec)
Warmup finished CPU 2 instructions: 50000002 cycles: 15375092 cumulative IPC: 3.252 (Simulation time: 00 hr 19 min 07 sec)
Heartbeat CPU 0 instructions: 40000004 cycles: 16706190 heartbeat IPC: 2.389 cumulative IPC: 2.394 (Simulation time: 00 hr 20 min 46 sec)
Heartbeat CPU 3 instructions: 70000003 cycles: 17520631 heartbeat IPC: 3.992 cumulative IPC: 3.995 (Simulation time: 00 hr 21 min 47 sec)
Heartbeat CPU 1 instructions: 60000001 cycles: 17887979 heartbeat IPC: 3.357 cumulative IPC: 3.354 (Simulation time: 00 hr 22 min 14 sec)
Heartbeat CPU 2 instructions: 60000003 cycles: 18083812 heartbeat IPC: 3.692 cumulative IPC: 3.318 (Simulation time: 00 hr 22 min 29 sec)
Heartbeat CPU 3 instructions: 80000001 cycles: 20022814 heartbeat IPC: 3.997 cumulative IPC: 3.995 (Simulation time: 00 hr 24 min 54 sec)
Heartbeat CPU 2 instructions: 70000001 cycles: 20810103 heartbeat IPC: 3.668 cumulative IPC: 3.364 (Simulation time: 00 hr 25 min 53 sec)
Heartbeat CPU 1 instructions: 70000000 cycles: 20872390 heartbeat IPC: 3.351 cumulative IPC: 3.354 (Simulation time: 00 hr 25 min 57 sec)
Heartbeat CPU 0 instructions: 50000003 cycles: 20872498 heartbeat IPC: 2.4 cumulative IPC: 2.395 (Simulation time: 00 hr 25 min 57 sec)
Warmup finished CPU 0 instructions: 50000003 cycles: 20872499 cumulative IPC: 2.395 (Simulation time: 00 hr 25 min 57 sec)
Warmup complete CPU 0 instructions: 50000003 cycles: 20872499 cumulative IPC: 2.395 (Simulation time: 00 hr 25 min 57 sec)
Warmup complete CPU 1 instructions: 70000358 cycles: 20872499 cumulative IPC: 3.354 (Simulation time: 00 hr 25 min 57 sec)
Warmup complete CPU 2 instructions: 70213539 cycles: 20872499 cumulative IPC: 3.364 (Simulation time: 00 hr 25 min 57 sec)
Warmup complete CPU 3 instructions: 83398737 cycles: 20872499 cumulative IPC: 3.996 (Simulation time: 00 hr 25 min 57 sec)
Heartbeat CPU 3 instructions: 90000004 cycles: 23960575 heartbeat IPC: 2.54 cumulative IPC: 2.138 (Simulation time: 00 hr 28 min 31 sec)
Heartbeat CPU 1 instructions: 80000003 cycles: 25481131 heartbeat IPC: 2.17 cumulative IPC: 2.17 (Simulation time: 00 hr 29 min 48 sec)
Heartbeat CPU 2 instructions: 80000001 cycles: 27829309 heartbeat IPC: 1.425 cumulative IPC: 1.407 (Simulation time: 00 hr 31 min 45 sec)
Heartbeat CPU 3 instructions: 100000000 cycles: 28664525 heartbeat IPC: 2.126 cumulative IPC: 2.131 (Simulation time: 00 hr 32 min 27 sec)
Heartbeat CPU 1 instructions: 90000002 cycles: 30307514 heartbeat IPC: 2.072 cumulative IPC: 2.12 (Simulation time: 00 hr 33 min 49 sec)
Heartbeat CPU 3 instructions: 110000001 cycles: 33350312 heartbeat IPC: 2.134 cumulative IPC: 2.132 (Simulation time: 00 hr 36 min 22 sec)
Heartbeat CPU 2 instructions: 90000001 cycles: 33652030 heartbeat IPC: 1.717 cumulative IPC: 1.548 (Simulation time: 00 hr 36 min 38 sec)
Heartbeat CPU 0 instructions: 60000000 cycles: 35239805 heartbeat IPC: 0.696 cumulative IPC: 0.696 (Simulation time: 00 hr 37 min 54 sec)
Heartbeat CPU 1 instructions: 100000000 cycles: 35520635 heartbeat IPC: 1.918 cumulative IPC: 2.048 (Simulation time: 00 hr 38 min 07 sec)
Heartbeat CPU 3 instructions: 120000000 cycles: 37965330 heartbeat IPC: 2.167 cumulative IPC: 2.141 (Simulation time: 00 hr 40 min 07 sec)
Heartbeat CPU 2 instructions: 100000002 cycles: 40415562 heartbeat IPC: 1.479 cumulative IPC: 1.524 (Simulation time: 00 hr 42 min 07 sec)
Heartbeat CPU 1 instructions: 110000000 cycles: 40555537 heartbeat IPC: 1.986 cumulative IPC: 2.032 (Simulation time: 00 hr 42 min 14 sec)
Heartbeat CPU 3 instructions: 130000002 cycles: 42610853 heartbeat IPC: 2.153 cumulative IPC: 2.144 (Simulation time: 00 hr 43 min 57 sec)
Heartbeat CPU 1 instructions: 120000000 cycles: 45160311 heartbeat IPC: 2.172 cumulative IPC: 2.059 (Simulation time: 00 hr 46 min 03 sec)
Heartbeat CPU 2 instructions: 110000004 cycles: 46849461 heartbeat IPC: 1.554 cumulative IPC: 1.532 (Simulation time: 00 hr 47 min 28 sec)
Heartbeat CPU 3 instructions: 140000000 cycles: 47271549 heartbeat IPC: 2.146 cumulative IPC: 2.144 (Simulation time: 00 hr 47 min 49 sec)
Heartbeat CPU 0 instructions: 70000002 cycles: 49561488 heartbeat IPC: 0.6982 cumulative IPC: 0.6971 (Simulation time: 00 hr 49 min 44 sec)
Heartbeat CPU 1 instructions: 130000001 cycles: 49765609 heartbeat IPC: 2.171 cumulative IPC: 2.077 (Simulation time: 00 hr 49 min 54 sec)
Heartbeat CPU 3 instructions: 150000004 cycles: 51870793 heartbeat IPC: 2.174 cumulative IPC: 2.149 (Simulation time: 00 hr 51 min 39 sec)
Heartbeat CPU 2 instructions: 120000000 cycles: 53057992 heartbeat IPC: 1.611 cumulative IPC: 1.547 (Simulation time: 00 hr 52 min 38 sec)
Heartbeat CPU 1 instructions: 140000000 cycles: 54457603 heartbeat IPC: 2.131 cumulative IPC: 2.084 (Simulation time: 00 hr 53 min 48 sec)
Heartbeat CPU 3 instructions: 160000003 cycles: 56471564 heartbeat IPC: 2.174 cumulative IPC: 2.152 (Simulation time: 00 hr 55 min 33 sec)
Heartbeat CPU 2 instructions: 130000001 cycles: 58174672 heartbeat IPC: 1.954 cumulative IPC: 1.603 (Simulation time: 00 hr 57 min 05 sec)
Heartbeat CPU 1 instructions: 150000003 cycles: 59150883 heartbeat IPC: 2.131 cumulative IPC: 2.09 (Simulation time: 00 hr 57 min 57 sec)
Heartbeat CPU 3 instructions: 170000003 cycles: 61058755 heartbeat IPC: 2.18 cumulative IPC: 2.155 (Simulation time: 00 hr 59 min 38 sec)
Heartbeat CPU 2 instructions: 140000000 cycles: 63469875 heartbeat IPC: 1.889 cumulative IPC: 1.638 (Simulation time: 01 hr 01 min 48 sec)
Heartbeat CPU 1 instructions: 160000000 cycles: 63842168 heartbeat IPC: 2.132 cumulative IPC: 2.094 (Simulation time: 01 hr 02 min 06 sec)
Heartbeat CPU 0 instructions: 80000002 cycles: 64348941 heartbeat IPC: 0.6762 cumulative IPC: 0.69 (Simulation time: 01 hr 02 min 32 sec)
Heartbeat CPU 3 instructions: 180000004 cycles: 65654172 heartbeat IPC: 2.176 cumulative IPC: 2.157 (Simulation time: 01 hr 03 min 34 sec)
Heartbeat CPU 1 instructions: 170000003 cycles: 68545164 heartbeat IPC: 2.126 cumulative IPC: 2.098 (Simulation time: 01 hr 06 min 00 sec)
Heartbeat CPU 3 instructions: 190000002 cycles: 70259986 heartbeat IPC: 2.171 cumulative IPC: 2.158 (Simulation time: 01 hr 07 min 26 sec)
Heartbeat CPU 2 instructions: 150000004 cycles: 70512410 heartbeat IPC: 1.42 cumulative IPC: 1.607 (Simulation time: 01 hr 07 min 39 sec)
Heartbeat CPU 1 instructions: 180000000 cycles: 73237809 heartbeat IPC: 2.131 cumulative IPC: 2.101 (Simulation time: 01 hr 09 min 57 sec)
Heartbeat CPU 3 instructions: 200000000 cycles: 74870161 heartbeat IPC: 2.169 cumulative IPC: 2.159 (Simulation time: 01 hr 11 min 24 sec)
Heartbeat CPU 2 instructions: 160000002 cycles: 76327937 heartbeat IPC: 1.72 cumulative IPC: 1.619 (Simulation time: 01 hr 12 min 34 sec)
Heartbeat CPU 1 instructions: 190000000 cycles: 77928780 heartbeat IPC: 2.132 cumulative IPC: 2.103 (Simulation time: 01 hr 13 min 53 sec)
Heartbeat CPU 0 instructions: 90000001 cycles: 78464133 heartbeat IPC: 0.7085 cumulative IPC: 0.6945 (Simulation time: 01 hr 14 min 19 sec)
Heartbeat CPU 3 instructions: 210000000 cycles: 79441918 heartbeat IPC: 2.187 cumulative IPC: 2.162 (Simulation time: 01 hr 15 min 07 sec)
Heartbeat CPU 2 instructions: 170000004 cycles: 82543358 heartbeat IPC: 1.609 cumulative IPC: 1.618 (Simulation time: 01 hr 17 min 43 sec)
Heartbeat CPU 1 instructions: 200000004 cycles: 82618136 heartbeat IPC: 2.132 cumulative IPC: 2.105 (Simulation time: 01 hr 17 min 47 sec)
Heartbeat CPU 3 instructions: 220000000 cycles: 84003689 heartbeat IPC: 2.192 cumulative IPC: 2.164 (Simulation time: 01 hr 18 min 55 sec)
Heartbeat CPU 1 instructions: 210000002 cycles: 87322814 heartbeat IPC: 2.126 cumulative IPC: 2.107 (Simulation time: 01 hr 21 min 39 sec)
Heartbeat CPU 3 instructions: 230000001 cycles: 88585006 heartbeat IPC: 2.183 cumulative IPC: 2.165 (Simulation time: 01 hr 22 min 42 sec)
Heartbeat CPU 2 instructions: 180000002 cycles: 89033242 heartbeat IPC: 1.541 cumulative IPC: 1.611 (Simulation time: 01 hr 23 min 04 sec)
Simulation finished CPU 3 instructions: 150000003 cycles: 69293103 cumulative IPC: 2.165 (Simulation time: 01 hr 24 min 01 sec)
Heartbeat CPU 1 instructions: 220000000 cycles: 91939777 heartbeat IPC: 2.166 cumulative IPC: 2.111 (Simulation time: 01 hr 25 min 29 sec)
Simulation finished CPU 1 instructions: 150000003 cycles: 71067544 cumulative IPC: 2.111 (Simulation time: 01 hr 25 min 29 sec)
Heartbeat CPU 3 instructions: 240000000 cycles: 93186614 heartbeat IPC: 2.173 cumulative IPC: 2.166 (Simulation time: 01 hr 26 min 31 sec)
Heartbeat CPU 0 instructions: 100000000 cycles: 93222184 heartbeat IPC: 0.6776 cumulative IPC: 0.6911 (Simulation time: 01 hr 26 min 33 sec)
Heartbeat CPU 2 instructions: 190000001 cycles: 95279646 heartbeat IPC: 1.601 cumulative IPC: 1.61 (Simulation time: 01 hr 28 min 16 sec)
Heartbeat CPU 1 instructions: 230000002 cycles: 96549628 heartbeat IPC: 2.169 cumulative IPC: 2.114 (Simulation time: 01 hr 29 min 20 sec)
Heartbeat CPU 3 instructions: 250000002 cycles: 97798500 heartbeat IPC: 2.168 cumulative IPC: 2.166 (Simulation time: 01 hr 30 min 23 sec)
Heartbeat CPU 2 instructions: 200000002 cycles: 100845374 heartbeat IPC: 1.797 cumulative IPC: 1.623 (Simulation time: 01 hr 33 min 02 sec)
Heartbeat CPU 1 instructions: 240000001 cycles: 101202310 heartbeat IPC: 2.149 cumulative IPC: 2.116 (Simulation time: 01 hr 33 min 21 sec)
Heartbeat CPU 3 instructions: 260000000 cycles: 102435779 heartbeat IPC: 2.156 cumulative IPC: 2.165 (Simulation time: 01 hr 34 min 28 sec)
Heartbeat CPU 2 instructions: 210000001 cycles: 105630056 heartbeat IPC: 2.09 cumulative IPC: 1.649 (Simulation time: 01 hr 37 min 21 sec)
Heartbeat CPU 1 instructions: 250000003 cycles: 105768999 heartbeat IPC: 2.19 cumulative IPC: 2.12 (Simulation time: 01 hr 37 min 28 sec)
Heartbeat CPU 3 instructions: 270000000 cycles: 107052430 heartbeat IPC: 2.166 cumulative IPC: 2.165 (Simulation time: 01 hr 38 min 35 sec)
Heartbeat CPU 0 instructions: 110000004 cycles: 107508068 heartbeat IPC: 0.7 cumulative IPC: 0.6926 (Simulation time: 01 hr 38 min 59 sec)
Heartbeat CPU 1 instructions: 260000003 cycles: 110373513 heartbeat IPC: 2.172 cumulative IPC: 2.123 (Simulation time: 01 hr 41 min 17 sec)
Heartbeat CPU 3 instructions: 280000001 cycles: 111672577 heartbeat IPC: 2.164 cumulative IPC: 2.165 (Simulation time: 01 hr 42 min 21 sec)
Heartbeat CPU 2 instructions: 220000000 cycles: 112476857 heartbeat IPC: 1.461 cumulative IPC: 1.635 (Simulation time: 01 hr 43 min 00 sec)
Simulation finished CPU 2 instructions: 150000003 cycles: 91746619 cumulative IPC: 1.635 (Simulation time: 01 hr 43 min 07 sec)
Heartbeat CPU 1 instructions: 270000001 cycles: 115017337 heartbeat IPC: 2.153 cumulative IPC: 2.124 (Simulation time: 01 hr 45 min 07 sec)
Heartbeat CPU 3 instructions: 290000004 cycles: 116299547 heartbeat IPC: 2.161 cumulative IPC: 2.165 (Simulation time: 01 hr 46 min 11 sec)
Heartbeat CPU 2 instructions: 230000000 cycles: 118870973 heartbeat IPC: 1.564 cumulative IPC: 1.63 (Simulation time: 01 hr 48 min 22 sec)
Heartbeat CPU 1 instructions: 280000001 cycles: 119550804 heartbeat IPC: 2.206 cumulative IPC: 2.128 (Simulation time: 01 hr 48 min 56 sec)
Heartbeat CPU 3 instructions: 300000000 cycles: 120909855 heartbeat IPC: 2.169 cumulative IPC: 2.165 (Simulation time: 01 hr 50 min 04 sec)
Heartbeat CPU 0 instructions: 120000004 cycles: 122305882 heartbeat IPC: 0.6758 cumulative IPC: 0.6901 (Simulation time: 01 hr 51 min 14 sec)
Heartbeat CPU 1 instructions: 290000000 cycles: 124014045 heartbeat IPC: 2.241 cumulative IPC: 2.133 (Simulation time: 01 hr 52 min 41 sec)
Heartbeat CPU 2 instructions: 240000001 cycles: 124992435 heartbeat IPC: 1.634 cumulative IPC: 1.631 (Simulation time: 01 hr 53 min 34 sec)
Heartbeat CPU 3 instructions: 310000001 cycles: 125523385 heartbeat IPC: 2.168 cumulative IPC: 2.165 (Simulation time: 01 hr 54 min 03 sec)
Heartbeat CPU 1 instructions: 300000001 cycles: 127690446 heartbeat IPC: 2.72 cumulative IPC: 2.153 (Simulation time: 01 hr 56 min 01 sec)
Heartbeat CPU 3 instructions: 320000001 cycles: 130126856 heartbeat IPC: 2.172 cumulative IPC: 2.166 (Simulation time: 01 hr 58 min 13 sec)
Heartbeat CPU 2 instructions: 250000001 cycles: 130992996 heartbeat IPC: 1.667 cumulative IPC: 1.633 (Simulation time: 01 hr 58 min 59 sec)
Heartbeat CPU 1 instructions: 310000000 cycles: 131432155 heartbeat IPC: 2.673 cumulative IPC: 2.171 (Simulation time: 01 hr 59 min 23 sec)
Heartbeat CPU 3 instructions: 330000001 cycles: 134724370 heartbeat IPC: 2.175 cumulative IPC: 2.166 (Simulation time: 02 hr 02 min 08 sec)
Heartbeat CPU 1 instructions: 320000000 cycles: 136209590 heartbeat IPC: 2.093 cumulative IPC: 2.168 (Simulation time: 02 hr 03 min 24 sec)
Heartbeat CPU 2 instructions: 260000000 cycles: 136800306 heartbeat IPC: 1.722 cumulative IPC: 1.637 (Simulation time: 02 hr 03 min 55 sec)
Heartbeat CPU 0 instructions: 130000002 cycles: 137715356 heartbeat IPC: 0.649 cumulative IPC: 0.6847 (Simulation time: 02 hr 04 min 41 sec)
Heartbeat CPU 3 instructions: 340000000 cycles: 139966500 heartbeat IPC: 1.908 cumulative IPC: 2.155 (Simulation time: 02 hr 06 min 46 sec)
Heartbeat CPU 1 instructions: 330000001 cycles: 141123464 heartbeat IPC: 2.035 cumulative IPC: 2.162 (Simulation time: 02 hr 07 min 50 sec)
Heartbeat CPU 2 instructions: 270000000 cycles: 141511798 heartbeat IPC: 2.122 cumulative IPC: 1.656 (Simulation time: 02 hr 08 min 12 sec)
Heartbeat CPU 3 instructions: 350000002 cycles: 145153938 heartbeat IPC: 1.928 cumulative IPC: 2.145 (Simulation time: 02 hr 11 min 32 sec)
Heartbeat CPU 1 instructions: 340000002 cycles: 145859616 heartbeat IPC: 2.111 cumulative IPC: 2.16 (Simulation time: 02 hr 12 min 11 sec)
Heartbeat CPU 2 instructions: 280000000 cycles: 146285448 heartbeat IPC: 2.095 cumulative IPC: 1.673 (Simulation time: 02 hr 12 min 34 sec)
Heartbeat CPU 1 instructions: 350000000 cycles: 149757263 heartbeat IPC: 2.566 cumulative IPC: 2.172 (Simulation time: 02 hr 15 min 50 sec)
Heartbeat CPU 3 instructions: 360000002 cycles: 150201341 heartbeat IPC: 1.981 cumulative IPC: 2.139 (Simulation time: 02 hr 16 min 14 sec)
Heartbeat CPU 2 instructions: 290000003 cycles: 151695447 heartbeat IPC: 1.848 cumulative IPC: 1.68 (Simulation time: 02 hr 17 min 39 sec)
Heartbeat CPU 0 instructions: 140000001 cycles: 152295382 heartbeat IPC: 0.6859 cumulative IPC: 0.6848 (Simulation time: 02 hr 18 min 13 sec)
Heartbeat CPU 1 instructions: 360000002 cycles: 153415972 heartbeat IPC: 2.733 cumulative IPC: 2.188 (Simulation time: 02 hr 19 min 14 sec)
Heartbeat CPU 3 instructions: 370000000 cycles: 155162155 heartbeat IPC: 2.016 cumulative IPC: 2.134 (Simulation time: 02 hr 20 min 46 sec)
Heartbeat CPU 1 instructions: 370000000 cycles: 157118789 heartbeat IPC: 2.701 cumulative IPC: 2.202 (Simulation time: 02 hr 22 min 30 sec)
Heartbeat CPU 2 instructions: 300000001 cycles: 159125374 heartbeat IPC: 1.346 cumulative IPC: 1.662 (Simulation time: 02 hr 24 min 19 sec)
Heartbeat CPU 3 instructions: 380000002 cycles: 160086008 heartbeat IPC: 2.031 cumulative IPC: 2.131 (Simulation time: 02 hr 25 min 12 sec)
Heartbeat CPU 1 instructions: 380000004 cycles: 160797765 heartbeat IPC: 2.718 cumulative IPC: 2.215 (Simulation time: 02 hr 25 min 51 sec)
Heartbeat CPU 1 instructions: 390000000 cycles: 165354835 heartbeat IPC: 2.194 cumulative IPC: 2.215 (Simulation time: 02 hr 29 min 34 sec)
Heartbeat CPU 2 instructions: 310000001 cycles: 167228930 heartbeat IPC: 1.234 cumulative IPC: 1.638 (Simulation time: 02 hr 30 min 52 sec)
Heartbeat CPU 3 instructions: 390000001 cycles: 169264116 heartbeat IPC: 1.09 cumulative IPC: 2.066 (Simulation time: 02 hr 32 min 39 sec)
Heartbeat CPU 1 instructions: 400000004 cycles: 170109888 heartbeat IPC: 2.103 cumulative IPC: 2.211 (Simulation time: 02 hr 33 min 27 sec)
Heartbeat CPU 0 instructions: 150000003 cycles: 172148255 heartbeat IPC: 0.5037 cumulative IPC: 0.661 (Simulation time: 02 hr 35 min 17 sec)
Heartbeat CPU 3 instructions: 400000003 cycles: 173629888 heartbeat IPC: 2.291 cumulative IPC: 2.073 (Simulation time: 02 hr 36 min 37 sec)
Heartbeat CPU 1 instructions: 410000002 cycles: 173946659 heartbeat IPC: 2.606 cumulative IPC: 2.221 (Simulation time: 02 hr 36 min 55 sec)
Heartbeat CPU 2 instructions: 320000001 cycles: 174237299 heartbeat IPC: 1.427 cumulative IPC: 1.629 (Simulation time: 02 hr 37 min 10 sec)
Heartbeat CPU 1 instructions: 420000004 cycles: 177743395 heartbeat IPC: 2.634 cumulative IPC: 2.231 (Simulation time: 02 hr 40 min 27 sec)
Heartbeat CPU 3 instructions: 410000003 cycles: 178216044 heartbeat IPC: 2.18 cumulative IPC: 2.076 (Simulation time: 02 hr 40 min 53 sec)
Heartbeat CPU 2 instructions: 330000000 cycles: 180843435 heartbeat IPC: 1.514 cumulative IPC: 1.624 (Simulation time: 02 hr 43 min 19 sec)
Heartbeat CPU 1 instructions: 430000000 cycles: 181540572 heartbeat IPC: 2.634 cumulative IPC: 2.241 (Simulation time: 02 hr 43 min 58 sec)
Heartbeat CPU 3 instructions: 420000000 cycles: 182806489 heartbeat IPC: 2.178 cumulative IPC: 2.079 (Simulation time: 02 hr 45 min 09 sec)
Heartbeat CPU 1 instructions: 440000003 cycles: 185332128 heartbeat IPC: 2.637 cumulative IPC: 2.25 (Simulation time: 02 hr 47 min 31 sec)
Heartbeat CPU 2 instructions: 340000000 cycles: 187118689 heartbeat IPC: 1.594 cumulative IPC: 1.623 (Simulation time: 02 hr 49 min 13 sec)
Heartbeat CPU 3 instructions: 430000004 cycles: 187433581 heartbeat IPC: 2.161 cumulative IPC: 2.081 (Simulation time: 02 hr 49 min 31 sec)
Heartbeat CPU 0 instructions: 160000002 cycles: 189008633 heartbeat IPC: 0.5931 cumulative IPC: 0.6542 (Simulation time: 02 hr 51 min 00 sec)
Heartbeat CPU 1 instructions: 450000003 cycles: 189126672 heartbeat IPC: 2.635 cumulative IPC: 2.258 (Simulation time: 02 hr 51 min 06 sec)
Heartbeat CPU 3 instructions: 440000004 cycles: 192025332 heartbeat IPC: 2.178 cumulative IPC: 2.084 (Simulation time: 02 hr 53 min 52 sec)
Heartbeat CPU 1 instructions: 460000003 cycles: 192933820 heartbeat IPC: 2.627 cumulative IPC: 2.267 (Simulation time: 02 hr 54 min 43 sec)
Heartbeat CPU 2 instructions: 350000003 cycles: 193200173 heartbeat IPC: 1.644 cumulative IPC: 1.624 (Simulation time: 02 hr 54 min 57 sec)
Heartbeat CPU 3 instructions: 450000000 cycles: 196642737 heartbeat IPC: 2.166 cumulative IPC: 2.086 (Simulation time: 02 hr 58 min 14 sec)
Heartbeat CPU 1 instructions: 470000002 cycles: 196695965 heartbeat IPC: 2.658 cumulative IPC: 2.275 (Simulation time: 02 hr 58 min 16 sec)
Heartbeat CPU 2 instructions: 360000001 cycles: 199220510 heartbeat IPC: 1.661 cumulative IPC: 1.625 (Simulation time: 03 hr 00 min 41 sec)
Heartbeat CPU 1 instructions: 480000001 cycles: 200471374 heartbeat IPC: 2.649 cumulative IPC: 2.283 (Simulation time: 03 hr 01 min 52 sec)
Heartbeat CPU 3 instructions: 460000000 cycles: 201208745 heartbeat IPC: 2.19 cumulative IPC: 2.088 (Simulation time: 03 hr 02 min 36 sec)
Heartbeat CPU 1 instructions: 490000002 cycles: 204224448 heartbeat IPC: 2.664 cumulative IPC: 2.291 (Simulation time: 03 hr 05 min 30 sec)
Heartbeat CPU 0 instructions: 170000001 cycles: 205075390 heartbeat IPC: 0.6224 cumulative IPC: 0.6515 (Simulation time: 03 hr 06 min 19 sec)
Heartbeat CPU 2 instructions: 370000000 cycles: 205223426 heartbeat IPC: 1.666 cumulative IPC: 1.626 (Simulation time: 03 hr 06 min 27 sec)
Heartbeat CPU 3 instructions: 470000003 cycles: 205536369 heartbeat IPC: 2.311 cumulative IPC: 2.094 (Simulation time: 03 hr 06 min 46 sec)
Heartbeat CPU 1 instructions: 500000002 cycles: 207983285 heartbeat IPC: 2.66 cumulative IPC: 2.298 (Simulation time: 03 hr 09 min 11 sec)
Heartbeat CPU 3 instructions: 480000000 cycles: 209951380 heartbeat IPC: 2.265 cumulative IPC: 2.098 (Simulation time: 03 hr 11 min 13 sec)
Heartbeat CPU 2 instructions: 380000003 cycles: 210084615 heartbeat IPC: 2.057 cumulative IPC: 1.637 (Simulation time: 03 hr 11 min 21 sec)
Heartbeat CPU 1 instructions: 510000004 cycles: 211707585 heartbeat IPC: 2.685 cumulative IPC: 2.306 (Simulation time: 03 hr 13 min 01 sec)
Heartbeat CPU 2 instructions: 390000000 cycles: 214781469 heartbeat IPC: 2.129 cumulative IPC: 1.649 (Simulation time: 03 hr 15 min 58 sec)
Heartbeat CPU 3 instructions: 490000002 cycles: 215508074 heartbeat IPC: 1.8 cumulative IPC: 2.089 (Simulation time: 03 hr 16 min 39 sec)
Heartbeat CPU 1 instructions: 520000004 cycles: 215555331 heartbeat IPC: 2.599 cumulative IPC: 2.311 (Simulation time: 03 hr 16 min 42 sec)
Heartbeat CPU 1 instructions: 530000002 cycles: 219336612 heartbeat IPC: 2.645 cumulative IPC: 2.318 (Simulation time: 03 hr 20 min 17 sec)
Heartbeat CPU 2 instructions: 400000000 cycles: 219711730 heartbeat IPC: 2.028 cumulative IPC: 1.659 (Simulation time: 03 hr 20 min 38 sec)
Heartbeat CPU 3 instructions: 500000002 cycles: 220992100 heartbeat IPC: 1.823 cumulative IPC: 2.082 (Simulation time: 03 hr 21 min 51 sec)
Heartbeat CPU 0 instructions: 180000001 cycles: 221030068 heartbeat IPC: 0.6268 cumulative IPC: 0.6495 (Simulation time: 03 hr 21 min 53 sec)
Heartbeat CPU 1 instructions: 540000002 cycles: 223125283 heartbeat IPC: 2.639 cumulative IPC: 2.324 (Simulation time: 03 hr 23 min 50 sec)
Heartbeat CPU 2 instructions: 410000001 cycles: 225055082 heartbeat IPC: 1.871 cumulative IPC: 1.664 (Simulation time: 03 hr 25 min 38 sec)
Heartbeat CPU 3 instructions: 510000002 cycles: 226409994 heartbeat IPC: 1.846 cumulative IPC: 2.076 (Simulation time: 03 hr 26 min 53 sec)
Heartbeat CPU 1 instructions: 550000001 cycles: 226914417 heartbeat IPC: 2.639 cumulative IPC: 2.33 (Simulation time: 03 hr 27 min 22 sec)
Heartbeat CPU 1 instructions: 560000002 cycles: 230731448 heartbeat IPC: 2.62 cumulative IPC: 2.335 (Simulation time: 03 hr 30 min 48 sec)
Heartbeat CPU 3 instructions: 520000004 cycles: 231891738 heartbeat IPC: 1.824 cumulative IPC: 2.069 (Simulation time: 03 hr 31 min 46 sec)
Heartbeat CPU 2 instructions: 420000002 cycles: 232343834 heartbeat IPC: 1.372 cumulative IPC: 1.654 (Simulation time: 03 hr 32 min 08 sec)
Heartbeat CPU 1 instructions: 570000001 cycles: 234566439 heartbeat IPC: 2.608 cumulative IPC: 2.34 (Simulation time: 03 hr 34 min 06 sec)
Heartbeat CPU 0 instructions: 190000003 cycles: 236951869 heartbeat IPC: 0.6281 cumulative IPC: 0.6479 (Simulation time: 03 hr 36 min 14 sec)
Heartbeat CPU 3 instructions: 530000003 cycles: 237303356 heartbeat IPC: 1.848 cumulative IPC: 2.063 (Simulation time: 03 hr 36 min 33 sec)
Heartbeat CPU 1 instructions: 580000004 cycles: 238354509 heartbeat IPC: 2.64 cumulative IPC: 2.345 (Simulation time: 03 hr 37 min 30 sec)
Heartbeat CPU 2 instructions: 430000002 cycles: 239133936 heartbeat IPC: 1.473 cumulative IPC: 1.648 (Simulation time: 03 hr 38 min 12 sec)
Heartbeat CPU 1 instructions: 590000000 cycles: 242165340 heartbeat IPC: 2.624 cumulative IPC: 2.35 (Simulation time: 03 hr 40 min 55 sec)
Heartbeat CPU 3 instructions: 540000000 cycles: 242727068 heartbeat IPC: 1.844 cumulative IPC: 2.058 (Simulation time: 03 hr 41 min 25 sec)
Heartbeat CPU 2 instructions: 440000001 cycles: 245493605 heartbeat IPC: 1.572 cumulative IPC: 1.646 (Simulation time: 03 hr 43 min 55 sec)
Heartbeat CPU 1 instructions: 600000002 cycles: 245990256 heartbeat IPC: 2.614 cumulative IPC: 2.354 (Simulation time: 03 hr 44 min 22 sec)
Heartbeat CPU 3 instructions: 550000002 cycles: 248189437 heartbeat IPC: 1.831 cumulative IPC: 2.053 (Simulation time: 03 hr 46 min 22 sec)
Heartbeat CPU 1 instructions: 610000000 cycles: 249820309 heartbeat IPC: 2.611 cumulative IPC: 2.359 (Simulation time: 03 hr 47 min 50 sec)
Heartbeat CPU 2 instructions: 450000001 cycles: 251672742 heartbeat IPC: 1.618 cumulative IPC: 1.646 (Simulation time: 03 hr 49 min 31 sec)
Heartbeat CPU 0 instructions: 200000001 cycles: 253152325 heartbeat IPC: 0.6173 cumulative IPC: 0.6458 (Simulation time: 03 hr 50 min 57 sec)
Simulation finished CPU 0 instructions: 150000003 cycles: 232279828 cumulative IPC: 0.6458 (Simulation time: 03 hr 50 min 57 sec)
Simulation complete CPU 0 instructions: 150000003 cycles: 232279828 cumulative IPC: 0.6458 (Simulation time: 03 hr 50 min 57 sec)
Simulation complete CPU 1 instructions: 548773725 cycles: 232279828 cumulative IPC: 2.363 (Simulation time: 03 hr 50 min 57 sec)
Simulation complete CPU 2 instructions: 383179012 cycles: 232279828 cumulative IPC: 1.65 (Simulation time: 03 hr 50 min 57 sec)
Simulation complete CPU 3 instructions: 475686315 cycles: 232279828 cumulative IPC: 2.048 (Simulation time: 03 hr 50 min 57 sec)

ChampSim completed all CPUs

=== Simulation ===
CPU 0 runs /home/grads/r/rdas40/dpc3_traces/620.omnetpp_s-874B.champsimtrace.xzCPU 1 runs /home/grads/r/rdas40/dpc3_traces/644.nab_s-5853B.champsimtrace.xzCPU 2 runs /home/grads/r/rdas40/dpc3_traces/623.xalancbmk_s-700B.champsimtrace.xzCPU 3 runs /home/grads/r/rdas40/dpc3_traces/621.wrf_s-575B.champsimtrace.xz
Total Simulation Statistics (not including warmup)

CPU 0 cumulative IPC: 0.6458 instructions: 150000003 cycles: 232279828
CPU 0 Branch Prediction Accuracy: 94.9% MPKI: 10.6 Average ROB Occupancy at Mispredict: 80.32
Branch type MPKI
BRANCH_DIRECT_JUMP: 0.923
BRANCH_INDIRECT: 0.128
BRANCH_CONDITIONAL: 8.42
BRANCH_DIRECT_CALL: 0.00016
BRANCH_INDIRECT_CALL: 0.734
BRANCH_RETURN: 0.399


CPU 1 cumulative IPC: 2.363 instructions: 548773725 cycles: 232279828
CPU 1 Branch Prediction Accuracy: 87.21% MPKI: 12.38 Average ROB Occupancy at Mispredict: 152.3
Branch type MPKI
BRANCH_DIRECT_JUMP: 0.000129
BRANCH_INDIRECT: 0
BRANCH_CONDITIONAL: 6.86
BRANCH_DIRECT_CALL: 1.82e-06
BRANCH_INDIRECT_CALL: 0
BRANCH_RETURN: 5.53


CPU 2 cumulative IPC: 1.65 instructions: 383179012 cycles: 232279828
CPU 2 Branch Prediction Accuracy: 97.23% MPKI: 7.943 Average ROB Occupancy at Mispredict: 40.79
Branch type MPKI
BRANCH_DIRECT_JUMP: 0.11
BRANCH_INDIRECT: 0.345
BRANCH_CONDITIONAL: 5.67
BRANCH_DIRECT_CALL: 0.000438
BRANCH_INDIRECT_CALL: 0.375
BRANCH_RETURN: 1.44


CPU 3 cumulative IPC: 2.048 instructions: 475686315 cycles: 232279828
CPU 3 Branch Prediction Accuracy: 95.51% MPKI: 6.069 Average ROB Occupancy at Mispredict: 91.39
Branch type MPKI
BRANCH_DIRECT_JUMP: 0.00045
BRANCH_INDIRECT: 1.26e-05
BRANCH_CONDITIONAL: 5.83
BRANCH_DIRECT_CALL: 0.00246
BRANCH_INDIRECT_CALL: 0
BRANCH_RETURN: 0.24

LLC TOTAL        ACCESS:    3517828 HIT:    1823311 MISS:    1694517
LLC LOAD         ACCESS:    1690719 HIT:     575802 MISS:    1114917
LLC RFO          ACCESS:     257722 HIT:     154050 MISS:     103672
LLC PREFETCH     ACCESS:          0 HIT:          0 MISS:          0
LLC WRITE        ACCESS:     973122 HIT:     972274 MISS:        848
LLC TRANSLATION  ACCESS:     596265 HIT:     121185 MISS:     475080
LLC PREFETCH REQUESTED:          0 ISSUED:          0 USEFUL:          0 USELESS:          0
LLC AVERAGE MISS LATENCY: 285 cycles
LLC TOTAL        ACCESS:     114851 HIT:       1276 MISS:     113575
LLC LOAD         ACCESS:     109085 HIT:        790 MISS:     108295
LLC RFO          ACCESS:        292 HIT:        127 MISS:        165
LLC PREFETCH     ACCESS:          0 HIT:          0 MISS:          0
LLC WRITE        ACCESS:       3935 HIT:        335 MISS:       3600
LLC TRANSLATION  ACCESS:       1539 HIT:         24 MISS:       1515
LLC PREFETCH REQUESTED:          0 ISSUED:          0 USEFUL:          0 USELESS:          0
LLC AVERAGE MISS LATENCY: 285 cycles
LLC TOTAL        ACCESS:    1727692 HIT:    1124860 MISS:     602832
LLC LOAD         ACCESS:     567394 HIT:     451018 MISS:     116376
LLC RFO          ACCESS:     502359 HIT:      44764 MISS:     457595
LLC PREFETCH     ACCESS:          0 HIT:          0 MISS:          0
LLC WRITE        ACCESS:     595212 HIT:     588614 MISS:       6598
LLC TRANSLATION  ACCESS:      62727 HIT:      40464 MISS:      22263
LLC PREFETCH REQUESTED:          0 ISSUED:          0 USEFUL:          0 USELESS:          0
LLC AVERAGE MISS LATENCY: 285 cycles
LLC TOTAL        ACCESS:     804924 HIT:     411608 MISS:     393316
LLC LOAD         ACCESS:     225983 HIT:      47227 MISS:     178756
LLC RFO          ACCESS:     274936 HIT:      76397 MISS:     198539
LLC PREFETCH     ACCESS:          0 HIT:          0 MISS:          0
LLC WRITE        ACCESS:     301927 HIT:     287056 MISS:      14871
LLC TRANSLATION  ACCESS:       2078 HIT:        928 MISS:       1150
LLC PREFETCH REQUESTED:          0 ISSUED:          0 USEFUL:          0 USELESS:          0
LLC AVERAGE MISS LATENCY: 285 cycles
cpu0_DTLB TOTAL        ACCESS:   38227302 HIT:   34939454 MISS:    3287848
cpu0_DTLB LOAD         ACCESS:   38227302 HIT:   34939454 MISS:    3287848
cpu0_DTLB RFO          ACCESS:          0 HIT:          0 MISS:          0
cpu0_DTLB PREFETCH     ACCESS:          0 HIT:          0 MISS:          0
cpu0_DTLB WRITE        ACCESS:          0 HIT:          0 MISS:          0
cpu0_DTLB TRANSLATION  ACCESS:          0 HIT:          0 MISS:          0
cpu0_DTLB PREFETCH REQUESTED:          0 ISSUED:          0 USEFUL:          0 USELESS:          0
cpu0_DTLB AVERAGE MISS LATENCY: 43.43 cycles
cpu0_DTLB TOTAL        ACCESS:          0 HIT:          0 MISS:          0
cpu0_DTLB LOAD         ACCESS:          0 HIT:          0 MISS:          0
cpu0_DTLB RFO          ACCESS:          0 HIT:          0 MISS:          0
cpu0_DTLB PREFETCH     ACCESS:          0 HIT:          0 MISS:          0
cpu0_DTLB WRITE        ACCESS:          0 HIT:          0 MISS:          0
cpu0_DTLB TRANSLATION  ACCESS:          0 HIT:          0 MISS:          0
cpu0_DTLB PREFETCH REQUESTED:          0 ISSUED:          0 USEFUL:          0 USELESS:          0
cpu0_DTLB AVERAGE MISS LATENCY: 43.43 cycles
cpu0_DTLB TOTAL        ACCESS:          0 HIT:          0 MISS:          0
cpu0_DTLB LOAD         ACCESS:          0 HIT:          0 MISS:          0
cpu0_DTLB RFO          ACCESS:          0 HIT:          0 MISS:          0
cpu0_DTLB PREFETCH     ACCESS:          0 HIT:          0 MISS:          0
cpu0_DTLB WRITE        ACCESS:          0 HIT:          0 MISS:          0
cpu0_DTLB TRANSLATION  ACCESS:          0 HIT:          0 MISS:          0
cpu0_DTLB PREFETCH REQUESTED:          0 ISSUED:          0 USEFUL:          0 USELESS:          0
cpu0_DTLB AVERAGE MISS LATENCY: 43.43 cycles
cpu0_DTLB TOTAL        ACCESS:          0 HIT:          0 MISS:          0
cpu0_DTLB LOAD         ACCESS:          0 HIT:          0 MISS:          0
cpu0_DTLB RFO          ACCESS:          0 HIT:          0 MISS:          0
cpu0_DTLB PREFETCH     ACCESS:          0 HIT:          0 MISS:          0
cpu0_DTLB WRITE        ACCESS:          0 HIT:          0 MISS:          0
cpu0_DTLB TRANSLATION  ACCESS:          0 HIT:          0 MISS:          0
cpu0_DTLB PREFETCH REQUESTED:          0 ISSUED:          0 USEFUL:          0 USELESS:          0
cpu0_DTLB AVERAGE MISS LATENCY: 43.43 cycles
cpu0_ITLB TOTAL        ACCESS:   10748569 HIT:   10477629 MISS:     270940
cpu0_ITLB LOAD         ACCESS:   10748569 HIT:   10477629 MISS:     270940
cpu0_ITLB RFO          ACCESS:          0 HIT:          0 MISS:          0
cpu0_ITLB PREFETCH     ACCESS:          0 HIT:          0 MISS:          0
cpu0_ITLB WRITE        ACCESS:          0 HIT:          0 MISS:          0
cpu0_ITLB TRANSLATION  ACCESS:          0 HIT:          0 MISS:          0
cpu0_ITLB PREFETCH REQUESTED:          0 ISSUED:          0 USEFUL:          0 USELESS:          0
cpu0_ITLB AVERAGE MISS LATENCY: 5.038 cycles
cpu0_ITLB TOTAL        ACCESS:          0 HIT:          0 MISS:          0
cpu0_ITLB LOAD         ACCESS:          0 HIT:          0 MISS:          0
cpu0_ITLB RFO          ACCESS:          0 HIT:          0 MISS:          0
cpu0_ITLB PREFETCH     ACCESS:          0 HIT:          0 MISS:          0
cpu0_ITLB WRITE        ACCESS:          0 HIT:          0 MISS:          0
cpu0_ITLB TRANSLATION  ACCESS:          0 HIT:          0 MISS:          0
cpu0_ITLB PREFETCH REQUESTED:          0 ISSUED:          0 USEFUL:          0 USELESS:          0
cpu0_ITLB AVERAGE MISS LATENCY: 5.038 cycles
cpu0_ITLB TOTAL        ACCESS:          0 HIT:          0 MISS:          0
cpu0_ITLB LOAD         ACCESS:          0 HIT:          0 MISS:          0
cpu0_ITLB RFO          ACCESS:          0 HIT:          0 MISS:          0
cpu0_ITLB PREFETCH     ACCESS:          0 HIT:          0 MISS:          0
cpu0_ITLB WRITE        ACCESS:          0 HIT:          0 MISS:          0
cpu0_ITLB TRANSLATION  ACCESS:          0 HIT:          0 MISS:          0
cpu0_ITLB PREFETCH REQUESTED:          0 ISSUED:          0 USEFUL:          0 USELESS:          0
cpu0_ITLB AVERAGE MISS LATENCY: 5.038 cycles
cpu0_ITLB TOTAL        ACCESS:          0 HIT:          0 MISS:          0
cpu0_ITLB LOAD         ACCESS:          0 HIT:          0 MISS:          0
cpu0_ITLB RFO          ACCESS:          0 HIT:          0 MISS:          0
cpu0_ITLB PREFETCH     ACCESS:          0 HIT:          0 MISS:          0
cpu0_ITLB WRITE        ACCESS:          0 HIT:          0 MISS:          0
cpu0_ITLB TRANSLATION  ACCESS:          0 HIT:          0 MISS:          0
cpu0_ITLB PREFETCH REQUESTED:          0 ISSUED:          0 USEFUL:          0 USELESS:          0
cpu0_ITLB AVERAGE MISS LATENCY: 5.038 cycles
cpu0_L1D TOTAL        ACCESS:   49772396 HIT:   44926659 MISS:    4845737
cpu0_L1D LOAD         ACCESS:   22896342 HIT:   19857454 MISS:    3038888
cpu0_L1D RFO          ACCESS:          0 HIT:          0 MISS:          0
cpu0_L1D PREFETCH     ACCESS:          0 HIT:          0 MISS:          0
cpu0_L1D WRITE        ACCESS:   25984855 HIT:   24924062 MISS:    1060793
cpu0_L1D TRANSLATION  ACCESS:     891199 HIT:     145143 MISS:     746056
cpu0_L1D PREFETCH REQUESTED:          0 ISSUED:          0 USEFUL:          0 USELESS:          0
cpu0_L1D AVERAGE MISS LATENCY: 86.51 cycles
cpu0_L1D TOTAL        ACCESS:          0 HIT:          0 MISS:          0
cpu0_L1D LOAD         ACCESS:          0 HIT:          0 MISS:          0
cpu0_L1D RFO          ACCESS:          0 HIT:          0 MISS:          0
cpu0_L1D PREFETCH     ACCESS:          0 HIT:          0 MISS:          0
cpu0_L1D WRITE        ACCESS:          0 HIT:          0 MISS:          0
cpu0_L1D TRANSLATION  ACCESS:          0 HIT:          0 MISS:          0
cpu0_L1D PREFETCH REQUESTED:          0 ISSUED:          0 USEFUL:          0 USELESS:          0
cpu0_L1D AVERAGE MISS LATENCY: 86.51 cycles
cpu0_L1D TOTAL        ACCESS:          0 HIT:          0 MISS:          0
cpu0_L1D LOAD         ACCESS:          0 HIT:          0 MISS:          0
cpu0_L1D RFO          ACCESS:          0 HIT:          0 MISS:          0
cpu0_L1D PREFETCH     ACCESS:          0 HIT:          0 MISS:          0
cpu0_L1D WRITE        ACCESS:          0 HIT:          0 MISS:          0
cpu0_L1D TRANSLATION  ACCESS:          0 HIT:          0 MISS:          0
cpu0_L1D PREFETCH REQUESTED:          0 ISSUED:          0 USEFUL:          0 USELESS:          0
cpu0_L1D AVERAGE MISS LATENCY: 86.51 cycles
cpu0_L1D TOTAL        ACCESS:          0 HIT:          0 MISS:          0
cpu0_L1D LOAD         ACCESS:          0 HIT:          0 MISS:          0
cpu0_L1D RFO          ACCESS:          0 HIT:          0 MISS:          0
cpu0_L1D PREFETCH     ACCESS:          0 HIT:          0 MISS:          0
cpu0_L1D WRITE        ACCESS:          0 HIT:          0 MISS:          0
cpu0_L1D TRANSLATION  ACCESS:          0 HIT:          0 MISS:          0
cpu0_L1D PREFETCH REQUESTED:          0 ISSUED:          0 USEFUL:          0 USELESS:          0
cpu0_L1D AVERAGE MISS LATENCY: 86.51 cycles
cpu0_L1I TOTAL        ACCESS:   12860168 HIT:   12785989 MISS:      74179
cpu0_L1I LOAD         ACCESS:   12860168 HIT:   12785989 MISS:      74179
cpu0_L1I RFO          ACCESS:          0 HIT:          0 MISS:          0
cpu0_L1I PREFETCH     ACCESS:          0 HIT:          0 MISS:          0
cpu0_L1I WRITE        ACCESS:          0 HIT:          0 MISS:          0
cpu0_L1I TRANSLATION  ACCESS:          0 HIT:          0 MISS:          0
cpu0_L1I PREFETCH REQUESTED:          0 ISSUED:          0 USEFUL:          0 USELESS:          0
cpu0_L1I AVERAGE MISS LATENCY: 14.71 cycles
cpu0_L1I TOTAL        ACCESS:          0 HIT:          0 MISS:          0
cpu0_L1I LOAD         ACCESS:          0 HIT:          0 MISS:          0
cpu0_L1I RFO          ACCESS:          0 HIT:          0 MISS:          0
cpu0_L1I PREFETCH     ACCESS:          0 HIT:          0 MISS:          0
cpu0_L1I WRITE        ACCESS:          0 HIT:          0 MISS:          0
cpu0_L1I TRANSLATION  ACCESS:          0 HIT:          0 MISS:          0
cpu0_L1I PREFETCH REQUESTED:          0 ISSUED:          0 USEFUL:          0 USELESS:          0
cpu0_L1I AVERAGE MISS LATENCY: 14.71 cycles
cpu0_L1I TOTAL        ACCESS:          0 HIT:          0 MISS:          0
cpu0_L1I LOAD         ACCESS:          0 HIT:          0 MISS:          0
cpu0_L1I RFO          ACCESS:          0 HIT:          0 MISS:          0
cpu0_L1I PREFETCH     ACCESS:          0 HIT:          0 MISS:          0
cpu0_L1I WRITE        ACCESS:          0 HIT:          0 MISS:          0
cpu0_L1I TRANSLATION  ACCESS:          0 HIT:          0 MISS:          0
cpu0_L1I PREFETCH REQUESTED:          0 ISSUED:          0 USEFUL:          0 USELESS:          0
cpu0_L1I AVERAGE MISS LATENCY: 14.71 cycles
cpu0_L1I TOTAL        ACCESS:          0 HIT:          0 MISS:          0
cpu0_L1I LOAD         ACCESS:          0 HIT:          0 MISS:          0
cpu0_L1I RFO          ACCESS:          0 HIT:          0 MISS:          0
cpu0_L1I PREFETCH     ACCESS:          0 HIT:          0 MISS:          0
cpu0_L1I WRITE        ACCESS:          0 HIT:          0 MISS:          0
cpu0_L1I TRANSLATION  ACCESS:          0 HIT:          0 MISS:          0
cpu0_L1I PREFETCH REQUESTED:          0 ISSUED:          0 USEFUL:          0 USELESS:          0
cpu0_L1I AVERAGE MISS LATENCY: 14.71 cycles
cpu0_L2C TOTAL        ACCESS:    5052110 HIT:    2505051 MISS:    2547059
cpu0_L2C LOAD         ACCESS:    2539493 HIT:     848774 MISS:    1690719
cpu0_L2C RFO          ACCESS:     365550 HIT:     107828 MISS:     257722
cpu0_L2C PREFETCH     ACCESS:          0 HIT:          0 MISS:          0
cpu0_L2C WRITE        ACCESS:    1401811 HIT:    1399458 MISS:       2353
cpu0_L2C TRANSLATION  ACCESS:     745256 HIT:     148991 MISS:     596265
cpu0_L2C PREFETCH REQUESTED:          0 ISSUED:          0 USEFUL:          0 USELESS:          0
cpu0_L2C AVERAGE MISS LATENCY: 155.6 cycles
cpu0_L2C TOTAL        ACCESS:          0 HIT:          0 MISS:          0
cpu0_L2C LOAD         ACCESS:          0 HIT:          0 MISS:          0
cpu0_L2C RFO          ACCESS:          0 HIT:          0 MISS:          0
cpu0_L2C PREFETCH     ACCESS:          0 HIT:          0 MISS:          0
cpu0_L2C WRITE        ACCESS:          0 HIT:          0 MISS:          0
cpu0_L2C TRANSLATION  ACCESS:          0 HIT:          0 MISS:          0
cpu0_L2C PREFETCH REQUESTED:          0 ISSUED:          0 USEFUL:          0 USELESS:          0
cpu0_L2C AVERAGE MISS LATENCY: 155.6 cycles
cpu0_L2C TOTAL        ACCESS:          0 HIT:          0 MISS:          0
cpu0_L2C LOAD         ACCESS:          0 HIT:          0 MISS:          0
cpu0_L2C RFO          ACCESS:          0 HIT:          0 MISS:          0
cpu0_L2C PREFETCH     ACCESS:          0 HIT:          0 MISS:          0
cpu0_L2C WRITE        ACCESS:          0 HIT:          0 MISS:          0
cpu0_L2C TRANSLATION  ACCESS:          0 HIT:          0 MISS:          0
cpu0_L2C PREFETCH REQUESTED:          0 ISSUED:          0 USEFUL:          0 USELESS:          0
cpu0_L2C AVERAGE MISS LATENCY: 155.6 cycles
cpu0_L2C TOTAL        ACCESS:          0 HIT:          0 MISS:          0
cpu0_L2C LOAD         ACCESS:          0 HIT:          0 MISS:          0
cpu0_L2C RFO          ACCESS:          0 HIT:          0 MISS:          0
cpu0_L2C PREFETCH     ACCESS:          0 HIT:          0 MISS:          0
cpu0_L2C WRITE        ACCESS:          0 HIT:          0 MISS:          0
cpu0_L2C TRANSLATION  ACCESS:          0 HIT:          0 MISS:          0
cpu0_L2C PREFETCH REQUESTED:          0 ISSUED:          0 USEFUL:          0 USELESS:          0
cpu0_L2C AVERAGE MISS LATENCY: 155.6 cycles
cpu0_STLB TOTAL        ACCESS:    3014208 HIT:    2371760 MISS:     642448
cpu0_STLB LOAD         ACCESS:    3014208 HIT:    2371760 MISS:     642448
cpu0_STLB RFO          ACCESS:          0 HIT:          0 MISS:          0
cpu0_STLB PREFETCH     ACCESS:          0 HIT:          0 MISS:          0
cpu0_STLB WRITE        ACCESS:          0 HIT:          0 MISS:          0
cpu0_STLB TRANSLATION  ACCESS:          0 HIT:          0 MISS:          0
cpu0_STLB PREFETCH REQUESTED:          0 ISSUED:          0 USEFUL:          0 USELESS:          0
cpu0_STLB AVERAGE MISS LATENCY: 195.3 cycles
cpu0_STLB TOTAL        ACCESS:          0 HIT:          0 MISS:          0
cpu0_STLB LOAD         ACCESS:          0 HIT:          0 MISS:          0
cpu0_STLB RFO          ACCESS:          0 HIT:          0 MISS:          0
cpu0_STLB PREFETCH     ACCESS:          0 HIT:          0 MISS:          0
cpu0_STLB WRITE        ACCESS:          0 HIT:          0 MISS:          0
cpu0_STLB TRANSLATION  ACCESS:          0 HIT:          0 MISS:          0
cpu0_STLB PREFETCH REQUESTED:          0 ISSUED:          0 USEFUL:          0 USELESS:          0
cpu0_STLB AVERAGE MISS LATENCY: 195.3 cycles
cpu0_STLB TOTAL        ACCESS:          0 HIT:          0 MISS:          0
cpu0_STLB LOAD         ACCESS:          0 HIT:          0 MISS:          0
cpu0_STLB RFO          ACCESS:          0 HIT:          0 MISS:          0
cpu0_STLB PREFETCH     ACCESS:          0 HIT:          0 MISS:          0
cpu0_STLB WRITE        ACCESS:          0 HIT:          0 MISS:          0
cpu0_STLB TRANSLATION  ACCESS:          0 HIT:          0 MISS:          0
cpu0_STLB PREFETCH REQUESTED:          0 ISSUED:          0 USEFUL:          0 USELESS:          0
cpu0_STLB AVERAGE MISS LATENCY: 195.3 cycles
cpu0_STLB TOTAL        ACCESS:          0 HIT:          0 MISS:          0
cpu0_STLB LOAD         ACCESS:          0 HIT:          0 MISS:          0
cpu0_STLB RFO          ACCESS:          0 HIT:          0 MISS:          0
cpu0_STLB PREFETCH     ACCESS:          0 HIT:          0 MISS:          0
cpu0_STLB WRITE        ACCESS:          0 HIT:          0 MISS:          0
cpu0_STLB TRANSLATION  ACCESS:          0 HIT:          0 MISS:          0
cpu0_STLB PREFETCH REQUESTED:          0 ISSUED:          0 USEFUL:          0 USELESS:          0
cpu0_STLB AVERAGE MISS LATENCY: 195.3 cycles
cpu1_DTLB TOTAL        ACCESS:          0 HIT:          0 MISS:          0
cpu1_DTLB LOAD         ACCESS:          0 HIT:          0 MISS:          0
cpu1_DTLB RFO          ACCESS:          0 HIT:          0 MISS:          0
cpu1_DTLB PREFETCH     ACCESS:          0 HIT:          0 MISS:          0
cpu1_DTLB WRITE        ACCESS:          0 HIT:          0 MISS:          0
cpu1_DTLB TRANSLATION  ACCESS:          0 HIT:          0 MISS:          0
cpu1_DTLB PREFETCH REQUESTED:          0 ISSUED:          0 USEFUL:          0 USELESS:          0
cpu1_DTLB AVERAGE MISS LATENCY: 10.07 cycles
cpu1_DTLB TOTAL        ACCESS:  100917572 HIT:  100453875 MISS:     463697
cpu1_DTLB LOAD         ACCESS:  100917572 HIT:  100453875 MISS:     463697
cpu1_DTLB RFO          ACCESS:          0 HIT:          0 MISS:          0
cpu1_DTLB PREFETCH     ACCESS:          0 HIT:          0 MISS:          0
cpu1_DTLB WRITE        ACCESS:          0 HIT:          0 MISS:          0
cpu1_DTLB TRANSLATION  ACCESS:          0 HIT:          0 MISS:          0
cpu1_DTLB PREFETCH REQUESTED:          0 ISSUED:          0 USEFUL:          0 USELESS:          0
cpu1_DTLB AVERAGE MISS LATENCY: 10.07 cycles
cpu1_DTLB TOTAL        ACCESS:          0 HIT:          0 MISS:          0
cpu1_DTLB LOAD         ACCESS:          0 HIT:          0 MISS:          0
cpu1_DTLB RFO          ACCESS:          0 HIT:          0 MISS:          0
cpu1_DTLB PREFETCH     ACCESS:          0 HIT:          0 MISS:          0
cpu1_DTLB WRITE        ACCESS:          0 HIT:          0 MISS:          0
cpu1_DTLB TRANSLATION  ACCESS:          0 HIT:          0 MISS:          0
cpu1_DTLB PREFETCH REQUESTED:          0 ISSUED:          0 USEFUL:          0 USELESS:          0
cpu1_DTLB AVERAGE MISS LATENCY: 10.07 cycles
cpu1_DTLB TOTAL        ACCESS:          0 HIT:          0 MISS:          0
cpu1_DTLB LOAD         ACCESS:          0 HIT:          0 MISS:          0
cpu1_DTLB RFO          ACCESS:          0 HIT:          0 MISS:          0
cpu1_DTLB PREFETCH     ACCESS:          0 HIT:          0 MISS:          0
cpu1_DTLB WRITE        ACCESS:          0 HIT:          0 MISS:          0
cpu1_DTLB TRANSLATION  ACCESS:          0 HIT:          0 MISS:          0
cpu1_DTLB PREFETCH REQUESTED:          0 ISSUED:          0 USEFUL:          0 USELESS:          0
cpu1_DTLB AVERAGE MISS LATENCY: 10.07 cycles
cpu1_ITLB TOTAL        ACCESS:          0 HIT:          0 MISS:          0
cpu1_ITLB LOAD         ACCESS:          0 HIT:          0 MISS:          0
cpu1_ITLB RFO          ACCESS:          0 HIT:          0 MISS:          0
cpu1_ITLB PREFETCH     ACCESS:          0 HIT:          0 MISS:          0
cpu1_ITLB WRITE        ACCESS:          0 HIT:          0 MISS:          0
cpu1_ITLB TRANSLATION  ACCESS:          0 HIT:          0 MISS:          0
cpu1_ITLB PREFETCH REQUESTED:          0 ISSUED:          0 USEFUL:          0 USELESS:          0
cpu1_ITLB AVERAGE MISS LATENCY: -nan cycles
cpu1_ITLB TOTAL        ACCESS:       5384 HIT:       5384 MISS:          0
cpu1_ITLB LOAD         ACCESS:       5384 HIT:       5384 MISS:          0
cpu1_ITLB RFO          ACCESS:          0 HIT:          0 MISS:          0
cpu1_ITLB PREFETCH     ACCESS:          0 HIT:          0 MISS:          0
cpu1_ITLB WRITE        ACCESS:          0 HIT:          0 MISS:          0
cpu1_ITLB TRANSLATION  ACCESS:          0 HIT:          0 MISS:          0
cpu1_ITLB PREFETCH REQUESTED:          0 ISSUED:          0 USEFUL:          0 USELESS:          0
cpu1_ITLB AVERAGE MISS LATENCY: -nan cycles
cpu1_ITLB TOTAL        ACCESS:          0 HIT:          0 MISS:          0
cpu1_ITLB LOAD         ACCESS:          0 HIT:          0 MISS:          0
cpu1_ITLB RFO          ACCESS:          0 HIT:          0 MISS:          0
cpu1_ITLB PREFETCH     ACCESS:          0 HIT:          0 MISS:          0
cpu1_ITLB WRITE        ACCESS:          0 HIT:          0 MISS:          0
cpu1_ITLB TRANSLATION  ACCESS:          0 HIT:          0 MISS:          0
cpu1_ITLB PREFETCH REQUESTED:          0 ISSUED:          0 USEFUL:          0 USELESS:          0
cpu1_ITLB AVERAGE MISS LATENCY: -nan cycles
cpu1_ITLB TOTAL        ACCESS:          0 HIT:          0 MISS:          0
cpu1_ITLB LOAD         ACCESS:          0 HIT:          0 MISS:          0
cpu1_ITLB RFO          ACCESS:          0 HIT:          0 MISS:          0
cpu1_ITLB PREFETCH     ACCESS:          0 HIT:          0 MISS:          0
cpu1_ITLB WRITE        ACCESS:          0 HIT:          0 MISS:          0
cpu1_ITLB TRANSLATION  ACCESS:          0 HIT:          0 MISS:          0
cpu1_ITLB PREFETCH REQUESTED:          0 ISSUED:          0 USEFUL:          0 USELESS:          0
cpu1_ITLB AVERAGE MISS LATENCY: -nan cycles
cpu1_L1D TOTAL        ACCESS:          0 HIT:          0 MISS:          0
cpu1_L1D LOAD         ACCESS:          0 HIT:          0 MISS:          0
cpu1_L1D RFO          ACCESS:          0 HIT:          0 MISS:          0
cpu1_L1D PREFETCH     ACCESS:          0 HIT:          0 MISS:          0
cpu1_L1D WRITE        ACCESS:          0 HIT:          0 MISS:          0
cpu1_L1D TRANSLATION  ACCESS:          0 HIT:          0 MISS:          0
cpu1_L1D PREFETCH REQUESTED:          0 ISSUED:          0 USEFUL:          0 USELESS:          0
cpu1_L1D AVERAGE MISS LATENCY: 21.46 cycles
cpu1_L1D TOTAL        ACCESS:  138152094 HIT:  135829736 MISS:    2322358
cpu1_L1D LOAD         ACCESS:   78831849 HIT:   76536105 MISS:    2295744
cpu1_L1D RFO          ACCESS:          0 HIT:          0 MISS:          0
cpu1_L1D PREFETCH     ACCESS:          0 HIT:          0 MISS:          0
cpu1_L1D WRITE        ACCESS:   59316283 HIT:   59293569 MISS:      22714
cpu1_L1D TRANSLATION  ACCESS:       3962 HIT:         62 MISS:       3900
cpu1_L1D PREFETCH REQUESTED:          0 ISSUED:          0 USEFUL:          0 USELESS:          0
cpu1_L1D AVERAGE MISS LATENCY: 21.46 cycles
cpu1_L1D TOTAL        ACCESS:          0 HIT:          0 MISS:          0
cpu1_L1D LOAD         ACCESS:          0 HIT:          0 MISS:          0
cpu1_L1D RFO          ACCESS:          0 HIT:          0 MISS:          0
cpu1_L1D PREFETCH     ACCESS:          0 HIT:          0 MISS:          0
cpu1_L1D WRITE        ACCESS:          0 HIT:          0 MISS:          0
cpu1_L1D TRANSLATION  ACCESS:          0 HIT:          0 MISS:          0
cpu1_L1D PREFETCH REQUESTED:          0 ISSUED:          0 USEFUL:          0 USELESS:          0
cpu1_L1D AVERAGE MISS LATENCY: 21.46 cycles
cpu1_L1D TOTAL        ACCESS:          0 HIT:          0 MISS:          0
cpu1_L1D LOAD         ACCESS:          0 HIT:          0 MISS:          0
cpu1_L1D RFO          ACCESS:          0 HIT:          0 MISS:          0
cpu1_L1D PREFETCH     ACCESS:          0 HIT:          0 MISS:          0
cpu1_L1D WRITE        ACCESS:          0 HIT:          0 MISS:          0
cpu1_L1D TRANSLATION  ACCESS:          0 HIT:          0 MISS:          0
cpu1_L1D PREFETCH REQUESTED:          0 ISSUED:          0 USEFUL:          0 USELESS:          0
cpu1_L1D AVERAGE MISS LATENCY: 21.46 cycles
cpu1_L1I TOTAL        ACCESS:          0 HIT:          0 MISS:          0
cpu1_L1I LOAD         ACCESS:          0 HIT:          0 MISS:          0
cpu1_L1I RFO          ACCESS:          0 HIT:          0 MISS:          0
cpu1_L1I PREFETCH     ACCESS:          0 HIT:          0 MISS:          0
cpu1_L1I WRITE        ACCESS:          0 HIT:          0 MISS:          0
cpu1_L1I TRANSLATION  ACCESS:          0 HIT:          0 MISS:          0
cpu1_L1I PREFETCH REQUESTED:          0 ISSUED:          0 USEFUL:          0 USELESS:          0
cpu1_L1I AVERAGE MISS LATENCY: 231 cycles
cpu1_L1I TOTAL        ACCESS:       6708 HIT:       6706 MISS:          2
cpu1_L1I LOAD         ACCESS:       6708 HIT:       6706 MISS:          2
cpu1_L1I RFO          ACCESS:          0 HIT:          0 MISS:          0
cpu1_L1I PREFETCH     ACCESS:          0 HIT:          0 MISS:          0
cpu1_L1I WRITE        ACCESS:          0 HIT:          0 MISS:          0
cpu1_L1I TRANSLATION  ACCESS:          0 HIT:          0 MISS:          0
cpu1_L1I PREFETCH REQUESTED:          0 ISSUED:          0 USEFUL:          0 USELESS:          0
cpu1_L1I AVERAGE MISS LATENCY: 231 cycles
cpu1_L1I TOTAL        ACCESS:          0 HIT:          0 MISS:          0
cpu1_L1I LOAD         ACCESS:          0 HIT:          0 MISS:          0
cpu1_L1I RFO          ACCESS:          0 HIT:          0 MISS:          0
cpu1_L1I PREFETCH     ACCESS:          0 HIT:          0 MISS:          0
cpu1_L1I WRITE        ACCESS:          0 HIT:          0 MISS:          0
cpu1_L1I TRANSLATION  ACCESS:          0 HIT:          0 MISS:          0
cpu1_L1I PREFETCH REQUESTED:          0 ISSUED:          0 USEFUL:          0 USELESS:          0
cpu1_L1I AVERAGE MISS LATENCY: 231 cycles
cpu1_L1I TOTAL        ACCESS:          0 HIT:          0 MISS:          0
cpu1_L1I LOAD         ACCESS:          0 HIT:          0 MISS:          0
cpu1_L1I RFO          ACCESS:          0 HIT:          0 MISS:          0
cpu1_L1I PREFETCH     ACCESS:          0 HIT:          0 MISS:          0
cpu1_L1I WRITE        ACCESS:          0 HIT:          0 MISS:          0
cpu1_L1I TRANSLATION  ACCESS:          0 HIT:          0 MISS:          0
cpu1_L1I PREFETCH REQUESTED:          0 ISSUED:          0 USEFUL:          0 USELESS:          0
cpu1_L1I AVERAGE MISS LATENCY: 231 cycles
cpu1_L2C TOTAL        ACCESS:          0 HIT:          0 MISS:          0
cpu1_L2C LOAD         ACCESS:          0 HIT:          0 MISS:          0
cpu1_L2C RFO          ACCESS:          0 HIT:          0 MISS:          0
cpu1_L2C PREFETCH     ACCESS:          0 HIT:          0 MISS:          0
cpu1_L2C WRITE        ACCESS:          0 HIT:          0 MISS:          0
cpu1_L2C TRANSLATION  ACCESS:          0 HIT:          0 MISS:          0
cpu1_L2C PREFETCH REQUESTED:          0 ISSUED:          0 USEFUL:          0 USELESS:          0
cpu1_L2C AVERAGE MISS LATENCY: 242.2 cycles
cpu1_L2C TOTAL        ACCESS:    3083157 HIT:    2972232 MISS:     110925
cpu1_L2C LOAD         ACCESS:    2285637 HIT:    2176552 MISS:     109085
cpu1_L2C RFO          ACCESS:       6107 HIT:       5815 MISS:        292
cpu1_L2C PREFETCH     ACCESS:          0 HIT:          0 MISS:          0
cpu1_L2C WRITE        ACCESS:     787513 HIT:     787504 MISS:          9
cpu1_L2C TRANSLATION  ACCESS:       3900 HIT:       2361 MISS:       1539
cpu1_L2C PREFETCH REQUESTED:          0 ISSUED:          0 USEFUL:          0 USELESS:          0
cpu1_L2C AVERAGE MISS LATENCY: 242.2 cycles
cpu1_L2C TOTAL        ACCESS:          0 HIT:          0 MISS:          0
cpu1_L2C LOAD         ACCESS:          0 HIT:          0 MISS:          0
cpu1_L2C RFO          ACCESS:          0 HIT:          0 MISS:          0
cpu1_L2C PREFETCH     ACCESS:          0 HIT:          0 MISS:          0
cpu1_L2C WRITE        ACCESS:          0 HIT:          0 MISS:          0
cpu1_L2C TRANSLATION  ACCESS:          0 HIT:          0 MISS:          0
cpu1_L2C PREFETCH REQUESTED:          0 ISSUED:          0 USEFUL:          0 USELESS:          0
cpu1_L2C AVERAGE MISS LATENCY: 242.2 cycles
cpu1_L2C TOTAL        ACCESS:          0 HIT:          0 MISS:          0
cpu1_L2C LOAD         ACCESS:          0 HIT:          0 MISS:          0
cpu1_L2C RFO          ACCESS:          0 HIT:          0 MISS:          0
cpu1_L2C PREFETCH     ACCESS:          0 HIT:          0 MISS:          0
cpu1_L2C WRITE        ACCESS:          0 HIT:          0 MISS:          0
cpu1_L2C TRANSLATION  ACCESS:          0 HIT:          0 MISS:          0
cpu1_L2C PREFETCH REQUESTED:          0 ISSUED:          0 USEFUL:          0 USELESS:          0
cpu1_L2C AVERAGE MISS LATENCY: 242.2 cycles
cpu1_STLB TOTAL        ACCESS:          0 HIT:          0 MISS:          0
cpu1_STLB LOAD         ACCESS:          0 HIT:          0 MISS:          0
cpu1_STLB RFO          ACCESS:          0 HIT:          0 MISS:          0
cpu1_STLB PREFETCH     ACCESS:          0 HIT:          0 MISS:          0
cpu1_STLB WRITE        ACCESS:          0 HIT:          0 MISS:          0
cpu1_STLB TRANSLATION  ACCESS:          0 HIT:          0 MISS:          0
cpu1_STLB PREFETCH REQUESTED:          0 ISSUED:          0 USEFUL:          0 USELESS:          0
cpu1_STLB AVERAGE MISS LATENCY: 316.7 cycles
cpu1_STLB TOTAL        ACCESS:     449409 HIT:     445513 MISS:       3896
cpu1_STLB LOAD         ACCESS:     449409 HIT:     445513 MISS:       3896
cpu1_STLB RFO          ACCESS:          0 HIT:          0 MISS:          0
cpu1_STLB PREFETCH     ACCESS:          0 HIT:          0 MISS:          0
cpu1_STLB WRITE        ACCESS:          0 HIT:          0 MISS:          0
cpu1_STLB TRANSLATION  ACCESS:          0 HIT:          0 MISS:          0
cpu1_STLB PREFETCH REQUESTED:          0 ISSUED:          0 USEFUL:          0 USELESS:          0
cpu1_STLB AVERAGE MISS LATENCY: 316.7 cycles
cpu1_STLB TOTAL        ACCESS:          0 HIT:          0 MISS:          0
cpu1_STLB LOAD         ACCESS:          0 HIT:          0 MISS:          0
cpu1_STLB RFO          ACCESS:          0 HIT:          0 MISS:          0
cpu1_STLB PREFETCH     ACCESS:          0 HIT:          0 MISS:          0
cpu1_STLB WRITE        ACCESS:          0 HIT:          0 MISS:          0
cpu1_STLB TRANSLATION  ACCESS:          0 HIT:          0 MISS:          0
cpu1_STLB PREFETCH REQUESTED:          0 ISSUED:          0 USEFUL:          0 USELESS:          0
cpu1_STLB AVERAGE MISS LATENCY: 316.7 cycles
cpu1_STLB TOTAL        ACCESS:          0 HIT:          0 MISS:          0
cpu1_STLB LOAD         ACCESS:          0 HIT:          0 MISS:          0
cpu1_STLB RFO          ACCESS:          0 HIT:          0 MISS:          0
cpu1_STLB PREFETCH     ACCESS:          0 HIT:          0 MISS:          0
cpu1_STLB WRITE        ACCESS:          0 HIT:          0 MISS:          0
cpu1_STLB TRANSLATION  ACCESS:          0 HIT:          0 MISS:          0
cpu1_STLB PREFETCH REQUESTED:          0 ISSUED:          0 USEFUL:          0 USELESS:          0
cpu1_STLB AVERAGE MISS LATENCY: 316.7 cycles
cpu2_DTLB TOTAL        ACCESS:          0 HIT:          0 MISS:          0
cpu2_DTLB LOAD         ACCESS:          0 HIT:          0 MISS:          0
cpu2_DTLB RFO          ACCESS:          0 HIT:          0 MISS:          0
cpu2_DTLB PREFETCH     ACCESS:          0 HIT:          0 MISS:          0
cpu2_DTLB WRITE        ACCESS:          0 HIT:          0 MISS:          0
cpu2_DTLB TRANSLATION  ACCESS:          0 HIT:          0 MISS:          0
cpu2_DTLB PREFETCH REQUESTED:          0 ISSUED:          0 USEFUL:          0 USELESS:          0
cpu2_DTLB AVERAGE MISS LATENCY: 6.063 cycles
cpu2_DTLB TOTAL        ACCESS:          0 HIT:          0 MISS:          0
cpu2_DTLB LOAD         ACCESS:          0 HIT:          0 MISS:          0
cpu2_DTLB RFO          ACCESS:          0 HIT:          0 MISS:          0
cpu2_DTLB PREFETCH     ACCESS:          0 HIT:          0 MISS:          0
cpu2_DTLB WRITE        ACCESS:          0 HIT:          0 MISS:          0
cpu2_DTLB TRANSLATION  ACCESS:          0 HIT:          0 MISS:          0
cpu2_DTLB PREFETCH REQUESTED:          0 ISSUED:          0 USEFUL:          0 USELESS:          0
cpu2_DTLB AVERAGE MISS LATENCY: 6.063 cycles
cpu2_DTLB TOTAL        ACCESS:   76503432 HIT:   62773820 MISS:   13729612
cpu2_DTLB LOAD         ACCESS:   76503432 HIT:   62773820 MISS:   13729612
cpu2_DTLB RFO          ACCESS:          0 HIT:          0 MISS:          0
cpu2_DTLB PREFETCH     ACCESS:          0 HIT:          0 MISS:          0
cpu2_DTLB WRITE        ACCESS:          0 HIT:          0 MISS:          0
cpu2_DTLB TRANSLATION  ACCESS:          0 HIT:          0 MISS:          0
cpu2_DTLB PREFETCH REQUESTED:          0 ISSUED:          0 USEFUL:          0 USELESS:          0
cpu2_DTLB AVERAGE MISS LATENCY: 6.063 cycles
cpu2_DTLB TOTAL        ACCESS:          0 HIT:          0 MISS:          0
cpu2_DTLB LOAD         ACCESS:          0 HIT:          0 MISS:          0
cpu2_DTLB RFO          ACCESS:          0 HIT:          0 MISS:          0
cpu2_DTLB PREFETCH     ACCESS:          0 HIT:          0 MISS:          0
cpu2_DTLB WRITE        ACCESS:          0 HIT:          0 MISS:          0
cpu2_DTLB TRANSLATION  ACCESS:          0 HIT:          0 MISS:          0
cpu2_DTLB PREFETCH REQUESTED:          0 ISSUED:          0 USEFUL:          0 USELESS:          0
cpu2_DTLB AVERAGE MISS LATENCY: 6.063 cycles
cpu2_ITLB TOTAL        ACCESS:          0 HIT:          0 MISS:          0
cpu2_ITLB LOAD         ACCESS:          0 HIT:          0 MISS:          0
cpu2_ITLB RFO          ACCESS:          0 HIT:          0 MISS:          0
cpu2_ITLB PREFETCH     ACCESS:          0 HIT:          0 MISS:          0
cpu2_ITLB WRITE        ACCESS:          0 HIT:          0 MISS:          0
cpu2_ITLB TRANSLATION  ACCESS:          0 HIT:          0 MISS:          0
cpu2_ITLB PREFETCH REQUESTED:          0 ISSUED:          0 USEFUL:          0 USELESS:          0
cpu2_ITLB AVERAGE MISS LATENCY: 3.925 cycles
cpu2_ITLB TOTAL        ACCESS:          0 HIT:          0 MISS:          0
cpu2_ITLB LOAD         ACCESS:          0 HIT:          0 MISS:          0
cpu2_ITLB RFO          ACCESS:          0 HIT:          0 MISS:          0
cpu2_ITLB PREFETCH     ACCESS:          0 HIT:          0 MISS:          0
cpu2_ITLB WRITE        ACCESS:          0 HIT:          0 MISS:          0
cpu2_ITLB TRANSLATION  ACCESS:          0 HIT:          0 MISS:          0
cpu2_ITLB PREFETCH REQUESTED:          0 ISSUED:          0 USEFUL:          0 USELESS:          0
cpu2_ITLB AVERAGE MISS LATENCY: 3.925 cycles
cpu2_ITLB TOTAL        ACCESS:   12311672 HIT:   12033967 MISS:     277705
cpu2_ITLB LOAD         ACCESS:   12311672 HIT:   12033967 MISS:     277705
cpu2_ITLB RFO          ACCESS:          0 HIT:          0 MISS:          0
cpu2_ITLB PREFETCH     ACCESS:          0 HIT:          0 MISS:          0
cpu2_ITLB WRITE        ACCESS:          0 HIT:          0 MISS:          0
cpu2_ITLB TRANSLATION  ACCESS:          0 HIT:          0 MISS:          0
cpu2_ITLB PREFETCH REQUESTED:          0 ISSUED:          0 USEFUL:          0 USELESS:          0
cpu2_ITLB AVERAGE MISS LATENCY: 3.925 cycles
cpu2_ITLB TOTAL        ACCESS:          0 HIT:          0 MISS:          0
cpu2_ITLB LOAD         ACCESS:          0 HIT:          0 MISS:          0
cpu2_ITLB RFO          ACCESS:          0 HIT:          0 MISS:          0
cpu2_ITLB PREFETCH     ACCESS:          0 HIT:          0 MISS:          0
cpu2_ITLB WRITE        ACCESS:          0 HIT:          0 MISS:          0
cpu2_ITLB TRANSLATION  ACCESS:          0 HIT:          0 MISS:          0
cpu2_ITLB PREFETCH REQUESTED:          0 ISSUED:          0 USEFUL:          0 USELESS:          0
cpu2_ITLB AVERAGE MISS LATENCY: 3.925 cycles
cpu2_L1D TOTAL        ACCESS:          0 HIT:          0 MISS:          0
cpu2_L1D LOAD         ACCESS:          0 HIT:          0 MISS:          0
cpu2_L1D RFO          ACCESS:          0 HIT:          0 MISS:          0
cpu2_L1D PREFETCH     ACCESS:          0 HIT:          0 MISS:          0
cpu2_L1D WRITE        ACCESS:          0 HIT:          0 MISS:          0
cpu2_L1D TRANSLATION  ACCESS:          0 HIT:          0 MISS:          0
cpu2_L1D PREFETCH REQUESTED:          0 ISSUED:          0 USEFUL:          0 USELESS:          0
cpu2_L1D AVERAGE MISS LATENCY: 14.51 cycles
cpu2_L1D TOTAL        ACCESS:          0 HIT:          0 MISS:          0
cpu2_L1D LOAD         ACCESS:          0 HIT:          0 MISS:          0
cpu2_L1D RFO          ACCESS:          0 HIT:          0 MISS:          0
cpu2_L1D PREFETCH     ACCESS:          0 HIT:          0 MISS:          0
cpu2_L1D WRITE        ACCESS:          0 HIT:          0 MISS:          0
cpu2_L1D TRANSLATION  ACCESS:          0 HIT:          0 MISS:          0
cpu2_L1D PREFETCH REQUESTED:          0 ISSUED:          0 USEFUL:          0 USELESS:          0
cpu2_L1D AVERAGE MISS LATENCY: 14.51 cycles
cpu2_L1D TOTAL        ACCESS:   96616166 HIT:   71738074 MISS:   24878092
cpu2_L1D LOAD         ACCESS:   69512209 HIT:   47535647 MISS:   21976562
cpu2_L1D RFO          ACCESS:          0 HIT:          0 MISS:          0
cpu2_L1D PREFETCH     ACCESS:          0 HIT:          0 MISS:          0
cpu2_L1D WRITE        ACCESS:   26505432 HIT:   24176166 MISS:    2329266
cpu2_L1D TRANSLATION  ACCESS:     598525 HIT:      26261 MISS:     572264
cpu2_L1D PREFETCH REQUESTED:          0 ISSUED:          0 USEFUL:          0 USELESS:          0
cpu2_L1D AVERAGE MISS LATENCY: 14.51 cycles
cpu2_L1D TOTAL        ACCESS:          0 HIT:          0 MISS:          0
cpu2_L1D LOAD         ACCESS:          0 HIT:          0 MISS:          0
cpu2_L1D RFO          ACCESS:          0 HIT:          0 MISS:          0
cpu2_L1D PREFETCH     ACCESS:          0 HIT:          0 MISS:          0
cpu2_L1D WRITE        ACCESS:          0 HIT:          0 MISS:          0
cpu2_L1D TRANSLATION  ACCESS:          0 HIT:          0 MISS:          0
cpu2_L1D PREFETCH REQUESTED:          0 ISSUED:          0 USEFUL:          0 USELESS:          0
cpu2_L1D AVERAGE MISS LATENCY: 14.51 cycles
cpu2_L1I TOTAL        ACCESS:          0 HIT:          0 MISS:          0
cpu2_L1I LOAD         ACCESS:          0 HIT:          0 MISS:          0
cpu2_L1I RFO          ACCESS:          0 HIT:          0 MISS:          0
cpu2_L1I PREFETCH     ACCESS:          0 HIT:          0 MISS:          0
cpu2_L1I WRITE        ACCESS:          0 HIT:          0 MISS:          0
cpu2_L1I TRANSLATION  ACCESS:          0 HIT:          0 MISS:          0
cpu2_L1I PREFETCH REQUESTED:          0 ISSUED:          0 USEFUL:          0 USELESS:          0
cpu2_L1I AVERAGE MISS LATENCY: 8.513 cycles
cpu2_L1I TOTAL        ACCESS:          0 HIT:          0 MISS:          0
cpu2_L1I LOAD         ACCESS:          0 HIT:          0 MISS:          0
cpu2_L1I RFO          ACCESS:          0 HIT:          0 MISS:          0
cpu2_L1I PREFETCH     ACCESS:          0 HIT:          0 MISS:          0
cpu2_L1I WRITE        ACCESS:          0 HIT:          0 MISS:          0
cpu2_L1I TRANSLATION  ACCESS:          0 HIT:          0 MISS:          0
cpu2_L1I PREFETCH REQUESTED:          0 ISSUED:          0 USEFUL:          0 USELESS:          0
cpu2_L1I AVERAGE MISS LATENCY: 8.513 cycles
cpu2_L1I TOTAL        ACCESS:   14682500 HIT:   13400005 MISS:    1282495
cpu2_L1I LOAD         ACCESS:   14682500 HIT:   13400005 MISS:    1282495
cpu2_L1I RFO          ACCESS:          0 HIT:          0 MISS:          0
cpu2_L1I PREFETCH     ACCESS:          0 HIT:          0 MISS:          0
cpu2_L1I WRITE        ACCESS:          0 HIT:          0 MISS:          0
cpu2_L1I TRANSLATION  ACCESS:          0 HIT:          0 MISS:          0
cpu2_L1I PREFETCH REQUESTED:          0 ISSUED:          0 USEFUL:          0 USELESS:          0
cpu2_L1I AVERAGE MISS LATENCY: 8.513 cycles
cpu2_L1I TOTAL        ACCESS:          0 HIT:          0 MISS:          0
cpu2_L1I LOAD         ACCESS:          0 HIT:          0 MISS:          0
cpu2_L1I RFO          ACCESS:          0 HIT:          0 MISS:          0
cpu2_L1I PREFETCH     ACCESS:          0 HIT:          0 MISS:          0
cpu2_L1I WRITE        ACCESS:          0 HIT:          0 MISS:          0
cpu2_L1I TRANSLATION  ACCESS:          0 HIT:          0 MISS:          0
cpu2_L1I PREFETCH REQUESTED:          0 ISSUED:          0 USEFUL:          0 USELESS:          0
cpu2_L1I AVERAGE MISS LATENCY: 8.513 cycles
cpu2_L2C TOTAL        ACCESS:          0 HIT:          0 MISS:          0
cpu2_L2C LOAD         ACCESS:          0 HIT:          0 MISS:          0
cpu2_L2C RFO          ACCESS:          0 HIT:          0 MISS:          0
cpu2_L2C PREFETCH     ACCESS:          0 HIT:          0 MISS:          0
cpu2_L2C WRITE        ACCESS:          0 HIT:          0 MISS:          0
cpu2_L2C TRANSLATION  ACCESS:          0 HIT:          0 MISS:          0
cpu2_L2C PREFETCH REQUESTED:          0 ISSUED:          0 USEFUL:          0 USELESS:          0
cpu2_L2C AVERAGE MISS LATENCY: 166.7 cycles
cpu2_L2C TOTAL        ACCESS:          0 HIT:          0 MISS:          0
cpu2_L2C LOAD         ACCESS:          0 HIT:          0 MISS:          0
cpu2_L2C RFO          ACCESS:          0 HIT:          0 MISS:          0
cpu2_L2C PREFETCH     ACCESS:          0 HIT:          0 MISS:          0
cpu2_L2C WRITE        ACCESS:          0 HIT:          0 MISS:          0
cpu2_L2C TRANSLATION  ACCESS:          0 HIT:          0 MISS:          0
cpu2_L2C PREFETCH REQUESTED:          0 ISSUED:          0 USEFUL:          0 USELESS:          0
cpu2_L2C AVERAGE MISS LATENCY: 166.7 cycles
cpu2_L2C TOTAL        ACCESS:   19918767 HIT:   18786273 MISS:    1132494
cpu2_L2C LOAD         ACCESS:   17819557 HIT:   17252163 MISS:     567394
cpu2_L2C RFO          ACCESS:     605732 HIT:     103373 MISS:     502359
cpu2_L2C PREFETCH     ACCESS:          0 HIT:          0 MISS:          0
cpu2_L2C WRITE        ACCESS:     921384 HIT:     921370 MISS:         14
cpu2_L2C TRANSLATION  ACCESS:     572094 HIT:     509367 MISS:      62727
cpu2_L2C PREFETCH REQUESTED:          0 ISSUED:          0 USEFUL:          0 USELESS:          0
cpu2_L2C AVERAGE MISS LATENCY: 166.7 cycles
cpu2_L2C TOTAL        ACCESS:          0 HIT:          0 MISS:          0
cpu2_L2C LOAD         ACCESS:          0 HIT:          0 MISS:          0
cpu2_L2C RFO          ACCESS:          0 HIT:          0 MISS:          0
cpu2_L2C PREFETCH     ACCESS:          0 HIT:          0 MISS:          0
cpu2_L2C WRITE        ACCESS:          0 HIT:          0 MISS:          0
cpu2_L2C TRANSLATION  ACCESS:          0 HIT:          0 MISS:          0
cpu2_L2C PREFETCH REQUESTED:          0 ISSUED:          0 USEFUL:          0 USELESS:          0
cpu2_L2C AVERAGE MISS LATENCY: 166.7 cycles
cpu2_STLB TOTAL        ACCESS:          0 HIT:          0 MISS:          0
cpu2_STLB LOAD         ACCESS:          0 HIT:          0 MISS:          0
cpu2_STLB RFO          ACCESS:          0 HIT:          0 MISS:          0
cpu2_STLB PREFETCH     ACCESS:          0 HIT:          0 MISS:          0
cpu2_STLB WRITE        ACCESS:          0 HIT:          0 MISS:          0
cpu2_STLB TRANSLATION  ACCESS:          0 HIT:          0 MISS:          0
cpu2_STLB PREFETCH REQUESTED:          0 ISSUED:          0 USEFUL:          0 USELESS:          0
cpu2_STLB AVERAGE MISS LATENCY: 32.49 cycles
cpu2_STLB TOTAL        ACCESS:          0 HIT:          0 MISS:          0
cpu2_STLB LOAD         ACCESS:          0 HIT:          0 MISS:          0
cpu2_STLB RFO          ACCESS:          0 HIT:          0 MISS:          0
cpu2_STLB PREFETCH     ACCESS:          0 HIT:          0 MISS:          0
cpu2_STLB WRITE        ACCESS:          0 HIT:          0 MISS:          0
cpu2_STLB TRANSLATION  ACCESS:          0 HIT:          0 MISS:          0
cpu2_STLB PREFETCH REQUESTED:          0 ISSUED:          0 USEFUL:          0 USELESS:          0
cpu2_STLB AVERAGE MISS LATENCY: 32.49 cycles
cpu2_STLB TOTAL        ACCESS:   10284215 HIT:    9687748 MISS:     596467
cpu2_STLB LOAD         ACCESS:   10284215 HIT:    9687748 MISS:     596467
cpu2_STLB RFO          ACCESS:          0 HIT:          0 MISS:          0
cpu2_STLB PREFETCH     ACCESS:          0 HIT:          0 MISS:          0
cpu2_STLB WRITE        ACCESS:          0 HIT:          0 MISS:          0
cpu2_STLB TRANSLATION  ACCESS:          0 HIT:          0 MISS:          0
cpu2_STLB PREFETCH REQUESTED:          0 ISSUED:          0 USEFUL:          0 USELESS:          0
cpu2_STLB AVERAGE MISS LATENCY: 32.49 cycles
cpu2_STLB TOTAL        ACCESS:          0 HIT:          0 MISS:          0
cpu2_STLB LOAD         ACCESS:          0 HIT:          0 MISS:          0
cpu2_STLB RFO          ACCESS:          0 HIT:          0 MISS:          0
cpu2_STLB PREFETCH     ACCESS:          0 HIT:          0 MISS:          0
cpu2_STLB WRITE        ACCESS:          0 HIT:          0 MISS:          0
cpu2_STLB TRANSLATION  ACCESS:          0 HIT:          0 MISS:          0
cpu2_STLB PREFETCH REQUESTED:          0 ISSUED:          0 USEFUL:          0 USELESS:          0
cpu2_STLB AVERAGE MISS LATENCY: 32.49 cycles
cpu3_DTLB TOTAL        ACCESS:          0 HIT:          0 MISS:          0
cpu3_DTLB LOAD         ACCESS:          0 HIT:          0 MISS:          0
cpu3_DTLB RFO          ACCESS:          0 HIT:          0 MISS:          0
cpu3_DTLB PREFETCH     ACCESS:          0 HIT:          0 MISS:          0
cpu3_DTLB WRITE        ACCESS:          0 HIT:          0 MISS:          0
cpu3_DTLB TRANSLATION  ACCESS:          0 HIT:          0 MISS:          0
cpu3_DTLB PREFETCH REQUESTED:          0 ISSUED:          0 USEFUL:          0 USELESS:          0
cpu3_DTLB AVERAGE MISS LATENCY: 6.568 cycles
cpu3_DTLB TOTAL        ACCESS:          0 HIT:          0 MISS:          0
cpu3_DTLB LOAD         ACCESS:          0 HIT:          0 MISS:          0
cpu3_DTLB RFO          ACCESS:          0 HIT:          0 MISS:          0
cpu3_DTLB PREFETCH     ACCESS:          0 HIT:          0 MISS:          0
cpu3_DTLB WRITE        ACCESS:          0 HIT:          0 MISS:          0
cpu3_DTLB TRANSLATION  ACCESS:          0 HIT:          0 MISS:          0
cpu3_DTLB PREFETCH REQUESTED:          0 ISSUED:          0 USEFUL:          0 USELESS:          0
cpu3_DTLB AVERAGE MISS LATENCY: 6.568 cycles
cpu3_DTLB TOTAL        ACCESS:          0 HIT:          0 MISS:          0
cpu3_DTLB LOAD         ACCESS:          0 HIT:          0 MISS:          0
cpu3_DTLB RFO          ACCESS:          0 HIT:          0 MISS:          0
cpu3_DTLB PREFETCH     ACCESS:          0 HIT:          0 MISS:          0
cpu3_DTLB WRITE        ACCESS:          0 HIT:          0 MISS:          0
cpu3_DTLB TRANSLATION  ACCESS:          0 HIT:          0 MISS:          0
cpu3_DTLB PREFETCH REQUESTED:          0 ISSUED:          0 USEFUL:          0 USELESS:          0
cpu3_DTLB AVERAGE MISS LATENCY: 6.568 cycles
cpu3_DTLB TOTAL        ACCESS:   70350101 HIT:   69690359 MISS:     659742
cpu3_DTLB LOAD         ACCESS:   70350101 HIT:   69690359 MISS:     659742
cpu3_DTLB RFO          ACCESS:          0 HIT:          0 MISS:          0
cpu3_DTLB PREFETCH     ACCESS:          0 HIT:          0 MISS:          0
cpu3_DTLB WRITE        ACCESS:          0 HIT:          0 MISS:          0
cpu3_DTLB TRANSLATION  ACCESS:          0 HIT:          0 MISS:          0
cpu3_DTLB PREFETCH REQUESTED:          0 ISSUED:          0 USEFUL:          0 USELESS:          0
cpu3_DTLB AVERAGE MISS LATENCY: 6.568 cycles
cpu3_ITLB TOTAL        ACCESS:          0 HIT:          0 MISS:          0
cpu3_ITLB LOAD         ACCESS:          0 HIT:          0 MISS:          0
cpu3_ITLB RFO          ACCESS:          0 HIT:          0 MISS:          0
cpu3_ITLB PREFETCH     ACCESS:          0 HIT:          0 MISS:          0
cpu3_ITLB WRITE        ACCESS:          0 HIT:          0 MISS:          0
cpu3_ITLB TRANSLATION  ACCESS:          0 HIT:          0 MISS:          0
cpu3_ITLB PREFETCH REQUESTED:          0 ISSUED:          0 USEFUL:          0 USELESS:          0
cpu3_ITLB AVERAGE MISS LATENCY: 203.5 cycles
cpu3_ITLB TOTAL        ACCESS:          0 HIT:          0 MISS:          0
cpu3_ITLB LOAD         ACCESS:          0 HIT:          0 MISS:          0
cpu3_ITLB RFO          ACCESS:          0 HIT:          0 MISS:          0
cpu3_ITLB PREFETCH     ACCESS:          0 HIT:          0 MISS:          0
cpu3_ITLB WRITE        ACCESS:          0 HIT:          0 MISS:          0
cpu3_ITLB TRANSLATION  ACCESS:          0 HIT:          0 MISS:          0
cpu3_ITLB PREFETCH REQUESTED:          0 ISSUED:          0 USEFUL:          0 USELESS:          0
cpu3_ITLB AVERAGE MISS LATENCY: 203.5 cycles
cpu3_ITLB TOTAL        ACCESS:          0 HIT:          0 MISS:          0
cpu3_ITLB LOAD         ACCESS:          0 HIT:          0 MISS:          0
cpu3_ITLB RFO          ACCESS:          0 HIT:          0 MISS:          0
cpu3_ITLB PREFETCH     ACCESS:          0 HIT:          0 MISS:          0
cpu3_ITLB WRITE        ACCESS:          0 HIT:          0 MISS:          0
cpu3_ITLB TRANSLATION  ACCESS:          0 HIT:          0 MISS:          0
cpu3_ITLB PREFETCH REQUESTED:          0 ISSUED:          0 USEFUL:          0 USELESS:          0
cpu3_ITLB AVERAGE MISS LATENCY: 203.5 cycles
cpu3_ITLB TOTAL        ACCESS:    4525943 HIT:    4525725 MISS:        218
cpu3_ITLB LOAD         ACCESS:    4525943 HIT:    4525725 MISS:        218
cpu3_ITLB RFO          ACCESS:          0 HIT:          0 MISS:          0
cpu3_ITLB PREFETCH     ACCESS:          0 HIT:          0 MISS:          0
cpu3_ITLB WRITE        ACCESS:          0 HIT:          0 MISS:          0
cpu3_ITLB TRANSLATION  ACCESS:          0 HIT:          0 MISS:          0
cpu3_ITLB PREFETCH REQUESTED:          0 ISSUED:          0 USEFUL:          0 USELESS:          0
cpu3_ITLB AVERAGE MISS LATENCY: 203.5 cycles
cpu3_L1D TOTAL        ACCESS:          0 HIT:          0 MISS:          0
cpu3_L1D LOAD         ACCESS:          0 HIT:          0 MISS:          0
cpu3_L1D RFO          ACCESS:          0 HIT:          0 MISS:          0
cpu3_L1D PREFETCH     ACCESS:          0 HIT:          0 MISS:          0
cpu3_L1D WRITE        ACCESS:          0 HIT:          0 MISS:          0
cpu3_L1D TRANSLATION  ACCESS:          0 HIT:          0 MISS:          0
cpu3_L1D PREFETCH REQUESTED:          0 ISSUED:          0 USEFUL:          0 USELESS:          0
cpu3_L1D AVERAGE MISS LATENCY: 49.3 cycles
cpu3_L1D TOTAL        ACCESS:          0 HIT:          0 MISS:          0
cpu3_L1D LOAD         ACCESS:          0 HIT:          0 MISS:          0
[...]
cpu2_L1I PREFETCH REQUESTED:          0 ISSUED:          0 USEFUL:          0 USELESS:          0
cpu2_L1I AVERAGE MISS LATENCY: 8.513 cycles
cpu2_L1I TOTAL        ACCESS:          0 HIT:          0 MISS:          0
cpu2_L1I LOAD         ACCESS:          0 HIT:          0 MISS:          0
cpu2_L1I RFO          ACCESS:          0 HIT:          0 MISS:          0
cpu2_L1I PREFETCH     ACCESS:          0 HIT:          0 MISS:          0
cpu2_L1I WRITE        ACCESS:          0 HIT:          0 MISS:          0
cpu2_L1I TRANSLATION  ACCESS:          0 HIT:          0 MISS:          0
cpu2_L1I PREFETCH REQUESTED:          0 ISSUED:          0 USEFUL:          0 USELESS:          0
cpu2_L1I AVERAGE MISS LATENCY: 8.513 cycles
cpu2_L2C TOTAL        ACCESS:          0 HIT:          0 MISS:          0
cpu2_L2C LOAD         ACCESS:          0 HIT:          0 MISS:          0
cpu2_L2C RFO          ACCESS:          0 HIT:          0 MISS:          0
cpu2_L2C PREFETCH     ACCESS:          0 HIT:          0 MISS:          0
cpu2_L2C WRITE        ACCESS:          0 HIT:          0 MISS:          0
cpu2_L2C TRANSLATION  ACCESS:          0 HIT:          0 MISS:          0
cpu2_L2C PREFETCH REQUESTED:          0 ISSUED:          0 USEFUL:          0 USELESS:          0
cpu2_L2C AVERAGE MISS LATENCY: 166.7 cycles
cpu2_L2C TOTAL        ACCESS:          0 HIT:          0 MISS:          0
cpu2_L2C LOAD         ACCESS:          0 HIT:          0 MISS:          0
cpu2_L2C RFO          ACCESS:          0 HIT:          0 MISS:          0
cpu2_L2C PREFETCH     ACCESS:          0 HIT:          0 MISS:          0
cpu2_L2C WRITE        ACCESS:          0 HIT:          0 MISS:          0
cpu2_L2C TRANSLATION  ACCESS:          0 HIT:          0 MISS:          0
cpu2_L2C PREFETCH REQUESTED:          0 ISSUED:          0 USEFUL:          0 USELESS:          0
cpu2_L2C AVERAGE MISS LATENCY: 166.7 cycles
cpu2_L2C TOTAL        ACCESS:    8581026 HIT:    8141785 MISS:     439241
cpu2_L2C LOAD         ACCESS:    7782453 HIT:    7536143 MISS:     246310
cpu2_L2C RFO          ACCESS:     204296 HIT:      40015 MISS:     164281
cpu2_L2C PREFETCH     ACCESS:          0 HIT:          0 MISS:          0
cpu2_L2C WRITE        ACCESS:     336630 HIT:     336618 MISS:         12
cpu2_L2C TRANSLATION  ACCESS:     257647 HIT:     229009 MISS:      28638
cpu2_L2C PREFETCH REQUESTED:          0 ISSUED:          0 USEFUL:          0 USELESS:          0
cpu2_L2C AVERAGE MISS LATENCY: 166.7 cycles
cpu2_L2C TOTAL        ACCESS:          0 HIT:          0 MISS:          0
cpu2_L2C LOAD         ACCESS:          0 HIT:          0 MISS:          0
cpu2_L2C RFO          ACCESS:          0 HIT:          0 MISS:          0
cpu2_L2C PREFETCH     ACCESS:          0 HIT:          0 MISS:          0
cpu2_L2C WRITE        ACCESS:          0 HIT:          0 MISS:          0
cpu2_L2C TRANSLATION  ACCESS:          0 HIT:          0 MISS:          0
cpu2_L2C PREFETCH REQUESTED:          0 ISSUED:          0 USEFUL:          0 USELESS:          0
cpu2_L2C AVERAGE MISS LATENCY: 166.7 cycles
cpu2_STLB TOTAL        ACCESS:          0 HIT:          0 MISS:          0
cpu2_STLB LOAD         ACCESS:          0 HIT:          0 MISS:          0
cpu2_STLB RFO          ACCESS:          0 HIT:          0 MISS:          0
cpu2_STLB PREFETCH     ACCESS:          0 HIT:          0 MISS:          0
cpu2_STLB WRITE        ACCESS:          0 HIT:          0 MISS:          0
cpu2_STLB TRANSLATION  ACCESS:          0 HIT:          0 MISS:          0
cpu2_STLB PREFETCH REQUESTED:          0 ISSUED:          0 USEFUL:          0 USELESS:          0
cpu2_STLB AVERAGE MISS LATENCY: 32.49 cycles
cpu2_STLB TOTAL        ACCESS:          0 HIT:          0 MISS:          0
cpu2_STLB LOAD         ACCESS:          0 HIT:          0 MISS:          0
cpu2_STLB RFO          ACCESS:          0 HIT:          0 MISS:          0
cpu2_STLB PREFETCH     ACCESS:          0 HIT:          0 MISS:          0
cpu2_STLB WRITE        ACCESS:          0 HIT:          0 MISS:          0
cpu2_STLB TRANSLATION  ACCESS:          0 HIT:          0 MISS:          0
cpu2_STLB PREFETCH REQUESTED:          0 ISSUED:          0 USEFUL:          0 USELESS:          0
cpu2_STLB AVERAGE MISS LATENCY: 32.49 cycles
cpu2_STLB TOTAL        ACCESS:    4510600 HIT:    4241632 MISS:     268968
cpu2_STLB LOAD         ACCESS:    4510600 HIT:    4241632 MISS:     268968
cpu2_STLB RFO          ACCESS:          0 HIT:          0 MISS:          0
cpu2_STLB PREFETCH     ACCESS:          0 HIT:          0 MISS:          0
cpu2_STLB WRITE        ACCESS:          0 HIT:          0 MISS:          0
cpu2_STLB TRANSLATION  ACCESS:          0 HIT:          0 MISS:          0
cpu2_STLB PREFETCH REQUESTED:          0 ISSUED:          0 USEFUL:          0 USELESS:          0
cpu2_STLB AVERAGE MISS LATENCY: 32.49 cycles
cpu2_STLB TOTAL        ACCESS:          0 HIT:          0 MISS:          0
cpu2_STLB LOAD         ACCESS:          0 HIT:          0 MISS:          0
cpu2_STLB RFO          ACCESS:          0 HIT:          0 MISS:          0
cpu2_STLB PREFETCH     ACCESS:          0 HIT:          0 MISS:          0
cpu2_STLB WRITE        ACCESS:          0 HIT:          0 MISS:          0
cpu2_STLB TRANSLATION  ACCESS:          0 HIT:          0 MISS:          0
cpu2_STLB PREFETCH REQUESTED:          0 ISSUED:          0 USEFUL:          0 USELESS:          0
cpu2_STLB AVERAGE MISS LATENCY: 32.49 cycles
cpu3_DTLB TOTAL        ACCESS:          0 HIT:          0 MISS:          0
cpu3_DTLB LOAD         ACCESS:          0 HIT:          0 MISS:          0
cpu3_DTLB RFO          ACCESS:          0 HIT:          0 MISS:          0
cpu3_DTLB PREFETCH     ACCESS:          0 HIT:          0 MISS:          0
cpu3_DTLB WRITE        ACCESS:          0 HIT:          0 MISS:          0
cpu3_DTLB TRANSLATION  ACCESS:          0 HIT:          0 MISS:          0
cpu3_DTLB PREFETCH REQUESTED:          0 ISSUED:          0 USEFUL:          0 USELESS:          0
cpu3_DTLB AVERAGE MISS LATENCY: 6.568 cycles
cpu3_DTLB TOTAL        ACCESS:          0 HIT:          0 MISS:          0
cpu3_DTLB LOAD         ACCESS:          0 HIT:          0 MISS:          0
cpu3_DTLB RFO          ACCESS:          0 HIT:          0 MISS:          0
cpu3_DTLB PREFETCH     ACCESS:          0 HIT:          0 MISS:          0
cpu3_DTLB WRITE        ACCESS:          0 HIT:          0 MISS:          0
cpu3_DTLB TRANSLATION  ACCESS:          0 HIT:          0 MISS:          0
cpu3_DTLB PREFETCH REQUESTED:          0 ISSUED:          0 USEFUL:          0 USELESS:          0
cpu3_DTLB AVERAGE MISS LATENCY: 6.568 cycles
cpu3_DTLB TOTAL        ACCESS:          0 HIT:          0 MISS:          0
cpu3_DTLB LOAD         ACCESS:          0 HIT:          0 MISS:          0
cpu3_DTLB RFO          ACCESS:          0 HIT:          0 MISS:          0
cpu3_DTLB PREFETCH     ACCESS:          0 HIT:          0 MISS:          0
cpu3_DTLB WRITE        ACCESS:          0 HIT:          0 MISS:          0
cpu3_DTLB TRANSLATION  ACCESS:          0 HIT:          0 MISS:          0
cpu3_DTLB PREFETCH REQUESTED:          0 ISSUED:          0 USEFUL:          0 USELESS:          0
cpu3_DTLB AVERAGE MISS LATENCY: 6.568 cycles
cpu3_DTLB TOTAL        ACCESS:   17701237 HIT:   17690809 MISS:      10428
cpu3_DTLB LOAD         ACCESS:   17701237 HIT:   17690809 MISS:      10428
cpu3_DTLB RFO          ACCESS:          0 HIT:          0 MISS:          0
cpu3_DTLB PREFETCH     ACCESS:          0 HIT:          0 MISS:          0
cpu3_DTLB WRITE        ACCESS:          0 HIT:          0 MISS:          0
cpu3_DTLB TRANSLATION  ACCESS:          0 HIT:          0 MISS:          0
cpu3_DTLB PREFETCH REQUESTED:          0 ISSUED:          0 USEFUL:          0 USELESS:          0
cpu3_DTLB AVERAGE MISS LATENCY: 6.568 cycles
cpu3_ITLB TOTAL        ACCESS:          0 HIT:          0 MISS:          0
cpu3_ITLB LOAD         ACCESS:          0 HIT:          0 MISS:          0
cpu3_ITLB RFO          ACCESS:          0 HIT:          0 MISS:          0
cpu3_ITLB PREFETCH     ACCESS:          0 HIT:          0 MISS:          0
cpu3_ITLB WRITE        ACCESS:          0 HIT:          0 MISS:          0
cpu3_ITLB TRANSLATION  ACCESS:          0 HIT:          0 MISS:          0
cpu3_ITLB PREFETCH REQUESTED:          0 ISSUED:          0 USEFUL:          0 USELESS:          0
cpu3_ITLB AVERAGE MISS LATENCY: 203.5 cycles
cpu3_ITLB TOTAL        ACCESS:          0 HIT:          0 MISS:          0
cpu3_ITLB LOAD         ACCESS:          0 HIT:          0 MISS:          0
cpu3_ITLB RFO          ACCESS:          0 HIT:          0 MISS:          0
cpu3_ITLB PREFETCH     ACCESS:          0 HIT:          0 MISS:          0
cpu3_ITLB WRITE        ACCESS:          0 HIT:          0 MISS:          0
cpu3_ITLB TRANSLATION  ACCESS:          0 HIT:          0 MISS:          0
cpu3_ITLB PREFETCH REQUESTED:          0 ISSUED:          0 USEFUL:          0 USELESS:          0
cpu3_ITLB AVERAGE MISS LATENCY: 203.5 cycles
cpu3_ITLB TOTAL        ACCESS:          0 HIT:          0 MISS:          0
cpu3_ITLB LOAD         ACCESS:          0 HIT:          0 MISS:          0
cpu3_ITLB RFO          ACCESS:          0 HIT:          0 MISS:          0
cpu3_ITLB PREFETCH     ACCESS:          0 HIT:          0 MISS:          0
cpu3_ITLB WRITE        ACCESS:          0 HIT:          0 MISS:          0
cpu3_ITLB TRANSLATION  ACCESS:          0 HIT:          0 MISS:          0
cpu3_ITLB PREFETCH REQUESTED:          0 ISSUED:          0 USEFUL:          0 USELESS:          0
cpu3_ITLB AVERAGE MISS LATENCY: 203.5 cycles
cpu3_ITLB TOTAL        ACCESS:     512718 HIT:     512718 MISS:          0
cpu3_ITLB LOAD         ACCESS:     512718 HIT:     512718 MISS:          0
cpu3_ITLB RFO          ACCESS:          0 HIT:          0 MISS:          0
cpu3_ITLB PREFETCH     ACCESS:          0 HIT:          0 MISS:          0
cpu3_ITLB WRITE        ACCESS:          0 HIT:          0 MISS:          0
cpu3_ITLB TRANSLATION  ACCESS:          0 HIT:          0 MISS:          0
cpu3_ITLB PREFETCH REQUESTED:          0 ISSUED:          0 USEFUL:          0 USELESS:          0
cpu3_ITLB AVERAGE MISS LATENCY: 203.5 cycles
cpu3_L1D TOTAL        ACCESS:          0 HIT:          0 MISS:          0
cpu3_L1D LOAD         ACCESS:          0 HIT:          0 MISS:          0
cpu3_L1D RFO          ACCESS:          0 HIT:          0 MISS:          0
cpu3_L1D PREFETCH     ACCESS:          0 HIT:          0 MISS:          0
cpu3_L1D WRITE        ACCESS:          0 HIT:          0 MISS:          0
cpu3_L1D TRANSLATION  ACCESS:          0 HIT:          0 MISS:          0
cpu3_L1D PREFETCH REQUESTED:          0 ISSUED:          0 USEFUL:          0 USELESS:          0
cpu3_L1D AVERAGE MISS LATENCY: 49.3 cycles
cpu3_L1D TOTAL        ACCESS:          0 HIT:          0 MISS:          0
cpu3_L1D LOAD         ACCESS:          0 HIT:          0 MISS:          0
cpu3_L1D RFO          ACCESS:          0 HIT:          0 MISS:          0
cpu3_L1D PREFETCH     ACCESS:          0 HIT:          0 MISS:          0
cpu3_L1D WRITE        ACCESS:          0 HIT:          0 MISS:          0
cpu3_L1D TRANSLATION  ACCESS:          0 HIT:          0 MISS:          0
cpu3_L1D PREFETCH REQUESTED:          0 ISSUED:          0 USEFUL:          0 USELESS:          0
cpu3_L1D AVERAGE MISS LATENCY: 49.3 cycles
cpu3_L1D TOTAL        ACCESS:          0 HIT:          0 MISS:          0
cpu3_L1D LOAD         ACCESS:          0 HIT:          0 MISS:          0
cpu3_L1D RFO          ACCESS:          0 HIT:          0 MISS:          0
cpu3_L1D PREFETCH     ACCESS:          0 HIT:          0 MISS:          0
cpu3_L1D WRITE        ACCESS:          0 HIT:          0 MISS:          0
cpu3_L1D TRANSLATION  ACCESS:          0 HIT:          0 MISS:          0
cpu3_L1D PREFETCH REQUESTED:          0 ISSUED:          0 USEFUL:          0 USELESS:          0
cpu3_L1D AVERAGE MISS LATENCY: 49.3 cycles
cpu3_L1D TOTAL        ACCESS:   22015778 HIT:   22007110 MISS:       8668
cpu3_L1D LOAD         ACCESS:   16453198 HIT:   16450264 MISS:       2934
cpu3_L1D RFO          ACCESS:          0 HIT:          0 MISS:          0
cpu3_L1D PREFETCH     ACCESS:          0 HIT:          0 MISS:          0
cpu3_L1D WRITE        ACCESS:    5562409 HIT:    5556828 MISS:       5581
cpu3_L1D TRANSLATION  ACCESS:        171 HIT:         18 MISS:        153
cpu3_L1D PREFETCH REQUESTED:          0 ISSUED:          0 USEFUL:          0 USELESS:          0
cpu3_L1D AVERAGE MISS LATENCY: 49.3 cycles
cpu3_L1I TOTAL        ACCESS:          0 HIT:          0 MISS:          0
cpu3_L1I LOAD         ACCESS:          0 HIT:          0 MISS:          0
cpu3_L1I RFO          ACCESS:          0 HIT:          0 MISS:          0
cpu3_L1I PREFETCH     ACCESS:          0 HIT:          0 MISS:          0
cpu3_L1I WRITE        ACCESS:          0 HIT:          0 MISS:          0
cpu3_L1I TRANSLATION  ACCESS:          0 HIT:          0 MISS:          0
cpu3_L1I PREFETCH REQUESTED:          0 ISSUED:          0 USEFUL:          0 USELESS:          0
cpu3_L1I AVERAGE MISS LATENCY: 8.166 cycles
cpu3_L1I TOTAL        ACCESS:          0 HIT:          0 MISS:          0
cpu3_L1I LOAD         ACCESS:          0 HIT:          0 MISS:          0
cpu3_L1I RFO          ACCESS:          0 HIT:          0 MISS:          0
cpu3_L1I PREFETCH     ACCESS:          0 HIT:          0 MISS:          0
cpu3_L1I WRITE        ACCESS:          0 HIT:          0 MISS:          0
cpu3_L1I TRANSLATION  ACCESS:          0 HIT:          0 MISS:          0
cpu3_L1I PREFETCH REQUESTED:          0 ISSUED:          0 USEFUL:          0 USELESS:          0
cpu3_L1I AVERAGE MISS LATENCY: 8.166 cycles
cpu3_L1I TOTAL        ACCESS:          0 HIT:          0 MISS:          0
cpu3_L1I LOAD         ACCESS:          0 HIT:          0 MISS:          0
cpu3_L1I RFO          ACCESS:          0 HIT:          0 MISS:          0
cpu3_L1I PREFETCH     ACCESS:          0 HIT:          0 MISS:          0
cpu3_L1I WRITE        ACCESS:          0 HIT:          0 MISS:          0
cpu3_L1I TRANSLATION  ACCESS:          0 HIT:          0 MISS:          0
cpu3_L1I PREFETCH REQUESTED:          0 ISSUED:          0 USEFUL:          0 USELESS:          0
cpu3_L1I AVERAGE MISS LATENCY: 8.166 cycles
cpu3_L1I TOTAL        ACCESS:     550919 HIT:     549529 MISS:       1390
cpu3_L1I LOAD         ACCESS:     550919 HIT:     549529 MISS:       1390
cpu3_L1I RFO          ACCESS:          0 HIT:          0 MISS:          0
cpu3_L1I PREFETCH     ACCESS:          0 HIT:          0 MISS:          0
cpu3_L1I WRITE        ACCESS:          0 HIT:          0 MISS:          0
cpu3_L1I TRANSLATION  ACCESS:          0 HIT:          0 MISS:          0
cpu3_L1I PREFETCH REQUESTED:          0 ISSUED:          0 USEFUL:          0 USELESS:          0
cpu3_L1I AVERAGE MISS LATENCY: 8.166 cycles
cpu3_L2C TOTAL        ACCESS:          0 HIT:          0 MISS:          0
cpu3_L2C LOAD         ACCESS:          0 HIT:          0 MISS:          0
cpu3_L2C RFO          ACCESS:          0 HIT:          0 MISS:          0
cpu3_L2C PREFETCH     ACCESS:          0 HIT:          0 MISS:          0
cpu3_L2C WRITE        ACCESS:          0 HIT:          0 MISS:          0
cpu3_L2C TRANSLATION  ACCESS:          0 HIT:          0 MISS:          0
cpu3_L2C PREFETCH REQUESTED:          0 ISSUED:          0 USEFUL:          0 USELESS:          0
cpu3_L2C AVERAGE MISS LATENCY: 549 cycles
cpu3_L2C TOTAL        ACCESS:          0 HIT:          0 MISS:          0
cpu3_L2C LOAD         ACCESS:          0 HIT:          0 MISS:          0
cpu3_L2C RFO          ACCESS:          0 HIT:          0 MISS:          0
cpu3_L2C PREFETCH     ACCESS:          0 HIT:          0 MISS:          0
cpu3_L2C WRITE        ACCESS:          0 HIT:          0 MISS:          0
cpu3_L2C TRANSLATION  ACCESS:          0 HIT:          0 MISS:          0
cpu3_L2C PREFETCH REQUESTED:          0 ISSUED:          0 USEFUL:          0 USELESS:          0
cpu3_L2C AVERAGE MISS LATENCY: 549 cycles
cpu3_L2C TOTAL        ACCESS:          0 HIT:          0 MISS:          0
cpu3_L2C LOAD         ACCESS:          0 HIT:          0 MISS:          0
cpu3_L2C RFO          ACCESS:          0 HIT:          0 MISS:          0
cpu3_L2C PREFETCH     ACCESS:          0 HIT:          0 MISS:          0
cpu3_L2C WRITE        ACCESS:          0 HIT:          0 MISS:          0
cpu3_L2C TRANSLATION  ACCESS:          0 HIT:          0 MISS:          0
cpu3_L2C PREFETCH REQUESTED:          0 ISSUED:          0 USEFUL:          0 USELESS:          0
cpu3_L2C AVERAGE MISS LATENCY: 549 cycles
cpu3_L2C TOTAL        ACCESS:       8534 HIT:       4369 MISS:       4165
cpu3_L2C LOAD         ACCESS:       2782 HIT:       1205 MISS:       1577
cpu3_L2C RFO          ACCESS:       2552 HIT:         64 MISS:       2488
cpu3_L2C PREFETCH     ACCESS:          0 HIT:          0 MISS:          0
cpu3_L2C WRITE        ACCESS:       3047 HIT:       3042 MISS:          5
cpu3_L2C TRANSLATION  ACCESS:        153 HIT:         58 MISS:         95
cpu3_L2C PREFETCH REQUESTED:          0 ISSUED:          0 USEFUL:          0 USELESS:          0
cpu3_L2C AVERAGE MISS LATENCY: 549 cycles
cpu3_STLB TOTAL        ACCESS:          0 HIT:          0 MISS:          0
cpu3_STLB LOAD         ACCESS:          0 HIT:          0 MISS:          0
cpu3_STLB RFO          ACCESS:          0 HIT:          0 MISS:          0
cpu3_STLB PREFETCH     ACCESS:          0 HIT:          0 MISS:          0
cpu3_STLB WRITE        ACCESS:          0 HIT:          0 MISS:          0
cpu3_STLB TRANSLATION  ACCESS:          0 HIT:          0 MISS:          0
cpu3_STLB PREFETCH REQUESTED:          0 ISSUED:          0 USEFUL:          0 USELESS:          0
cpu3_STLB AVERAGE MISS LATENCY: 303.5 cycles
cpu3_STLB TOTAL        ACCESS:          0 HIT:          0 MISS:          0
cpu3_STLB LOAD         ACCESS:          0 HIT:          0 MISS:          0
cpu3_STLB RFO          ACCESS:          0 HIT:          0 MISS:          0
cpu3_STLB PREFETCH     ACCESS:          0 HIT:          0 MISS:          0
cpu3_STLB WRITE        ACCESS:          0 HIT:          0 MISS:          0
cpu3_STLB TRANSLATION  ACCESS:          0 HIT:          0 MISS:          0
cpu3_STLB PREFETCH REQUESTED:          0 ISSUED:          0 USEFUL:          0 USELESS:          0
cpu3_STLB AVERAGE MISS LATENCY: 303.5 cycles
cpu3_STLB TOTAL        ACCESS:          0 HIT:          0 MISS:          0
cpu3_STLB LOAD         ACCESS:          0 HIT:          0 MISS:          0
cpu3_STLB RFO          ACCESS:          0 HIT:          0 MISS:          0
cpu3_STLB PREFETCH     ACCESS:          0 HIT:          0 MISS:          0
cpu3_STLB WRITE        ACCESS:          0 HIT:          0 MISS:          0
cpu3_STLB TRANSLATION  ACCESS:          0 HIT:          0 MISS:          0
cpu3_STLB PREFETCH REQUESTED:          0 ISSUED:          0 USEFUL:          0 USELESS:          0
cpu3_STLB AVERAGE MISS LATENCY: 303.5 cycles
cpu3_STLB TOTAL        ACCESS:       9213 HIT:       9043 MISS:        170
cpu3_STLB LOAD         ACCESS:       9213 HIT:       9043 MISS:        170
cpu3_STLB RFO          ACCESS:          0 HIT:          0 MISS:          0
cpu3_STLB PREFETCH     ACCESS:          0 HIT:          0 MISS:          0
cpu3_STLB WRITE        ACCESS:          0 HIT:          0 MISS:          0
cpu3_STLB TRANSLATION  ACCESS:          0 HIT:          0 MISS:          0
cpu3_STLB PREFETCH REQUESTED:          0 ISSUED:          0 USEFUL:          0 USELESS:          0
cpu3_STLB AVERAGE MISS LATENCY: 303.5 cycles

DRAM Statistics

Channel 0 RQ ROW_BUFFER_HIT:     189781
  ROW_BUFFER_MISS:    1201756
 AVG DBUS CONGESTED CYCLE: 3.903
WQ ROW_BUFFER_HIT: Channel 0 
  ROW_BUFFER_MISS:      96377
  FULL:     556855

Channel 1 RQ ROW_BUFFER_HIT:     190245
  ROW_BUFFER_MISS:    1196460
 AVG DBUS CONGESTED CYCLE: 3.902
WQ ROW_BUFFER_HIT: Channel 1 
  ROW_BUFFER_MISS:      98065
  FULL:     553913
