Original cmd-> /home/grads/r/rdas40/ECEN676/ChampSim/bin/multi_core/nopref_2ch --warmup_instructions=50000000 --simulation_instructions=150000000  /home/grads/r/rdas40/dpc3_traces/620.omnetpp_s-874B.champsimtrace.xz /home/grads/r/rdas40/dpc3_traces/607.cactuBSSN_s-2421B.champsimtrace.xz /home/grads/r/rdas40/dpc3_traces/654.roms_s-842B.champsimtrace.xz /home/grads/r/rdas40/dpc3_traces/605.mcf_s-665B.champsimtrace.xz
WARNING: physical memory size is smaller than virtual memory size.
WARNING: option --warmup_instructions is deprecated. Use --warmup-instructions instead.
WARNING: option --simulation_instructions is deprecated. Use --simulation-instructions instead.

*** ChampSim Multicore Out-of-Order Simulator ***
Warmup Instructions: 50000000
Simulation Instructions: 150000000
Number of CPUs: 4
Page size: 4096

Off-chip DRAM Size: 8 GiB Channels: 2 Width: 64-bit Data Race: 3200 MT/s
Heartbeat CPU 2 instructions: 10000002 cycles: 2507057 heartbeat IPC: 3.989 cumulative IPC: 3.989 (Simulation time: 00 hr 03 min 13 sec)
Heartbeat CPU 3 instructions: 10000003 cycles: 3100413 heartbeat IPC: 3.225 cumulative IPC: 3.225 (Simulation time: 00 hr 03 min 57 sec)
Heartbeat CPU 1 instructions: 10000002 cycles: 3681408 heartbeat IPC: 2.716 cumulative IPC: 2.716 (Simulation time: 00 hr 04 min 41 sec)
Heartbeat CPU 0 instructions: 10000001 cycles: 4174127 heartbeat IPC: 2.396 cumulative IPC: 2.396 (Simulation time: 00 hr 05 min 19 sec)
Heartbeat CPU 2 instructions: 20000003 cycles: 5016678 heartbeat IPC: 3.985 cumulative IPC: 3.987 (Simulation time: 00 hr 06 min 25 sec)
Heartbeat CPU 3 instructions: 20000001 cycles: 6207233 heartbeat IPC: 3.219 cumulative IPC: 3.222 (Simulation time: 00 hr 07 min 57 sec)
Heartbeat CPU 1 instructions: 20000002 cycles: 7362848 heartbeat IPC: 2.716 cumulative IPC: 2.716 (Simulation time: 00 hr 09 min 27 sec)
Heartbeat CPU 2 instructions: 30000000 cycles: 7521062 heartbeat IPC: 3.993 cumulative IPC: 3.989 (Simulation time: 00 hr 09 min 39 sec)
Heartbeat CPU 0 instructions: 20000004 cycles: 8345447 heartbeat IPC: 2.397 cumulative IPC: 2.397 (Simulation time: 00 hr 10 min 40 sec)
Heartbeat CPU 3 instructions: 30000003 cycles: 9306611 heartbeat IPC: 3.226 cumulative IPC: 3.224 (Simulation time: 00 hr 11 min 55 sec)
Heartbeat CPU 2 instructions: 40000003 cycles: 10031603 heartbeat IPC: 3.983 cumulative IPC: 3.987 (Simulation time: 00 hr 12 min 51 sec)
Heartbeat CPU 1 instructions: 30000001 cycles: 11043491 heartbeat IPC: 2.717 cumulative IPC: 2.717 (Simulation time: 00 hr 14 min 09 sec)
Heartbeat CPU 3 instructions: 40000000 cycles: 12403666 heartbeat IPC: 3.229 cumulative IPC: 3.225 (Simulation time: 00 hr 15 min 54 sec)
Heartbeat CPU 0 instructions: 30000001 cycles: 12519053 heartbeat IPC: 2.396 cumulative IPC: 2.396 (Simulation time: 00 hr 16 min 03 sec)
Heartbeat CPU 2 instructions: 50000003 cycles: 12555268 heartbeat IPC: 3.962 cumulative IPC: 3.982 (Simulation time: 00 hr 16 min 06 sec)
Warmup finished CPU 2 instructions: 50000003 cycles: 12555269 cumulative IPC: 3.982 (Simulation time: 00 hr 16 min 06 sec)
Heartbeat CPU 1 instructions: 40000000 cycles: 14723364 heartbeat IPC: 2.717 cumulative IPC: 2.717 (Simulation time: 00 hr 18 min 52 sec)
Heartbeat CPU 2 instructions: 60000003 cycles: 15063149 heartbeat IPC: 3.987 cumulative IPC: 3.983 (Simulation time: 00 hr 19 min 18 sec)
Heartbeat CPU 3 instructions: 50000003 cycles: 15489075 heartbeat IPC: 3.241 cumulative IPC: 3.228 (Simulation time: 00 hr 19 min 51 sec)
Warmup finished CPU 3 instructions: 50000003 cycles: 15489076 cumulative IPC: 3.228 (Simulation time: 00 hr 19 min 51 sec)
Heartbeat CPU 0 instructions: 40000000 cycles: 16705697 heartbeat IPC: 2.389 cumulative IPC: 2.394 (Simulation time: 00 hr 21 min 21 sec)
Heartbeat CPU 2 instructions: 70000001 cycles: 17570105 heartbeat IPC: 3.989 cumulative IPC: 3.984 (Simulation time: 00 hr 22 min 25 sec)
Heartbeat CPU 1 instructions: 50000000 cycles: 18405766 heartbeat IPC: 2.716 cumulative IPC: 2.717 (Simulation time: 00 hr 23 min 26 sec)
Warmup finished CPU 1 instructions: 50000000 cycles: 18405767 cumulative IPC: 2.717 (Simulation time: 00 hr 23 min 26 sec)
Heartbeat CPU 3 instructions: 60000002 cycles: 18586850 heartbeat IPC: 3.228 cumulative IPC: 3.228 (Simulation time: 00 hr 23 min 39 sec)
Heartbeat CPU 2 instructions: 80000000 cycles: 20078005 heartbeat IPC: 3.987 cumulative IPC: 3.984 (Simulation time: 00 hr 25 min 29 sec)
Heartbeat CPU 0 instructions: 50000000 cycles: 20872955 heartbeat IPC: 2.4 cumulative IPC: 2.395 (Simulation time: 00 hr 26 min 27 sec)
Warmup finished CPU 0 instructions: 50000000 cycles: 20872956 cumulative IPC: 2.395 (Simulation time: 00 hr 26 min 27 sec)
Warmup complete CPU 0 instructions: 50000000 cycles: 20872956 cumulative IPC: 2.395 (Simulation time: 00 hr 26 min 27 sec)
Warmup complete CPU 1 instructions: 56454228 cycles: 20872956 cumulative IPC: 2.705 (Simulation time: 00 hr 26 min 27 sec)
Warmup complete CPU 2 instructions: 83179800 cycles: 20872956 cumulative IPC: 3.985 (Simulation time: 00 hr 26 min 27 sec)
Warmup complete CPU 3 instructions: 67388646 cycles: 20872956 cumulative IPC: 3.229 (Simulation time: 00 hr 26 min 27 sec)
Heartbeat CPU 2 instructions: 90000001 cycles: 23409878 heartbeat IPC: 3.001 cumulative IPC: 2.688 (Simulation time: 00 hr 28 min 22 sec)
Heartbeat CPU 1 instructions: 60000004 cycles: 23538270 heartbeat IPC: 1.948 cumulative IPC: 1.33 (Simulation time: 00 hr 28 min 27 sec)
Heartbeat CPU 2 instructions: 100000004 cycles: 26897118 heartbeat IPC: 2.868 cumulative IPC: 2.792 (Simulation time: 00 hr 30 min 58 sec)
Heartbeat CPU 3 instructions: 70000000 cycles: 28950858 heartbeat IPC: 0.9649 cumulative IPC: 0.3233 (Simulation time: 00 hr 32 min 35 sec)
Heartbeat CPU 2 instructions: 110000001 cycles: 30559058 heartbeat IPC: 2.731 cumulative IPC: 2.769 (Simulation time: 00 hr 33 min 50 sec)
Heartbeat CPU 1 instructions: 70000000 cycles: 30940650 heartbeat IPC: 1.351 cumulative IPC: 1.345 (Simulation time: 00 hr 34 min 08 sec)
Heartbeat CPU 2 instructions: 120000002 cycles: 34069147 heartbeat IPC: 2.849 cumulative IPC: 2.79 (Simulation time: 00 hr 36 min 29 sec)
Heartbeat CPU 2 instructions: 130000003 cycles: 37512299 heartbeat IPC: 2.904 cumulative IPC: 2.814 (Simulation time: 00 hr 39 min 05 sec)
Heartbeat CPU 1 instructions: 80000004 cycles: 38446535 heartbeat IPC: 1.332 cumulative IPC: 1.34 (Simulation time: 00 hr 39 min 47 sec)
Heartbeat CPU 2 instructions: 140000003 cycles: 41145046 heartbeat IPC: 2.753 cumulative IPC: 2.803 (Simulation time: 00 hr 41 min 48 sec)
Heartbeat CPU 0 instructions: 60000003 cycles: 41374310 heartbeat IPC: 0.4878 cumulative IPC: 0.4878 (Simulation time: 00 hr 41 min 58 sec)
Heartbeat CPU 2 instructions: 150000003 cycles: 44737879 heartbeat IPC: 2.783 cumulative IPC: 2.8 (Simulation time: 00 hr 44 min 31 sec)
Heartbeat CPU 1 instructions: 90000000 cycles: 45852950 heartbeat IPC: 1.35 cumulative IPC: 1.343 (Simulation time: 00 hr 45 min 22 sec)
Heartbeat CPU 2 instructions: 160000001 cycles: 48105470 heartbeat IPC: 2.969 cumulative IPC: 2.821 (Simulation time: 00 hr 47 min 06 sec)
Heartbeat CPU 2 instructions: 170000004 cycles: 51594276 heartbeat IPC: 2.866 cumulative IPC: 2.826 (Simulation time: 00 hr 49 min 44 sec)
Heartbeat CPU 1 instructions: 100000000 cycles: 53311412 heartbeat IPC: 1.341 cumulative IPC: 1.342 (Simulation time: 00 hr 51 min 01 sec)
Heartbeat CPU 2 instructions: 180000003 cycles: 55325867 heartbeat IPC: 2.68 cumulative IPC: 2.81 (Simulation time: 00 hr 52 min 33 sec)
Heartbeat CPU 2 instructions: 190000001 cycles: 59010198 heartbeat IPC: 2.714 cumulative IPC: 2.801 (Simulation time: 00 hr 55 min 23 sec)
Heartbeat CPU 1 instructions: 110000003 cycles: 60880200 heartbeat IPC: 1.321 cumulative IPC: 1.338 (Simulation time: 00 hr 56 min 48 sec)
Heartbeat CPU 3 instructions: 80000000 cycles: 61080934 heartbeat IPC: 0.3112 cumulative IPC: 0.3137 (Simulation time: 00 hr 56 min 57 sec)
Heartbeat CPU 0 instructions: 70000002 cycles: 61915754 heartbeat IPC: 0.4868 cumulative IPC: 0.4873 (Simulation time: 00 hr 57 min 35 sec)
Heartbeat CPU 2 instructions: 200000004 cycles: 62625993 heartbeat IPC: 2.766 cumulative IPC: 2.798 (Simulation time: 00 hr 58 min 07 sec)
Heartbeat CPU 2 instructions: 210000004 cycles: 66177821 heartbeat IPC: 2.815 cumulative IPC: 2.799 (Simulation time: 01 hr 00 min 50 sec)
Heartbeat CPU 1 instructions: 120000004 cycles: 68275182 heartbeat IPC: 1.352 cumulative IPC: 1.341 (Simulation time: 01 hr 02 min 23 sec)
Heartbeat CPU 2 instructions: 220000001 cycles: 69849508 heartbeat IPC: 2.724 cumulative IPC: 2.794 (Simulation time: 01 hr 03 min 36 sec)
Heartbeat CPU 2 instructions: 230000000 cycles: 73350329 heartbeat IPC: 2.856 cumulative IPC: 2.798 (Simulation time: 01 hr 06 min 16 sec)
Simulation finished CPU 2 instructions: 150000004 cycles: 53580749 cumulative IPC: 2.8 (Simulation time: 01 hr 07 min 07 sec)
Heartbeat CPU 1 instructions: 130000001 cycles: 75684434 heartbeat IPC: 1.35 cumulative IPC: 1.342 (Simulation time: 01 hr 08 min 04 sec)
Heartbeat CPU 2 instructions: 240000002 cycles: 76984451 heartbeat IPC: 2.752 cumulative IPC: 2.795 (Simulation time: 01 hr 09 min 02 sec)
Heartbeat CPU 2 instructions: 250000004 cycles: 80625913 heartbeat IPC: 2.746 cumulative IPC: 2.792 (Simulation time: 01 hr 11 min 50 sec)
Heartbeat CPU 0 instructions: 80000002 cycles: 82543528 heartbeat IPC: 0.4848 cumulative IPC: 0.4865 (Simulation time: 01 hr 13 min 16 sec)
Heartbeat CPU 1 instructions: 140000002 cycles: 83110876 heartbeat IPC: 1.347 cumulative IPC: 1.342 (Simulation time: 01 hr 13 min 41 sec)
Heartbeat CPU 2 instructions: 260000002 cycles: 84157583 heartbeat IPC: 2.832 cumulative IPC: 2.794 (Simulation time: 01 hr 14 min 29 sec)
Heartbeat CPU 2 instructions: 270000004 cycles: 87808063 heartbeat IPC: 2.739 cumulative IPC: 2.791 (Simulation time: 01 hr 17 min 14 sec)
Heartbeat CPU 1 instructions: 150000004 cycles: 90802255 heartbeat IPC: 1.3 cumulative IPC: 1.338 (Simulation time: 01 hr 19 min 31 sec)
Heartbeat CPU 2 instructions: 280000004 cycles: 91331864 heartbeat IPC: 2.838 cumulative IPC: 2.793 (Simulation time: 01 hr 19 min 55 sec)
Heartbeat CPU 3 instructions: 90000003 cycles: 92257854 heartbeat IPC: 0.3208 cumulative IPC: 0.3168 (Simulation time: 01 hr 20 min 36 sec)
Heartbeat CPU 2 instructions: 290000003 cycles: 94809019 heartbeat IPC: 2.876 cumulative IPC: 2.797 (Simulation time: 01 hr 22 min 33 sec)
Heartbeat CPU 1 instructions: 160000004 cycles: 98191667 heartbeat IPC: 1.353 cumulative IPC: 1.339 (Simulation time: 01 hr 25 min 07 sec)
Heartbeat CPU 2 instructions: 300000000 cycles: 98339343 heartbeat IPC: 2.833 cumulative IPC: 2.799 (Simulation time: 01 hr 25 min 13 sec)
Heartbeat CPU 2 instructions: 310000004 cycles: 101803345 heartbeat IPC: 2.887 cumulative IPC: 2.803 (Simulation time: 01 hr 27 min 52 sec)
Heartbeat CPU 0 instructions: 90000001 cycles: 102757295 heartbeat IPC: 0.4947 cumulative IPC: 0.4885 (Simulation time: 01 hr 28 min 36 sec)
Heartbeat CPU 2 instructions: 320000001 cycles: 105257298 heartbeat IPC: 2.895 cumulative IPC: 2.806 (Simulation time: 01 hr 30 min 29 sec)
Heartbeat CPU 1 instructions: 170000002 cycles: 105599548 heartbeat IPC: 1.35 cumulative IPC: 1.34 (Simulation time: 01 hr 30 min 44 sec)
Heartbeat CPU 2 instructions: 330000001 cycles: 108716057 heartbeat IPC: 2.891 cumulative IPC: 2.81 (Simulation time: 01 hr 33 min 05 sec)
Heartbeat CPU 2 instructions: 340000002 cycles: 112234864 heartbeat IPC: 2.842 cumulative IPC: 2.811 (Simulation time: 01 hr 35 min 44 sec)
Heartbeat CPU 1 instructions: 180000004 cycles: 112996047 heartbeat IPC: 1.352 cumulative IPC: 1.341 (Simulation time: 01 hr 36 min 20 sec)
Heartbeat CPU 2 instructions: 350000001 cycles: 115728430 heartbeat IPC: 2.862 cumulative IPC: 2.813 (Simulation time: 01 hr 38 min 26 sec)
Heartbeat CPU 3 instructions: 100000000 cycles: 117409016 heartbeat IPC: 0.3976 cumulative IPC: 0.3378 (Simulation time: 01 hr 39 min 42 sec)
Heartbeat CPU 2 instructions: 360000001 cycles: 119220881 heartbeat IPC: 2.863 cumulative IPC: 2.815 (Simulation time: 01 hr 41 min 04 sec)
Heartbeat CPU 1 instructions: 190000001 cycles: 120449494 heartbeat IPC: 1.342 cumulative IPC: 1.341 (Simulation time: 01 hr 42 min 00 sec)
Heartbeat CPU 2 instructions: 370000001 cycles: 122718615 heartbeat IPC: 2.859 cumulative IPC: 2.816 (Simulation time: 01 hr 43 min 44 sec)
Heartbeat CPU 0 instructions: 100000000 cycles: 123818493 heartbeat IPC: 0.4748 cumulative IPC: 0.4857 (Simulation time: 01 hr 44 min 34 sec)
Heartbeat CPU 2 instructions: 380000001 cycles: 126626778 heartbeat IPC: 2.559 cumulative IPC: 2.807 (Simulation time: 01 hr 46 min 45 sec)
Heartbeat CPU 1 instructions: 200000002 cycles: 127934254 heartbeat IPC: 1.336 cumulative IPC: 1.341 (Simulation time: 01 hr 47 min 45 sec)
Heartbeat CPU 2 instructions: 390000000 cycles: 130293615 heartbeat IPC: 2.727 cumulative IPC: 2.804 (Simulation time: 01 hr 49 min 33 sec)
Simulation finished CPU 1 instructions: 150000003 cycles: 111855120 cumulative IPC: 1.341 (Simulation time: 01 hr 51 min 24 sec)
Heartbeat CPU 2 instructions: 400000003 cycles: 133721432 heartbeat IPC: 2.917 cumulative IPC: 2.807 (Simulation time: 01 hr 52 min 11 sec)
Heartbeat CPU 1 instructions: 210000002 cycles: 135357875 heartbeat IPC: 1.347 cumulative IPC: 1.341 (Simulation time: 01 hr 53 min 25 sec)
Heartbeat CPU 2 instructions: 410000004 cycles: 137285763 heartbeat IPC: 2.806 cumulative IPC: 2.807 (Simulation time: 01 hr 54 min 53 sec)
Heartbeat CPU 2 instructions: 420000001 cycles: 140714081 heartbeat IPC: 2.917 cumulative IPC: 2.811 (Simulation time: 01 hr 57 min 31 sec)
Heartbeat CPU 1 instructions: 220000000 cycles: 142738215 heartbeat IPC: 1.355 cumulative IPC: 1.342 (Simulation time: 01 hr 59 min 04 sec)
Heartbeat CPU 3 instructions: 110000000 cycles: 142839291 heartbeat IPC: 0.3932 cumulative IPC: 0.3494 (Simulation time: 01 hr 59 min 09 sec)
Heartbeat CPU 0 instructions: 110000004 cycles: 143966692 heartbeat IPC: 0.4963 cumulative IPC: 0.4874 (Simulation time: 01 hr 59 min 57 sec)
Heartbeat CPU 2 instructions: 430000003 cycles: 144816188 heartbeat IPC: 2.438 cumulative IPC: 2.798 (Simulation time: 02 hr 00 min 34 sec)
Heartbeat CPU 2 instructions: 440000000 cycles: 148617067 heartbeat IPC: 2.631 cumulative IPC: 2.793 (Simulation time: 02 hr 03 min 25 sec)
Heartbeat CPU 1 instructions: 230000002 cycles: 150251369 heartbeat IPC: 1.331 cumulative IPC: 1.341 (Simulation time: 02 hr 04 min 35 sec)
Heartbeat CPU 2 instructions: 450000001 cycles: 153710298 heartbeat IPC: 1.963 cumulative IPC: 2.761 (Simulation time: 02 hr 07 min 05 sec)
Heartbeat CPU 2 instructions: 460000000 cycles: 157132708 heartbeat IPC: 2.922 cumulative IPC: 2.765 (Simulation time: 02 hr 09 min 43 sec)
Heartbeat CPU 1 instructions: 240000003 cycles: 157886066 heartbeat IPC: 1.31 cumulative IPC: 1.34 (Simulation time: 02 hr 10 min 16 sec)
Heartbeat CPU 2 instructions: 470000002 cycles: 160604639 heartbeat IPC: 2.88 cumulative IPC: 2.768 (Simulation time: 02 hr 12 min 23 sec)
Heartbeat CPU 2 instructions: 480000002 cycles: 164112200 heartbeat IPC: 2.851 cumulative IPC: 2.77 (Simulation time: 02 hr 15 min 04 sec)
Heartbeat CPU 0 instructions: 120000004 cycles: 164832345 heartbeat IPC: 0.4793 cumulative IPC: 0.4862 (Simulation time: 02 hr 15 min 37 sec)
Heartbeat CPU 1 instructions: 250000003 cycles: 165251367 heartbeat IPC: 1.358 cumulative IPC: 1.341 (Simulation time: 02 hr 15 min 57 sec)
Heartbeat CPU 3 instructions: 120000003 cycles: 170435008 heartbeat IPC: 0.3624 cumulative IPC: 0.3518 (Simulation time: 02 hr 19 min 07 sec)
Heartbeat CPU 1 instructions: 260000004 cycles: 176203358 heartbeat IPC: 0.9131 cumulative IPC: 1.31 (Simulation time: 02 hr 22 min 36 sec)
Heartbeat CPU 2 instructions: 490000000 cycles: 177148360 heartbeat IPC: 0.7671 cumulative IPC: 2.603 (Simulation time: 02 hr 23 min 17 sec)
Heartbeat CPU 2 instructions: 500000003 cycles: 182842842 heartbeat IPC: 1.756 cumulative IPC: 2.573 (Simulation time: 02 hr 27 min 22 sec)
Heartbeat CPU 1 instructions: 270000002 cycles: 184270286 heartbeat IPC: 1.24 cumulative IPC: 1.307 (Simulation time: 02 hr 28 min 25 sec)
Heartbeat CPU 2 instructions: 510000001 cycles: 188288496 heartbeat IPC: 1.836 cumulative IPC: 2.549 (Simulation time: 02 hr 31 min 23 sec)
Heartbeat CPU 1 instructions: 280000000 cycles: 192009897 heartbeat IPC: 1.292 cumulative IPC: 1.306 (Simulation time: 02 hr 34 min 07 sec)
Heartbeat CPU 0 instructions: 130000002 cycles: 192587301 heartbeat IPC: 0.3603 cumulative IPC: 0.4659 (Simulation time: 02 hr 34 min 33 sec)
Heartbeat CPU 2 instructions: 520000003 cycles: 193848820 heartbeat IPC: 1.798 cumulative IPC: 2.525 (Simulation time: 02 hr 35 min 29 sec)
Heartbeat CPU 2 instructions: 530000000 cycles: 199322551 heartbeat IPC: 1.827 cumulative IPC: 2.504 (Simulation time: 02 hr 39 min 35 sec)
Heartbeat CPU 1 instructions: 290000001 cycles: 199695485 heartbeat IPC: 1.301 cumulative IPC: 1.306 (Simulation time: 02 hr 39 min 51 sec)
Heartbeat CPU 3 instructions: 130000000 cycles: 200377953 heartbeat IPC: 0.334 cumulative IPC: 0.3488 (Simulation time: 02 hr 40 min 21 sec)
Heartbeat CPU 2 instructions: 540000004 cycles: 204772968 heartbeat IPC: 1.835 cumulative IPC: 2.484 (Simulation time: 02 hr 43 min 41 sec)
Heartbeat CPU 1 instructions: 300000001 cycles: 207370485 heartbeat IPC: 1.303 cumulative IPC: 1.306 (Simulation time: 02 hr 45 min 35 sec)
Heartbeat CPU 2 instructions: 550000001 cycles: 210237196 heartbeat IPC: 1.83 cumulative IPC: 2.465 (Simulation time: 02 hr 47 min 43 sec)
Heartbeat CPU 0 instructions: 140000001 cycles: 214200627 heartbeat IPC: 0.4627 cumulative IPC: 0.4655 (Simulation time: 02 hr 50 min 39 sec)
Heartbeat CPU 1 instructions: 310000002 cycles: 214986578 heartbeat IPC: 1.313 cumulative IPC: 1.306 (Simulation time: 02 hr 51 min 13 sec)
Heartbeat CPU 2 instructions: 560000000 cycles: 216728665 heartbeat IPC: 1.54 cumulative IPC: 2.435 (Simulation time: 02 hr 52 min 20 sec)
Heartbeat CPU 1 instructions: 320000003 cycles: 226167574 heartbeat IPC: 0.8944 cumulative IPC: 1.284 (Simulation time: 02 hr 57 min 59 sec)
Heartbeat CPU 2 instructions: 570000001 cycles: 230402781 heartbeat IPC: 0.7313 cumulative IPC: 2.323 (Simulation time: 03 hr 01 min 00 sec)
Heartbeat CPU 3 instructions: 140000002 cycles: 233306275 heartbeat IPC: 0.3037 cumulative IPC: 0.3418 (Simulation time: 03 hr 03 min 07 sec)
Heartbeat CPU 1 instructions: 330000001 cycles: 234221479 heartbeat IPC: 1.242 cumulative IPC: 1.282 (Simulation time: 03 hr 03 min 49 sec)
Heartbeat CPU 2 instructions: 580000000 cycles: 235948358 heartbeat IPC: 1.803 cumulative IPC: 2.31 (Simulation time: 03 hr 05 min 04 sec)
Heartbeat CPU 2 instructions: 590000004 cycles: 241496468 heartbeat IPC: 1.802 cumulative IPC: 2.297 (Simulation time: 03 hr 09 min 09 sec)
Heartbeat CPU 1 instructions: 340000003 cycles: 242050848 heartbeat IPC: 1.277 cumulative IPC: 1.282 (Simulation time: 03 hr 09 min 34 sec)
Heartbeat CPU 0 instructions: 150000003 cycles: 242355164 heartbeat IPC: 0.3552 cumulative IPC: 0.4515 (Simulation time: 03 hr 09 min 47 sec)
Heartbeat CPU 2 instructions: 600000004 cycles: 246978956 heartbeat IPC: 1.824 cumulative IPC: 2.286 (Simulation time: 03 hr 13 min 15 sec)
Heartbeat CPU 1 instructions: 350000000 cycles: 249719487 heartbeat IPC: 1.304 cumulative IPC: 1.283 (Simulation time: 03 hr 15 min 19 sec)
Heartbeat CPU 2 instructions: 610000001 cycles: 252427480 heartbeat IPC: 1.835 cumulative IPC: 2.275 (Simulation time: 03 hr 17 min 20 sec)
Heartbeat CPU 1 instructions: 360000000 cycles: 257410194 heartbeat IPC: 1.3 cumulative IPC: 1.283 (Simulation time: 03 hr 21 min 04 sec)
Heartbeat CPU 2 instructions: 620000002 cycles: 257924680 heartbeat IPC: 1.819 cumulative IPC: 2.265 (Simulation time: 03 hr 21 min 28 sec)
Heartbeat CPU 3 instructions: 150000000 cycles: 259847261 heartbeat IPC: 0.3768 cumulative IPC: 0.3457 (Simulation time: 03 hr 22 min 53 sec)
Heartbeat CPU 2 instructions: 630000004 cycles: 263440325 heartbeat IPC: 1.813 cumulative IPC: 2.254 (Simulation time: 03 hr 25 min 33 sec)
Heartbeat CPU 0 instructions: 160000002 cycles: 264246626 heartbeat IPC: 0.4568 cumulative IPC: 0.452 (Simulation time: 03 hr 26 min 10 sec)
Heartbeat CPU 1 instructions: 370000001 cycles: 265147382 heartbeat IPC: 1.292 cumulative IPC: 1.284 (Simulation time: 03 hr 26 min 48 sec)
Heartbeat CPU 1 instructions: 380000002 cycles: 276824113 heartbeat IPC: 0.8564 cumulative IPC: 1.264 (Simulation time: 03 hr 33 min 40 sec)
Heartbeat CPU 2 instructions: 640000002 cycles: 279465257 heartbeat IPC: 0.624 cumulative IPC: 2.153 (Simulation time: 03 hr 35 min 31 sec)
Heartbeat CPU 1 instructions: 390000001 cycles: 284984342 heartbeat IPC: 1.225 cumulative IPC: 1.263 (Simulation time: 03 hr 39 min 34 sec)
Heartbeat CPU 2 instructions: 650000001 cycles: 285076113 heartbeat IPC: 1.782 cumulative IPC: 2.145 (Simulation time: 03 hr 39 min 38 sec)
Heartbeat CPU 2 instructions: 660000003 cycles: 290550152 heartbeat IPC: 1.827 cumulative IPC: 2.139 (Simulation time: 03 hr 43 min 42 sec)
Heartbeat CPU 3 instructions: 160000002 cycles: 292600909 heartbeat IPC: 0.3053 cumulative IPC: 0.3408 (Simulation time: 03 hr 45 min 16 sec)
Heartbeat CPU 1 instructions: 400000003 cycles: 292614275 heartbeat IPC: 1.311 cumulative IPC: 1.264 (Simulation time: 03 hr 45 min 16 sec)
Heartbeat CPU 0 instructions: 170000001 cycles: 292828992 heartbeat IPC: 0.3499 cumulative IPC: 0.4412 (Simulation time: 03 hr 45 min 25 sec)
Heartbeat CPU 2 instructions: 670000002 cycles: 296048281 heartbeat IPC: 1.819 cumulative IPC: 2.133 (Simulation time: 03 hr 47 min 51 sec)
Heartbeat CPU 1 instructions: 410000001 cycles: 300264584 heartbeat IPC: 1.307 cumulative IPC: 1.265 (Simulation time: 03 hr 51 min 02 sec)
Heartbeat CPU 2 instructions: 680000002 cycles: 301545561 heartbeat IPC: 1.819 cumulative IPC: 2.126 (Simulation time: 03 hr 51 min 59 sec)
Heartbeat CPU 2 instructions: 690000000 cycles: 307030126 heartbeat IPC: 1.823 cumulative IPC: 2.121 (Simulation time: 03 hr 56 min 03 sec)
Heartbeat CPU 1 instructions: 420000000 cycles: 307959237 heartbeat IPC: 1.3 cumulative IPC: 1.266 (Simulation time: 03 hr 56 min 44 sec)
Heartbeat CPU 2 instructions: 700000000 cycles: 312559445 heartbeat IPC: 1.809 cumulative IPC: 2.115 (Simulation time: 04 hr 00 min 10 sec)
Heartbeat CPU 0 instructions: 180000001 cycles: 314537075 heartbeat IPC: 0.4607 cumulative IPC: 0.4427 (Simulation time: 04 hr 01 min 40 sec)
Heartbeat CPU 1 instructions: 430000002 cycles: 315726301 heartbeat IPC: 1.287 cumulative IPC: 1.267 (Simulation time: 04 hr 02 min 31 sec)
Heartbeat CPU 3 instructions: 170000000 cycles: 322936993 heartbeat IPC: 0.3296 cumulative IPC: 0.3397 (Simulation time: 04 hr 06 min 45 sec)
Heartbeat CPU 2 instructions: 710000002 cycles: 327077877 heartbeat IPC: 0.6888 cumulative IPC: 2.047 (Simulation time: 04 hr 09 min 12 sec)
Heartbeat CPU 1 instructions: 440000002 cycles: 327238550 heartbeat IPC: 0.8686 cumulative IPC: 1.252 (Simulation time: 04 hr 09 min 18 sec)
Heartbeat CPU 2 instructions: 720000000 cycles: 335345903 heartbeat IPC: 1.209 cumulative IPC: 2.025 (Simulation time: 04 hr 14 min 48 sec)
Heartbeat CPU 1 instructions: 450000002 cycles: 336357774 heartbeat IPC: 1.097 cumulative IPC: 1.247 (Simulation time: 04 hr 15 min 31 sec)
Heartbeat CPU 2 instructions: 730000001 cycles: 340860938 heartbeat IPC: 1.813 cumulative IPC: 2.021 (Simulation time: 04 hr 18 min 52 sec)
Heartbeat CPU 1 instructions: 460000001 cycles: 343976165 heartbeat IPC: 1.313 cumulative IPC: 1.249 (Simulation time: 04 hr 21 min 11 sec)
Heartbeat CPU 0 instructions: 190000003 cycles: 344798411 heartbeat IPC: 0.3305 cumulative IPC: 0.4322 (Simulation time: 04 hr 21 min 50 sec)
Heartbeat CPU 2 instructions: 740000001 cycles: 346308143 heartbeat IPC: 1.836 cumulative IPC: 2.018 (Simulation time: 04 hr 22 min 58 sec)
Heartbeat CPU 1 instructions: 470000001 cycles: 351583640 heartbeat IPC: 1.314 cumulative IPC: 1.25 (Simulation time: 04 hr 26 min 52 sec)
Heartbeat CPU 2 instructions: 750000000 cycles: 351774897 heartbeat IPC: 1.829 cumulative IPC: 2.015 (Simulation time: 04 hr 27 min 01 sec)
Heartbeat CPU 3 instructions: 180000004 cycles: 353779295 heartbeat IPC: 0.3242 cumulative IPC: 0.3383 (Simulation time: 04 hr 28 min 30 sec)
Heartbeat CPU 2 instructions: 760000000 cycles: 357228237 heartbeat IPC: 1.834 cumulative IPC: 2.012 (Simulation time: 04 hr 31 min 04 sec)
Heartbeat CPU 1 instructions: 480000001 cycles: 359179580 heartbeat IPC: 1.316 cumulative IPC: 1.252 (Simulation time: 04 hr 32 min 33 sec)
Heartbeat CPU 2 instructions: 770000004 cycles: 362705961 heartbeat IPC: 1.826 cumulative IPC: 2.009 (Simulation time: 04 hr 35 min 08 sec)
Heartbeat CPU 0 instructions: 200000001 cycles: 366448686 heartbeat IPC: 0.4619 cumulative IPC: 0.4341 (Simulation time: 04 hr 37 min 53 sec)
Simulation finished CPU 0 instructions: 150000001 cycles: 345575731 cumulative IPC: 0.4341 (Simulation time: 04 hr 37 min 53 sec)
Heartbeat CPU 1 instructions: 490000001 cycles: 366932322 heartbeat IPC: 1.29 cumulative IPC: 1.253 (Simulation time: 04 hr 38 min 14 sec)
Heartbeat CPU 2 instructions: 780000003 cycles: 368229966 heartbeat IPC: 1.81 cumulative IPC: 2.006 (Simulation time: 04 hr 39 min 12 sec)
Heartbeat CPU 1 instructions: 500000001 cycles: 377011215 heartbeat IPC: 0.9922 cumulative IPC: 1.245 (Simulation time: 04 hr 44 min 34 sec)
Heartbeat CPU 2 instructions: 790000003 cycles: 382813973 heartbeat IPC: 0.6857 cumulative IPC: 1.953 (Simulation time: 04 hr 48 min 23 sec)
Heartbeat CPU 1 instructions: 510000004 cycles: 386126030 heartbeat IPC: 1.097 cumulative IPC: 1.242 (Simulation time: 04 hr 50 min 44 sec)
Heartbeat CPU 3 instructions: 190000003 cycles: 386594347 heartbeat IPC: 0.3047 cumulative IPC: 0.3353 (Simulation time: 04 hr 51 min 06 sec)
Heartbeat CPU 2 instructions: 800000003 cycles: 388466549 heartbeat IPC: 1.769 cumulative IPC: 1.95 (Simulation time: 04 hr 52 min 28 sec)
Heartbeat CPU 1 instructions: 520000001 cycles: 393974589 heartbeat IPC: 1.274 cumulative IPC: 1.242 (Simulation time: 04 hr 56 min 33 sec)
Heartbeat CPU 2 instructions: 810000003 cycles: 393988355 heartbeat IPC: 1.811 cumulative IPC: 1.948 (Simulation time: 04 hr 56 min 34 sec)
Heartbeat CPU 0 instructions: 210000004 cycles: 394040492 heartbeat IPC: 0.3624 cumulative IPC: 0.4288 (Simulation time: 04 hr 56 min 36 sec)
Heartbeat CPU 2 instructions: 820000001 cycles: 399468060 heartbeat IPC: 1.825 cumulative IPC: 1.946 (Simulation time: 05 hr 00 min 37 sec)
Heartbeat CPU 1 instructions: 530000001 cycles: 401684707 heartbeat IPC: 1.297 cumulative IPC: 1.244 (Simulation time: 05 hr 02 min 14 sec)
Heartbeat CPU 2 instructions: 830000003 cycles: 404924844 heartbeat IPC: 1.833 cumulative IPC: 1.945 (Simulation time: 05 hr 04 min 40 sec)
Heartbeat CPU 1 instructions: 540000001 cycles: 409387608 heartbeat IPC: 1.298 cumulative IPC: 1.245 (Simulation time: 05 hr 07 min 56 sec)
Heartbeat CPU 2 instructions: 840000003 cycles: 410462909 heartbeat IPC: 1.806 cumulative IPC: 1.943 (Simulation time: 05 hr 08 min 45 sec)
Heartbeat CPU 3 instructions: 200000000 cycles: 413818397 heartbeat IPC: 0.3673 cumulative IPC: 0.3375 (Simulation time: 05 hr 11 min 16 sec)
Heartbeat CPU 0 instructions: 220000004 cycles: 415476628 heartbeat IPC: 0.4665 cumulative IPC: 0.4308 (Simulation time: 05 hr 12 min 28 sec)
Heartbeat CPU 2 instructions: 850000002 cycles: 415849542 heartbeat IPC: 1.856 cumulative IPC: 1.941 (Simulation time: 05 hr 12 min 45 sec)
Heartbeat CPU 1 instructions: 550000000 cycles: 417033156 heartbeat IPC: 1.308 cumulative IPC: 1.246 (Simulation time: 05 hr 13 min 35 sec)
Heartbeat CPU 1 instructions: 560000002 cycles: 427313072 heartbeat IPC: 0.9728 cumulative IPC: 1.239 (Simulation time: 05 hr 19 min 56 sec)
Heartbeat CPU 2 instructions: 860000002 cycles: 430143556 heartbeat IPC: 0.6996 cumulative IPC: 1.898 (Simulation time: 05 hr 21 min 41 sec)
Heartbeat CPU 2 instructions: 870000001 cycles: 435859770 heartbeat IPC: 1.749 cumulative IPC: 1.896 (Simulation time: 05 hr 25 min 51 sec)
Heartbeat CPU 1 instructions: 570000003 cycles: 436232195 heartbeat IPC: 1.121 cumulative IPC: 1.236 (Simulation time: 05 hr 26 min 09 sec)
Heartbeat CPU 2 instructions: 880000000 cycles: 441329451 heartbeat IPC: 1.828 cumulative IPC: 1.895 (Simulation time: 05 hr 29 min 56 sec)
Heartbeat CPU 0 instructions: 230000004 cycles: 443056206 heartbeat IPC: 0.3626 cumulative IPC: 0.4264 (Simulation time: 05 hr 31 min 12 sec)
Heartbeat CPU 1 instructions: 580000000 cycles: 443867947 heartbeat IPC: 1.31 cumulative IPC: 1.238 (Simulation time: 05 hr 31 min 50 sec)
Heartbeat CPU 3 instructions: 210000000 cycles: 446698445 heartbeat IPC: 0.3041 cumulative IPC: 0.3349 (Simulation time: 05 hr 33 min 53 sec)
Heartbeat CPU 2 instructions: 890000002 cycles: 446798284 heartbeat IPC: 1.829 cumulative IPC: 1.894 (Simulation time: 05 hr 33 min 58 sec)
Heartbeat CPU 1 instructions: 590000003 cycles: 451508624 heartbeat IPC: 1.309 cumulative IPC: 1.239 (Simulation time: 05 hr 37 min 28 sec)
Heartbeat CPU 2 instructions: 900000002 cycles: 452274063 heartbeat IPC: 1.826 cumulative IPC: 1.893 (Simulation time: 05 hr 38 min 02 sec)
Heartbeat CPU 2 instructions: 910000004 cycles: 457776103 heartbeat IPC: 1.818 cumulative IPC: 1.892 (Simulation time: 05 hr 42 min 08 sec)
Heartbeat CPU 1 instructions: 600000000 cycles: 459159437 heartbeat IPC: 1.307 cumulative IPC: 1.24 (Simulation time: 05 hr 43 min 10 sec)
Heartbeat CPU 2 instructions: 920000000 cycles: 463298514 heartbeat IPC: 1.811 cumulative IPC: 1.891 (Simulation time: 05 hr 46 min 18 sec)
Heartbeat CPU 0 instructions: 240000001 cycles: 464717956 heartbeat IPC: 0.4616 cumulative IPC: 0.4281 (Simulation time: 05 hr 47 min 20 sec)
Simulation finished CPU 3 instructions: 150000001 cycles: 444407026 cumulative IPC: 0.3375 (Simulation time: 05 hr 47 min 47 sec)
Simulation complete CPU 0 instructions: 190226216 cycles: 444407026 cumulative IPC: 0.428 (Simulation time: 05 hr 47 min 47 sec)
Simulation complete CPU 1 instructions: 551461083 cycles: 444407026 cumulative IPC: 1.241 (Simulation time: 05 hr 47 min 47 sec)
Simulation complete CPU 2 instructions: 840443233 cycles: 444407026 cumulative IPC: 1.891 (Simulation time: 05 hr 47 min 47 sec)
Simulation complete CPU 3 instructions: 150000001 cycles: 444407026 cumulative IPC: 0.3375 (Simulation time: 05 hr 47 min 47 sec)

ChampSim completed all CPUs

=== Simulation ===
CPU 0 runs /home/grads/r/rdas40/dpc3_traces/620.omnetpp_s-874B.champsimtrace.xzCPU 1 runs /home/grads/r/rdas40/dpc3_traces/607.cactuBSSN_s-2421B.champsimtrace.xzCPU 2 runs /home/grads/r/rdas40/dpc3_traces/654.roms_s-842B.champsimtrace.xzCPU 3 runs /home/grads/r/rdas40/dpc3_traces/605.mcf_s-665B.champsimtrace.xz
Total Simulation Statistics (not including warmup)

CPU 0 cumulative IPC: 0.428 instructions: 190226216 cycles: 444407026
CPU 0 Branch Prediction Accuracy: 94.9% MPKI: 10.6 Average ROB Occupancy at Mispredict: 82.62
Branch type MPKI
BRANCH_DIRECT_JUMP: 0.924
BRANCH_INDIRECT: 0.127
BRANCH_CONDITIONAL: 8.42
BRANCH_DIRECT_CALL: 0.000131
BRANCH_INDIRECT_CALL: 0.733
BRANCH_RETURN: 0.397


CPU 1 cumulative IPC: 1.241 instructions: 551461083 cycles: 444407026
CPU 1 Branch Prediction Accuracy: 99.85% MPKI: 0.001804 Average ROB Occupancy at Mispredict: 348.6
Branch type MPKI
BRANCH_DIRECT_JUMP: 1.81e-06
BRANCH_INDIRECT: 9.07e-06
BRANCH_CONDITIONAL: 0.00179
BRANCH_DIRECT_CALL: 0
BRANCH_INDIRECT_CALL: 0
BRANCH_RETURN: 0


CPU 2 cumulative IPC: 1.891 instructions: 840443233 cycles: 444407026
CPU 2 Branch Prediction Accuracy: 91.47% MPKI: 11.28 Average ROB Occupancy at Mispredict: 123
Branch type MPKI
BRANCH_DIRECT_JUMP: 0.0742
BRANCH_INDIRECT: 0
BRANCH_CONDITIONAL: 6.95
BRANCH_DIRECT_CALL: 9.52e-06
BRANCH_INDIRECT_CALL: 0
BRANCH_RETURN: 4.25


CPU 3 cumulative IPC: 0.3375 instructions: 150000001 cycles: 444407026
CPU 3 Branch Prediction Accuracy: 90.36% MPKI: 23.85 Average ROB Occupancy at Mispredict: 18.51
Branch type MPKI
BRANCH_DIRECT_JUMP: 0.254
BRANCH_INDIRECT: 0
BRANCH_CONDITIONAL: 23.6
BRANCH_DIRECT_CALL: 0
BRANCH_INDIRECT_CALL: 0.000633
BRANCH_RETURN: 0

LLC TOTAL        ACCESS:    4444158 HIT:    1967033 MISS:    2477125
LLC LOAD         ACCESS:    2140807 HIT:     514158 MISS:    1626649
LLC RFO          ACCESS:     323564 HIT:     154632 MISS:     168932
LLC PREFETCH     ACCESS:          0 HIT:          0 MISS:          0
LLC WRITE        ACCESS:    1226534 HIT:    1212630 MISS:      13904
LLC TRANSLATION  ACCESS:     753253 HIT:      85613 MISS:     667640
LLC PREFETCH REQUESTED:          0 ISSUED:          0 USEFUL:          0 USELESS:          0
LLC AVERAGE MISS LATENCY: 583.1 cycles
LLC TOTAL        ACCESS:    6387116 HIT:    2102816 MISS:    4284300
LLC LOAD         ACCESS:    5747986 HIT:    1515078 MISS:    4232908
LLC RFO          ACCESS:      11057 HIT:      11057 MISS:          0
LLC PREFETCH     ACCESS:          0 HIT:          0 MISS:          0
LLC WRITE        ACCESS:     544680 HIT:     544568 MISS:        112
LLC TRANSLATION  ACCESS:      83393 HIT:      32113 MISS:      51280
LLC PREFETCH REQUESTED:          0 ISSUED:          0 USEFUL:          0 USELESS:          0
LLC AVERAGE MISS LATENCY: 583.1 cycles
LLC TOTAL        ACCESS:    2169467 HIT:     560161 MISS:    1609306
LLC LOAD         ACCESS:     928459 HIT:       8579 MISS:     919880
LLC RFO          ACCESS:     617333 HIT:         41 MISS:     617292
LLC PREFETCH     ACCESS:          0 HIT:          0 MISS:          0
LLC WRITE        ACCESS:     617462 HIT:     550169 MISS:      67293
LLC TRANSLATION  ACCESS:       6213 HIT:       1372 MISS:       4841
LLC PREFETCH REQUESTED:          0 ISSUED:          0 USEFUL:          0 USELESS:          0
LLC AVERAGE MISS LATENCY: 583.1 cycles
LLC TOTAL        ACCESS:    3594832 HIT:    1980129 MISS:    1614703
LLC LOAD         ACCESS:    2987825 HIT:    1404569 MISS:    1583256
LLC RFO          ACCESS:     227801 HIT:     223041 MISS:       4760
LLC PREFETCH     ACCESS:          0 HIT:          0 MISS:          0
LLC WRITE        ACCESS:     365153 HIT:     344624 MISS:      20529
LLC TRANSLATION  ACCESS:      14053 HIT:       7895 MISS:       6158
LLC PREFETCH REQUESTED:          0 ISSUED:          0 USEFUL:          0 USELESS:          0
LLC AVERAGE MISS LATENCY: 583.1 cycles
cpu0_DTLB TOTAL        ACCESS:   48459669 HIT:   44281213 MISS:    4178456
cpu0_DTLB LOAD         ACCESS:   48459669 HIT:   44281213 MISS:    4178456
cpu0_DTLB RFO          ACCESS:          0 HIT:          0 MISS:          0
cpu0_DTLB PREFETCH     ACCESS:          0 HIT:          0 MISS:          0
cpu0_DTLB WRITE        ACCESS:          0 HIT:          0 MISS:          0
cpu0_DTLB TRANSLATION  ACCESS:          0 HIT:          0 MISS:          0
cpu0_DTLB PREFETCH REQUESTED:          0 ISSUED:          0 USEFUL:          0 USELESS:          0
cpu0_DTLB AVERAGE MISS LATENCY: 65.33 cycles
cpu0_DTLB TOTAL        ACCESS:          0 HIT:          0 MISS:          0
cpu0_DTLB LOAD         ACCESS:          0 HIT:          0 MISS:          0
cpu0_DTLB RFO          ACCESS:          0 HIT:          0 MISS:          0
cpu0_DTLB PREFETCH     ACCESS:          0 HIT:          0 MISS:          0
cpu0_DTLB WRITE        ACCESS:          0 HIT:          0 MISS:          0
cpu0_DTLB TRANSLATION  ACCESS:          0 HIT:          0 MISS:          0
cpu0_DTLB PREFETCH REQUESTED:          0 ISSUED:          0 USEFUL:          0 USELESS:          0
cpu0_DTLB AVERAGE MISS LATENCY: 65.33 cycles
cpu0_DTLB TOTAL        ACCESS:          0 HIT:          0 MISS:          0
cpu0_DTLB LOAD         ACCESS:          0 HIT:          0 MISS:          0
cpu0_DTLB RFO          ACCESS:          0 HIT:          0 MISS:          0
cpu0_DTLB PREFETCH     ACCESS:          0 HIT:          0 MISS:          0
cpu0_DTLB WRITE        ACCESS:          0 HIT:          0 MISS:          0
cpu0_DTLB TRANSLATION  ACCESS:          0 HIT:          0 MISS:          0
cpu0_DTLB PREFETCH REQUESTED:          0 ISSUED:          0 USEFUL:          0 USELESS:          0
cpu0_DTLB AVERAGE MISS LATENCY: 65.33 cycles
cpu0_DTLB TOTAL        ACCESS:          0 HIT:          0 MISS:          0
cpu0_DTLB LOAD         ACCESS:          0 HIT:          0 MISS:          0
cpu0_DTLB RFO          ACCESS:          0 HIT:          0 MISS:          0
cpu0_DTLB PREFETCH     ACCESS:          0 HIT:          0 MISS:          0
cpu0_DTLB WRITE        ACCESS:          0 HIT:          0 MISS:          0
cpu0_DTLB TRANSLATION  ACCESS:          0 HIT:          0 MISS:          0
cpu0_DTLB PREFETCH REQUESTED:          0 ISSUED:          0 USEFUL:          0 USELESS:          0
cpu0_DTLB AVERAGE MISS LATENCY: 65.33 cycles
cpu0_ITLB TOTAL        ACCESS:   13690203 HIT:   13343964 MISS:     346239
cpu0_ITLB LOAD         ACCESS:   13690203 HIT:   13343964 MISS:     346239
cpu0_ITLB RFO          ACCESS:          0 HIT:          0 MISS:          0
cpu0_ITLB PREFETCH     ACCESS:          0 HIT:          0 MISS:          0
cpu0_ITLB WRITE        ACCESS:          0 HIT:          0 MISS:          0
cpu0_ITLB TRANSLATION  ACCESS:          0 HIT:          0 MISS:          0
cpu0_ITLB PREFETCH REQUESTED:          0 ISSUED:          0 USEFUL:          0 USELESS:          0
cpu0_ITLB AVERAGE MISS LATENCY: 6.491 cycles
cpu0_ITLB TOTAL        ACCESS:          0 HIT:          0 MISS:          0
cpu0_ITLB LOAD         ACCESS:          0 HIT:          0 MISS:          0
cpu0_ITLB RFO          ACCESS:          0 HIT:          0 MISS:          0
cpu0_ITLB PREFETCH     ACCESS:          0 HIT:          0 MISS:          0
cpu0_ITLB WRITE        ACCESS:          0 HIT:          0 MISS:          0
cpu0_ITLB TRANSLATION  ACCESS:          0 HIT:          0 MISS:          0
cpu0_ITLB PREFETCH REQUESTED:          0 ISSUED:          0 USEFUL:          0 USELESS:          0
cpu0_ITLB AVERAGE MISS LATENCY: 6.491 cycles
cpu0_ITLB TOTAL        ACCESS:          0 HIT:          0 MISS:          0
cpu0_ITLB LOAD         ACCESS:          0 HIT:          0 MISS:          0
cpu0_ITLB RFO          ACCESS:          0 HIT:          0 MISS:          0
cpu0_ITLB PREFETCH     ACCESS:          0 HIT:          0 MISS:          0
cpu0_ITLB WRITE        ACCESS:          0 HIT:          0 MISS:          0
cpu0_ITLB TRANSLATION  ACCESS:          0 HIT:          0 MISS:          0
cpu0_ITLB PREFETCH REQUESTED:          0 ISSUED:          0 USEFUL:          0 USELESS:          0
cpu0_ITLB AVERAGE MISS LATENCY: 6.491 cycles
cpu0_ITLB TOTAL        ACCESS:          0 HIT:          0 MISS:          0
cpu0_ITLB LOAD         ACCESS:          0 HIT:          0 MISS:          0
cpu0_ITLB RFO          ACCESS:          0 HIT:          0 MISS:          0
cpu0_ITLB PREFETCH     ACCESS:          0 HIT:          0 MISS:          0
cpu0_ITLB WRITE        ACCESS:          0 HIT:          0 MISS:          0
cpu0_ITLB TRANSLATION  ACCESS:          0 HIT:          0 MISS:          0
cpu0_ITLB PREFETCH REQUESTED:          0 ISSUED:          0 USEFUL:          0 USELESS:          0
cpu0_ITLB AVERAGE MISS LATENCY: 6.491 cycles
cpu0_L1D TOTAL        ACCESS:   63082473 HIT:   56893924 MISS:    6188549
cpu0_L1D LOAD         ACCESS:   29028564 HIT:   25146761 MISS:    3881803
cpu0_L1D RFO          ACCESS:          0 HIT:          0 MISS:          0
cpu0_L1D PREFETCH     ACCESS:          0 HIT:          0 MISS:          0
cpu0_L1D WRITE        ACCESS:   32926346 HIT:   31564063 MISS:    1362283
cpu0_L1D TRANSLATION  ACCESS:    1127563 HIT:     183100 MISS:     944463
cpu0_L1D PREFETCH REQUESTED:          0 ISSUED:          0 USEFUL:          0 USELESS:          0
cpu0_L1D AVERAGE MISS LATENCY: 143.9 cycles
cpu0_L1D TOTAL        ACCESS:          0 HIT:          0 MISS:          0
cpu0_L1D LOAD         ACCESS:          0 HIT:          0 MISS:          0
cpu0_L1D RFO          ACCESS:          0 HIT:          0 MISS:          0
cpu0_L1D PREFETCH     ACCESS:          0 HIT:          0 MISS:          0
cpu0_L1D WRITE        ACCESS:          0 HIT:          0 MISS:          0
cpu0_L1D TRANSLATION  ACCESS:          0 HIT:          0 MISS:          0
cpu0_L1D PREFETCH REQUESTED:          0 ISSUED:          0 USEFUL:          0 USELESS:          0
cpu0_L1D AVERAGE MISS LATENCY: 143.9 cycles
cpu0_L1D TOTAL        ACCESS:          0 HIT:          0 MISS:          0
cpu0_L1D LOAD         ACCESS:          0 HIT:          0 MISS:          0
cpu0_L1D RFO          ACCESS:          0 HIT:          0 MISS:          0
cpu0_L1D PREFETCH     ACCESS:          0 HIT:          0 MISS:          0
cpu0_L1D WRITE        ACCESS:          0 HIT:          0 MISS:          0
cpu0_L1D TRANSLATION  ACCESS:          0 HIT:          0 MISS:          0
cpu0_L1D PREFETCH REQUESTED:          0 ISSUED:          0 USEFUL:          0 USELESS:          0
cpu0_L1D AVERAGE MISS LATENCY: 143.9 cycles
cpu0_L1D TOTAL        ACCESS:          0 HIT:          0 MISS:          0
cpu0_L1D LOAD         ACCESS:          0 HIT:          0 MISS:          0
cpu0_L1D RFO          ACCESS:          0 HIT:          0 MISS:          0
cpu0_L1D PREFETCH     ACCESS:          0 HIT:          0 MISS:          0
cpu0_L1D WRITE        ACCESS:          0 HIT:          0 MISS:          0
cpu0_L1D TRANSLATION  ACCESS:          0 HIT:          0 MISS:          0
cpu0_L1D PREFETCH REQUESTED:          0 ISSUED:          0 USEFUL:          0 USELESS:          0
cpu0_L1D AVERAGE MISS LATENCY: 143.9 cycles
cpu0_L1I TOTAL        ACCESS:   16343464 HIT:   16249091 MISS:      94373
cpu0_L1I LOAD         ACCESS:   16343464 HIT:   16249091 MISS:      94373
cpu0_L1I RFO          ACCESS:          0 HIT:          0 MISS:          0
cpu0_L1I PREFETCH     ACCESS:          0 HIT:          0 MISS:          0
cpu0_L1I WRITE        ACCESS:          0 HIT:          0 MISS:          0
cpu0_L1I TRANSLATION  ACCESS:          0 HIT:          0 MISS:          0
cpu0_L1I PREFETCH REQUESTED:          0 ISSUED:          0 USEFUL:          0 USELESS:          0
cpu0_L1I AVERAGE MISS LATENCY: 24.73 cycles
cpu0_L1I TOTAL        ACCESS:          0 HIT:          0 MISS:          0
cpu0_L1I LOAD         ACCESS:          0 HIT:          0 MISS:          0
cpu0_L1I RFO          ACCESS:          0 HIT:          0 MISS:          0
cpu0_L1I PREFETCH     ACCESS:          0 HIT:          0 MISS:          0
cpu0_L1I WRITE        ACCESS:          0 HIT:          0 MISS:          0
cpu0_L1I TRANSLATION  ACCESS:          0 HIT:          0 MISS:          0
cpu0_L1I PREFETCH REQUESTED:          0 ISSUED:          0 USEFUL:          0 USELESS:          0
cpu0_L1I AVERAGE MISS LATENCY: 24.73 cycles
cpu0_L1I TOTAL        ACCESS:          0 HIT:          0 MISS:          0
cpu0_L1I LOAD         ACCESS:          0 HIT:          0 MISS:          0
cpu0_L1I RFO          ACCESS:          0 HIT:          0 MISS:          0
cpu0_L1I PREFETCH     ACCESS:          0 HIT:          0 MISS:          0
cpu0_L1I WRITE        ACCESS:          0 HIT:          0 MISS:          0
cpu0_L1I TRANSLATION  ACCESS:          0 HIT:          0 MISS:          0
cpu0_L1I PREFETCH REQUESTED:          0 ISSUED:          0 USEFUL:          0 USELESS:          0
cpu0_L1I AVERAGE MISS LATENCY: 24.73 cycles
cpu0_L1I TOTAL        ACCESS:          0 HIT:          0 MISS:          0
cpu0_L1I LOAD         ACCESS:          0 HIT:          0 MISS:          0
cpu0_L1I RFO          ACCESS:          0 HIT:          0 MISS:          0
cpu0_L1I PREFETCH     ACCESS:          0 HIT:          0 MISS:          0
cpu0_L1I WRITE        ACCESS:          0 HIT:          0 MISS:          0
cpu0_L1I TRANSLATION  ACCESS:          0 HIT:          0 MISS:          0
cpu0_L1I PREFETCH REQUESTED:          0 ISSUED:          0 USEFUL:          0 USELESS:          0
cpu0_L1I AVERAGE MISS LATENCY: 24.73 cycles
cpu0_L2C TOTAL        ACCESS:    6411635 HIT:    3191181 MISS:    3220454
cpu0_L2C LOAD         ACCESS:    3224033 HIT:    1083225 MISS:    2140808
cpu0_L2C RFO          ACCESS:     465824 HIT:     142260 MISS:     323564
cpu0_L2C PREFETCH     ACCESS:          0 HIT:          0 MISS:          0
cpu0_L2C WRITE        ACCESS:    1778340 HIT:    1775512 MISS:       2828
cpu0_L2C TRANSLATION  ACCESS:     943438 HIT:     190184 MISS:     753254
cpu0_L2C PREFETCH REQUESTED:          0 ISSUED:          0 USEFUL:          0 USELESS:          0
cpu0_L2C AVERAGE MISS LATENCY: 270.3 cycles
cpu0_L2C TOTAL        ACCESS:          0 HIT:          0 MISS:          0
cpu0_L2C LOAD         ACCESS:          0 HIT:          0 MISS:          0
cpu0_L2C RFO          ACCESS:          0 HIT:          0 MISS:          0
cpu0_L2C PREFETCH     ACCESS:          0 HIT:          0 MISS:          0
cpu0_L2C WRITE        ACCESS:          0 HIT:          0 MISS:          0
cpu0_L2C TRANSLATION  ACCESS:          0 HIT:          0 MISS:          0
cpu0_L2C PREFETCH REQUESTED:          0 ISSUED:          0 USEFUL:          0 USELESS:          0
cpu0_L2C AVERAGE MISS LATENCY: 270.3 cycles
cpu0_L2C TOTAL        ACCESS:          0 HIT:          0 MISS:          0
cpu0_L2C LOAD         ACCESS:          0 HIT:          0 MISS:          0
cpu0_L2C RFO          ACCESS:          0 HIT:          0 MISS:          0
cpu0_L2C PREFETCH     ACCESS:          0 HIT:          0 MISS:          0
cpu0_L2C WRITE        ACCESS:          0 HIT:          0 MISS:          0
cpu0_L2C TRANSLATION  ACCESS:          0 HIT:          0 MISS:          0
cpu0_L2C PREFETCH REQUESTED:          0 ISSUED:          0 USEFUL:          0 USELESS:          0
cpu0_L2C AVERAGE MISS LATENCY: 270.3 cycles
cpu0_L2C TOTAL        ACCESS:          0 HIT:          0 MISS:          0
cpu0_L2C LOAD         ACCESS:          0 HIT:          0 MISS:          0
cpu0_L2C RFO          ACCESS:          0 HIT:          0 MISS:          0
cpu0_L2C PREFETCH     ACCESS:          0 HIT:          0 MISS:          0
cpu0_L2C WRITE        ACCESS:          0 HIT:          0 MISS:          0
cpu0_L2C TRANSLATION  ACCESS:          0 HIT:          0 MISS:          0
cpu0_L2C PREFETCH REQUESTED:          0 ISSUED:          0 USEFUL:          0 USELESS:          0
cpu0_L2C AVERAGE MISS LATENCY: 270.3 cycles
cpu0_STLB TOTAL        ACCESS:    3824302 HIT:    3010888 MISS:     813414
cpu0_STLB LOAD         ACCESS:    3824302 HIT:    3010888 MISS:     813414
cpu0_STLB RFO          ACCESS:          0 HIT:          0 MISS:          0
cpu0_STLB PREFETCH     ACCESS:          0 HIT:          0 MISS:          0
cpu0_STLB WRITE        ACCESS:          0 HIT:          0 MISS:          0
cpu0_STLB TRANSLATION  ACCESS:          0 HIT:          0 MISS:          0
cpu0_STLB PREFETCH REQUESTED:          0 ISSUED:          0 USEFUL:          0 USELESS:          0
cpu0_STLB AVERAGE MISS LATENCY: 312 cycles
cpu0_STLB TOTAL        ACCESS:          0 HIT:          0 MISS:          0
cpu0_STLB LOAD         ACCESS:          0 HIT:          0 MISS:          0
cpu0_STLB RFO          ACCESS:          0 HIT:          0 MISS:          0
cpu0_STLB PREFETCH     ACCESS:          0 HIT:          0 MISS:          0
cpu0_STLB WRITE        ACCESS:          0 HIT:          0 MISS:          0
cpu0_STLB TRANSLATION  ACCESS:          0 HIT:          0 MISS:          0
cpu0_STLB PREFETCH REQUESTED:          0 ISSUED:          0 USEFUL:          0 USELESS:          0
cpu0_STLB AVERAGE MISS LATENCY: 312 cycles
cpu0_STLB TOTAL        ACCESS:          0 HIT:          0 MISS:          0
cpu0_STLB LOAD         ACCESS:          0 HIT:          0 MISS:          0
cpu0_STLB RFO          ACCESS:          0 HIT:          0 MISS:          0
cpu0_STLB PREFETCH     ACCESS:          0 HIT:          0 MISS:          0
cpu0_STLB WRITE        ACCESS:          0 HIT:          0 MISS:          0
cpu0_STLB TRANSLATION  ACCESS:          0 HIT:          0 MISS:          0
cpu0_STLB PREFETCH REQUESTED:          0 ISSUED:          0 USEFUL:          0 USELESS:          0
cpu0_STLB AVERAGE MISS LATENCY: 312 cycles
cpu0_STLB TOTAL        ACCESS:          0 HIT:          0 MISS:          0
cpu0_STLB LOAD         ACCESS:          0 HIT:          0 MISS:          0
cpu0_STLB RFO          ACCESS:          0 HIT:          0 MISS:          0
cpu0_STLB PREFETCH     ACCESS:          0 HIT:          0 MISS:          0
cpu0_STLB WRITE        ACCESS:          0 HIT:          0 MISS:          0
cpu0_STLB TRANSLATION  ACCESS:          0 HIT:          0 MISS:          0
cpu0_STLB PREFETCH REQUESTED:          0 ISSUED:          0 USEFUL:          0 USELESS:          0
cpu0_STLB AVERAGE MISS LATENCY: 312 cycles
cpu1_DTLB TOTAL        ACCESS:          0 HIT:          0 MISS:          0
cpu1_DTLB LOAD         ACCESS:          0 HIT:          0 MISS:          0
cpu1_DTLB RFO          ACCESS:          0 HIT:          0 MISS:          0
cpu1_DTLB PREFETCH     ACCESS:          0 HIT:          0 MISS:          0
cpu1_DTLB WRITE        ACCESS:          0 HIT:          0 MISS:          0
cpu1_DTLB TRANSLATION  ACCESS:          0 HIT:          0 MISS:          0
cpu1_DTLB PREFETCH REQUESTED:          0 ISSUED:          0 USEFUL:          0 USELESS:          0
cpu1_DTLB AVERAGE MISS LATENCY: 6.863 cycles
cpu1_DTLB TOTAL        ACCESS:  116828077 HIT:   68073455 MISS:   48754622
cpu1_DTLB LOAD         ACCESS:  116828077 HIT:   68073455 MISS:   48754622
cpu1_DTLB RFO          ACCESS:          0 HIT:          0 MISS:          0
cpu1_DTLB PREFETCH     ACCESS:          0 HIT:          0 MISS:          0
cpu1_DTLB WRITE        ACCESS:          0 HIT:          0 MISS:          0
cpu1_DTLB TRANSLATION  ACCESS:          0 HIT:          0 MISS:          0
cpu1_DTLB PREFETCH REQUESTED:          0 ISSUED:          0 USEFUL:          0 USELESS:          0
cpu1_DTLB AVERAGE MISS LATENCY: 6.863 cycles
cpu1_DTLB TOTAL        ACCESS:          0 HIT:          0 MISS:          0
cpu1_DTLB LOAD         ACCESS:          0 HIT:          0 MISS:          0
cpu1_DTLB RFO          ACCESS:          0 HIT:          0 MISS:          0
cpu1_DTLB PREFETCH     ACCESS:          0 HIT:          0 MISS:          0
cpu1_DTLB WRITE        ACCESS:          0 HIT:          0 MISS:          0
cpu1_DTLB TRANSLATION  ACCESS:          0 HIT:          0 MISS:          0
cpu1_DTLB PREFETCH REQUESTED:          0 ISSUED:          0 USEFUL:          0 USELESS:          0
cpu1_DTLB AVERAGE MISS LATENCY: 6.863 cycles
cpu1_DTLB TOTAL        ACCESS:          0 HIT:          0 MISS:          0
cpu1_DTLB LOAD         ACCESS:          0 HIT:          0 MISS:          0
cpu1_DTLB RFO          ACCESS:          0 HIT:          0 MISS:          0
cpu1_DTLB PREFETCH     ACCESS:          0 HIT:          0 MISS:          0
cpu1_DTLB WRITE        ACCESS:          0 HIT:          0 MISS:          0
cpu1_DTLB TRANSLATION  ACCESS:          0 HIT:          0 MISS:          0
cpu1_DTLB PREFETCH REQUESTED:          0 ISSUED:          0 USEFUL:          0 USELESS:          0
cpu1_DTLB AVERAGE MISS LATENCY: 6.863 cycles
cpu1_ITLB TOTAL        ACCESS:          0 HIT:          0 MISS:          0
cpu1_ITLB LOAD         ACCESS:          0 HIT:          0 MISS:          0
cpu1_ITLB RFO          ACCESS:          0 HIT:          0 MISS:          0
cpu1_ITLB PREFETCH     ACCESS:          0 HIT:          0 MISS:          0
cpu1_ITLB WRITE        ACCESS:          0 HIT:          0 MISS:          0
cpu1_ITLB TRANSLATION  ACCESS:          0 HIT:          0 MISS:          0
cpu1_ITLB PREFETCH REQUESTED:          0 ISSUED:          0 USEFUL:          0 USELESS:          0
cpu1_ITLB AVERAGE MISS LATENCY: -nan cycles
cpu1_ITLB TOTAL        ACCESS:   72078221 HIT:   72078221 MISS:          0
cpu1_ITLB LOAD         ACCESS:   72078221 HIT:   72078221 MISS:          0
cpu1_ITLB RFO          ACCESS:          0 HIT:          0 MISS:          0
cpu1_ITLB PREFETCH     ACCESS:          0 HIT:          0 MISS:          0
cpu1_ITLB WRITE        ACCESS:          0 HIT:          0 MISS:          0
cpu1_ITLB TRANSLATION  ACCESS:          0 HIT:          0 MISS:          0
cpu1_ITLB PREFETCH REQUESTED:          0 ISSUED:          0 USEFUL:          0 USELESS:          0
cpu1_ITLB AVERAGE MISS LATENCY: -nan cycles
cpu1_ITLB TOTAL        ACCESS:          0 HIT:          0 MISS:          0
cpu1_ITLB LOAD         ACCESS:          0 HIT:          0 MISS:          0
cpu1_ITLB RFO          ACCESS:          0 HIT:          0 MISS:          0
cpu1_ITLB PREFETCH     ACCESS:          0 HIT:          0 MISS:          0
cpu1_ITLB WRITE        ACCESS:          0 HIT:          0 MISS:          0
cpu1_ITLB TRANSLATION  ACCESS:          0 HIT:          0 MISS:          0
cpu1_ITLB PREFETCH REQUESTED:          0 ISSUED:          0 USEFUL:          0 USELESS:          0
cpu1_ITLB AVERAGE MISS LATENCY: -nan cycles
cpu1_ITLB TOTAL        ACCESS:          0 HIT:          0 MISS:          0
cpu1_ITLB LOAD         ACCESS:          0 HIT:          0 MISS:          0
cpu1_ITLB RFO          ACCESS:          0 HIT:          0 MISS:          0
cpu1_ITLB PREFETCH     ACCESS:          0 HIT:          0 MISS:          0
cpu1_ITLB WRITE        ACCESS:          0 HIT:          0 MISS:          0
cpu1_ITLB TRANSLATION  ACCESS:          0 HIT:          0 MISS:          0
cpu1_ITLB PREFETCH REQUESTED:          0 ISSUED:          0 USEFUL:          0 USELESS:          0
cpu1_ITLB AVERAGE MISS LATENCY: -nan cycles
cpu1_L1D TOTAL        ACCESS:          0 HIT:          0 MISS:          0
cpu1_L1D LOAD         ACCESS:          0 HIT:          0 MISS:          0
cpu1_L1D RFO          ACCESS:          0 HIT:          0 MISS:          0
cpu1_L1D PREFETCH     ACCESS:          0 HIT:          0 MISS:          0
cpu1_L1D WRITE        ACCESS:          0 HIT:          0 MISS:          0
cpu1_L1D TRANSLATION  ACCESS:          0 HIT:          0 MISS:          0
cpu1_L1D PREFETCH REQUESTED:          0 ISSUED:          0 USEFUL:          0 USELESS:          0
cpu1_L1D AVERAGE MISS LATENCY: 69.23 cycles
cpu1_L1D TOTAL        ACCESS:  144543900 HIT:   80318399 MISS:   64225501
cpu1_L1D LOAD         ACCESS:   81434256 HIT:   20616337 MISS:   60817919
cpu1_L1D RFO          ACCESS:          0 HIT:          0 MISS:          0
cpu1_L1D PREFETCH     ACCESS:          0 HIT:          0 MISS:          0
cpu1_L1D WRITE        ACCESS:   63005312 HIT:   59701211 MISS:    3304101
cpu1_L1D TRANSLATION  ACCESS:     104332 HIT:        851 MISS:     103481
cpu1_L1D PREFETCH REQUESTED:          0 ISSUED:          0 USEFUL:          0 USELESS:          0
cpu1_L1D AVERAGE MISS LATENCY: 69.23 cycles
cpu1_L1D TOTAL        ACCESS:          0 HIT:          0 MISS:          0
cpu1_L1D LOAD         ACCESS:          0 HIT:          0 MISS:          0
cpu1_L1D RFO          ACCESS:          0 HIT:          0 MISS:          0
cpu1_L1D PREFETCH     ACCESS:          0 HIT:          0 MISS:          0
cpu1_L1D WRITE        ACCESS:          0 HIT:          0 MISS:          0
cpu1_L1D TRANSLATION  ACCESS:          0 HIT:          0 MISS:          0
cpu1_L1D PREFETCH REQUESTED:          0 ISSUED:          0 USEFUL:          0 USELESS:          0
cpu1_L1D AVERAGE MISS LATENCY: 69.23 cycles
cpu1_L1D TOTAL        ACCESS:          0 HIT:          0 MISS:          0
cpu1_L1D LOAD         ACCESS:          0 HIT:          0 MISS:          0
cpu1_L1D RFO          ACCESS:          0 HIT:          0 MISS:          0
cpu1_L1D PREFETCH     ACCESS:          0 HIT:          0 MISS:          0
cpu1_L1D WRITE        ACCESS:          0 HIT:          0 MISS:          0
cpu1_L1D TRANSLATION  ACCESS:          0 HIT:          0 MISS:          0
cpu1_L1D PREFETCH REQUESTED:          0 ISSUED:          0 USEFUL:          0 USELESS:          0
cpu1_L1D AVERAGE MISS LATENCY: 69.23 cycles
cpu1_L1I TOTAL        ACCESS:          0 HIT:          0 MISS:          0
cpu1_L1I LOAD         ACCESS:          0 HIT:          0 MISS:          0
cpu1_L1I RFO          ACCESS:          0 HIT:          0 MISS:          0
cpu1_L1I PREFETCH     ACCESS:          0 HIT:          0 MISS:          0
cpu1_L1I WRITE        ACCESS:          0 HIT:          0 MISS:          0
cpu1_L1I TRANSLATION  ACCESS:          0 HIT:          0 MISS:          0
cpu1_L1I PREFETCH REQUESTED:          0 ISSUED:          0 USEFUL:          0 USELESS:          0
cpu1_L1I AVERAGE MISS LATENCY: -nan cycles
cpu1_L1I TOTAL        ACCESS:   94641511 HIT:   94641511 MISS:          0
cpu1_L1I LOAD         ACCESS:   94641511 HIT:   94641511 MISS:          0
cpu1_L1I RFO          ACCESS:          0 HIT:          0 MISS:          0
cpu1_L1I PREFETCH     ACCESS:          0 HIT:          0 MISS:          0
cpu1_L1I WRITE        ACCESS:          0 HIT:          0 MISS:          0
cpu1_L1I TRANSLATION  ACCESS:          0 HIT:          0 MISS:          0
cpu1_L1I PREFETCH REQUESTED:          0 ISSUED:          0 USEFUL:          0 USELESS:          0
cpu1_L1I AVERAGE MISS LATENCY: -nan cycles
cpu1_L1I TOTAL        ACCESS:          0 HIT:          0 MISS:          0
cpu1_L1I LOAD         ACCESS:          0 HIT:          0 MISS:          0
cpu1_L1I RFO          ACCESS:          0 HIT:          0 MISS:          0
cpu1_L1I PREFETCH     ACCESS:          0 HIT:          0 MISS:          0
cpu1_L1I WRITE        ACCESS:          0 HIT:          0 MISS:          0
cpu1_L1I TRANSLATION  ACCESS:          0 HIT:          0 MISS:          0
cpu1_L1I PREFETCH REQUESTED:          0 ISSUED:          0 USEFUL:          0 USELESS:          0
cpu1_L1I AVERAGE MISS LATENCY: -nan cycles
cpu1_L1I TOTAL        ACCESS:          0 HIT:          0 MISS:          0
cpu1_L1I LOAD         ACCESS:          0 HIT:          0 MISS:          0
cpu1_L1I RFO          ACCESS:          0 HIT:          0 MISS:          0
cpu1_L1I PREFETCH     ACCESS:          0 HIT:          0 MISS:          0
cpu1_L1I WRITE        ACCESS:          0 HIT:          0 MISS:          0
cpu1_L1I TRANSLATION  ACCESS:          0 HIT:          0 MISS:          0
cpu1_L1I PREFETCH REQUESTED:          0 ISSUED:          0 USEFUL:          0 USELESS:          0
cpu1_L1I AVERAGE MISS LATENCY: -nan cycles
cpu1_L2C TOTAL        ACCESS:          0 HIT:          0 MISS:          0
cpu1_L2C LOAD         ACCESS:          0 HIT:          0 MISS:          0
cpu1_L2C RFO          ACCESS:          0 HIT:          0 MISS:          0
cpu1_L2C PREFETCH     ACCESS:          0 HIT:          0 MISS:          0
cpu1_L2C WRITE        ACCESS:          0 HIT:          0 MISS:          0
cpu1_L2C TRANSLATION  ACCESS:          0 HIT:          0 MISS:          0
cpu1_L2C PREFETCH REQUESTED:          0 ISSUED:          0 USEFUL:          0 USELESS:          0
cpu1_L2C AVERAGE MISS LATENCY: 650.2 cycles
cpu1_L2C TOTAL        ACCESS:   67432503 HIT:   61589904 MISS:    5842599
cpu1_L2C LOAD         ACCESS:   60033115 HIT:   54285020 MISS:    5748095
cpu1_L2C RFO          ACCESS:    2486486 HIT:    2475375 MISS:      11111
cpu1_L2C PREFETCH     ACCESS:          0 HIT:          0 MISS:          0
cpu1_L2C WRITE        ACCESS:    4809546 HIT:    4809546 MISS:          0
cpu1_L2C TRANSLATION  ACCESS:     103356 HIT:      19963 MISS:      83393
cpu1_L2C PREFETCH REQUESTED:          0 ISSUED:          0 USEFUL:          0 USELESS:          0
cpu1_L2C AVERAGE MISS LATENCY: 650.2 cycles
cpu1_L2C TOTAL        ACCESS:          0 HIT:          0 MISS:          0
cpu1_L2C LOAD         ACCESS:          0 HIT:          0 MISS:          0
cpu1_L2C RFO          ACCESS:          0 HIT:          0 MISS:          0
cpu1_L2C PREFETCH     ACCESS:          0 HIT:          0 MISS:          0
cpu1_L2C WRITE        ACCESS:          0 HIT:          0 MISS:          0
cpu1_L2C TRANSLATION  ACCESS:          0 HIT:          0 MISS:          0
cpu1_L2C PREFETCH REQUESTED:          0 ISSUED:          0 USEFUL:          0 USELESS:          0
cpu1_L2C AVERAGE MISS LATENCY: 650.2 cycles
cpu1_L2C TOTAL        ACCESS:          0 HIT:          0 MISS:          0
cpu1_L2C LOAD         ACCESS:          0 HIT:          0 MISS:          0
cpu1_L2C RFO          ACCESS:          0 HIT:          0 MISS:          0
cpu1_L2C PREFETCH     ACCESS:          0 HIT:          0 MISS:          0
cpu1_L2C WRITE        ACCESS:          0 HIT:          0 MISS:          0
cpu1_L2C TRANSLATION  ACCESS:          0 HIT:          0 MISS:          0
cpu1_L2C PREFETCH REQUESTED:          0 ISSUED:          0 USEFUL:          0 USELESS:          0
cpu1_L2C AVERAGE MISS LATENCY: 650.2 cycles
cpu1_STLB TOTAL        ACCESS:          0 HIT:          0 MISS:          0
cpu1_STLB LOAD         ACCESS:          0 HIT:          0 MISS:          0
cpu1_STLB RFO          ACCESS:          0 HIT:          0 MISS:          0
cpu1_STLB PREFETCH     ACCESS:          0 HIT:          0 MISS:          0
cpu1_STLB WRITE        ACCESS:          0 HIT:          0 MISS:          0
cpu1_STLB TRANSLATION  ACCESS:          0 HIT:          0 MISS:          0
cpu1_STLB PREFETCH REQUESTED:          0 ISSUED:          0 USEFUL:          0 USELESS:          0
cpu1_STLB AVERAGE MISS LATENCY: 612.3 cycles
cpu1_STLB TOTAL        ACCESS:   41604881 HIT:   41537881 MISS:      67000
cpu1_STLB LOAD         ACCESS:   41604881 HIT:   41537881 MISS:      67000
cpu1_STLB RFO          ACCESS:          0 HIT:          0 MISS:          0
cpu1_STLB PREFETCH     ACCESS:          0 HIT:          0 MISS:          0
cpu1_STLB WRITE        ACCESS:          0 HIT:          0 MISS:          0
cpu1_STLB TRANSLATION  ACCESS:          0 HIT:          0 MISS:          0
cpu1_STLB PREFETCH REQUESTED:          0 ISSUED:          0 USEFUL:          0 USELESS:          0
cpu1_STLB AVERAGE MISS LATENCY: 612.3 cycles
cpu1_STLB TOTAL        ACCESS:          0 HIT:          0 MISS:          0
cpu1_STLB LOAD         ACCESS:          0 HIT:          0 MISS:          0
cpu1_STLB RFO          ACCESS:          0 HIT:          0 MISS:          0
cpu1_STLB PREFETCH     ACCESS:          0 HIT:          0 MISS:          0
cpu1_STLB WRITE        ACCESS:          0 HIT:          0 MISS:          0
cpu1_STLB TRANSLATION  ACCESS:          0 HIT:          0 MISS:          0
cpu1_STLB PREFETCH REQUESTED:          0 ISSUED:          0 USEFUL:          0 USELESS:          0
cpu1_STLB AVERAGE MISS LATENCY: 612.3 cycles
cpu1_STLB TOTAL        ACCESS:          0 HIT:          0 MISS:          0
cpu1_STLB LOAD         ACCESS:          0 HIT:          0 MISS:          0
cpu1_STLB RFO          ACCESS:          0 HIT:          0 MISS:          0
cpu1_STLB PREFETCH     ACCESS:          0 HIT:          0 MISS:          0
cpu1_STLB WRITE        ACCESS:          0 HIT:          0 MISS:          0
cpu1_STLB TRANSLATION  ACCESS:          0 HIT:          0 MISS:          0
cpu1_STLB PREFETCH REQUESTED:          0 ISSUED:          0 USEFUL:          0 USELESS:          0
cpu1_STLB AVERAGE MISS LATENCY: 612.3 cycles
cpu2_DTLB TOTAL        ACCESS:          0 HIT:          0 MISS:          0
cpu2_DTLB LOAD         ACCESS:          0 HIT:          0 MISS:          0
cpu2_DTLB RFO          ACCESS:          0 HIT:          0 MISS:          0
cpu2_DTLB PREFETCH     ACCESS:          0 HIT:          0 MISS:          0
cpu2_DTLB WRITE        ACCESS:          0 HIT:          0 MISS:          0
cpu2_DTLB TRANSLATION  ACCESS:          0 HIT:          0 MISS:          0
cpu2_DTLB PREFETCH REQUESTED:          0 ISSUED:          0 USEFUL:          0 USELESS:          0
cpu2_DTLB AVERAGE MISS LATENCY: 19.98 cycles
cpu2_DTLB TOTAL        ACCESS:          0 HIT:          0 MISS:          0
cpu2_DTLB LOAD         ACCESS:          0 HIT:          0 MISS:          0
cpu2_DTLB RFO          ACCESS:          0 HIT:          0 MISS:          0
cpu2_DTLB PREFETCH     ACCESS:          0 HIT:          0 MISS:          0
cpu2_DTLB WRITE        ACCESS:          0 HIT:          0 MISS:          0
cpu2_DTLB TRANSLATION  ACCESS:          0 HIT:          0 MISS:          0
cpu2_DTLB PREFETCH REQUESTED:          0 ISSUED:          0 USEFUL:          0 USELESS:          0
cpu2_DTLB AVERAGE MISS LATENCY: 19.98 cycles
cpu2_DTLB TOTAL        ACCESS:  117884217 HIT:  117717278 MISS:     166939
cpu2_DTLB LOAD         ACCESS:  117884217 HIT:  117717278 MISS:     166939
cpu2_DTLB RFO          ACCESS:          0 HIT:          0 MISS:          0
cpu2_DTLB PREFETCH     ACCESS:          0 HIT:          0 MISS:          0
cpu2_DTLB WRITE        ACCESS:          0 HIT:          0 MISS:          0
cpu2_DTLB TRANSLATION  ACCESS:          0 HIT:          0 MISS:          0
cpu2_DTLB PREFETCH REQUESTED:          0 ISSUED:          0 USEFUL:          0 USELESS:          0
cpu2_DTLB AVERAGE MISS LATENCY: 19.98 cycles
cpu2_DTLB TOTAL        ACCESS:          0 HIT:          0 MISS:          0
cpu2_DTLB LOAD         ACCESS:          0 HIT:          0 MISS:          0
cpu2_DTLB RFO          ACCESS:          0 HIT:          0 MISS:          0
cpu2_DTLB PREFETCH     ACCESS:          0 HIT:          0 MISS:          0
cpu2_DTLB WRITE        ACCESS:          0 HIT:          0 MISS:          0
cpu2_DTLB TRANSLATION  ACCESS:          0 HIT:          0 MISS:          0
cpu2_DTLB PREFETCH REQUESTED:          0 ISSUED:          0 USEFUL:          0 USELESS:          0
cpu2_DTLB AVERAGE MISS LATENCY: 19.98 cycles
cpu2_ITLB TOTAL        ACCESS:          0 HIT:          0 MISS:          0
cpu2_ITLB LOAD         ACCESS:          0 HIT:          0 MISS:          0
cpu2_ITLB RFO          ACCESS:          0 HIT:          0 MISS:          0
cpu2_ITLB PREFETCH     ACCESS:          0 HIT:          0 MISS:          0
cpu2_ITLB WRITE        ACCESS:          0 HIT:          0 MISS:          0
cpu2_ITLB TRANSLATION  ACCESS:          0 HIT:          0 MISS:          0
cpu2_ITLB PREFETCH REQUESTED:          0 ISSUED:          0 USEFUL:          0 USELESS:          0
cpu2_ITLB AVERAGE MISS LATENCY: 486.6 cycles
cpu2_ITLB TOTAL        ACCESS:          0 HIT:          0 MISS:          0
cpu2_ITLB LOAD         ACCESS:          0 HIT:          0 MISS:          0
cpu2_ITLB RFO          ACCESS:          0 HIT:          0 MISS:          0
cpu2_ITLB PREFETCH     ACCESS:          0 HIT:          0 MISS:          0
cpu2_ITLB WRITE        ACCESS:          0 HIT:          0 MISS:          0
cpu2_ITLB TRANSLATION  ACCESS:          0 HIT:          0 MISS:          0
cpu2_ITLB PREFETCH REQUESTED:          0 ISSUED:          0 USEFUL:          0 USELESS:          0
cpu2_ITLB AVERAGE MISS LATENCY: 486.6 cycles
cpu2_ITLB TOTAL        ACCESS:    3917819 HIT:    3917810 MISS:          9
cpu2_ITLB LOAD         ACCESS:    3917819 HIT:    3917810 MISS:          9
cpu2_ITLB RFO          ACCESS:          0 HIT:          0 MISS:          0
cpu2_ITLB PREFETCH     ACCESS:          0 HIT:          0 MISS:          0
cpu2_ITLB WRITE        ACCESS:          0 HIT:          0 MISS:          0
cpu2_ITLB TRANSLATION  ACCESS:          0 HIT:          0 MISS:          0
cpu2_ITLB PREFETCH REQUESTED:          0 ISSUED:          0 USEFUL:          0 USELESS:          0
cpu2_ITLB AVERAGE MISS LATENCY: 486.6 cycles
cpu2_ITLB TOTAL        ACCESS:          0 HIT:          0 MISS:          0
cpu2_ITLB LOAD         ACCESS:          0 HIT:          0 MISS:          0
cpu2_ITLB RFO          ACCESS:          0 HIT:          0 MISS:          0
cpu2_ITLB PREFETCH     ACCESS:          0 HIT:          0 MISS:          0
cpu2_ITLB WRITE        ACCESS:          0 HIT:          0 MISS:          0
cpu2_ITLB TRANSLATION  ACCESS:          0 HIT:          0 MISS:          0
cpu2_ITLB PREFETCH REQUESTED:          0 ISSUED:          0 USEFUL:          0 USELESS:          0
cpu2_ITLB AVERAGE MISS LATENCY: 486.6 cycles
cpu2_L1D TOTAL        ACCESS:          0 HIT:          0 MISS:          0
cpu2_L1D LOAD         ACCESS:          0 HIT:          0 MISS:          0
cpu2_L1D RFO          ACCESS:          0 HIT:          0 MISS:          0
cpu2_L1D PREFETCH     ACCESS:          0 HIT:          0 MISS:          0
cpu2_L1D WRITE        ACCESS:          0 HIT:          0 MISS:          0
cpu2_L1D TRANSLATION  ACCESS:          0 HIT:          0 MISS:          0
cpu2_L1D PREFETCH REQUESTED:          0 ISSUED:          0 USEFUL:          0 USELESS:          0
cpu2_L1D AVERAGE MISS LATENCY: 141.4 cycles
cpu2_L1D TOTAL        ACCESS:          0 HIT:          0 MISS:          0
cpu2_L1D LOAD         ACCESS:          0 HIT:          0 MISS:          0
cpu2_L1D RFO          ACCESS:          0 HIT:          0 MISS:          0
cpu2_L1D PREFETCH     ACCESS:          0 HIT:          0 MISS:          0
cpu2_L1D WRITE        ACCESS:          0 HIT:          0 MISS:          0
cpu2_L1D TRANSLATION  ACCESS:          0 HIT:          0 MISS:          0
cpu2_L1D PREFETCH REQUESTED:          0 ISSUED:          0 USEFUL:          0 USELESS:          0
cpu2_L1D AVERAGE MISS LATENCY: 141.4 cycles
cpu2_L1D TOTAL        ACCESS:  156145064 HIT:  150833633 MISS:    5311431
cpu2_L1D LOAD         ACCESS:   84046179 HIT:   82456943 MISS:    1589236
cpu2_L1D RFO          ACCESS:          0 HIT:          0 MISS:          0
cpu2_L1D PREFETCH     ACCESS:          0 HIT:          0 MISS:          0
cpu2_L1D WRITE        ACCESS:   72067705 HIT:   68351834 MISS:    3715871
cpu2_L1D TRANSLATION  ACCESS:      31180 HIT:      24856 MISS:       6324
cpu2_L1D PREFETCH REQUESTED:          0 ISSUED:          0 USEFUL:          0 USELESS:          0
cpu2_L1D AVERAGE MISS LATENCY: 141.4 cycles
cpu2_L1D TOTAL        ACCESS:          0 HIT:          0 MISS:          0
cpu2_L1D LOAD         ACCESS:          0 HIT:          0 MISS:          0
cpu2_L1D RFO          ACCESS:          0 HIT:          0 MISS:          0
cpu2_L1D PREFETCH     ACCESS:          0 HIT:          0 MISS:          0
cpu2_L1D WRITE        ACCESS:          0 HIT:          0 MISS:          0
cpu2_L1D TRANSLATION  ACCESS:          0 HIT:          0 MISS:          0
cpu2_L1D PREFETCH REQUESTED:          0 ISSUED:          0 USEFUL:          0 USELESS:          0
cpu2_L1D AVERAGE MISS LATENCY: 141.4 cycles
cpu2_L1I TOTAL        ACCESS:          0 HIT:          0 MISS:          0
cpu2_L1I LOAD         ACCESS:          0 HIT:          0 MISS:          0
cpu2_L1I RFO          ACCESS:          0 HIT:          0 MISS:          0
cpu2_L1I PREFETCH     ACCESS:          0 HIT:          0 MISS:          0
cpu2_L1I WRITE        ACCESS:          0 HIT:          0 MISS:          0
cpu2_L1I TRANSLATION  ACCESS:          0 HIT:          0 MISS:          0
cpu2_L1I PREFETCH REQUESTED:          0 ISSUED:          0 USEFUL:          0 USELESS:          0
cpu2_L1I AVERAGE MISS LATENCY: 304.6 cycles
cpu2_L1I TOTAL        ACCESS:          0 HIT:          0 MISS:          0
cpu2_L1I LOAD         ACCESS:          0 HIT:          0 MISS:          0
cpu2_L1I RFO          ACCESS:          0 HIT:          0 MISS:          0
cpu2_L1I PREFETCH     ACCESS:          0 HIT:          0 MISS:          0
cpu2_L1I WRITE        ACCESS:          0 HIT:          0 MISS:          0
cpu2_L1I TRANSLATION  ACCESS:          0 HIT:          0 MISS:          0
cpu2_L1I PREFETCH REQUESTED:          0 ISSUED:          0 USEFUL:          0 USELESS:          0
cpu2_L1I AVERAGE MISS LATENCY: 304.6 cycles
cpu2_L1I TOTAL        ACCESS:    4637054 HIT:    4636974 MISS:         80
cpu2_L1I LOAD         ACCESS:    4637054 HIT:    4636974 MISS:         80
cpu2_L1I RFO          ACCESS:          0 HIT:          0 MISS:          0
cpu2_L1I PREFETCH     ACCESS:          0 HIT:          0 MISS:          0
cpu2_L1I WRITE        ACCESS:          0 HIT:          0 MISS:          0
cpu2_L1I TRANSLATION  ACCESS:          0 HIT:          0 MISS:          0
cpu2_L1I PREFETCH REQUESTED:          0 ISSUED:          0 USEFUL:          0 USELESS:          0
cpu2_L1I AVERAGE MISS LATENCY: 304.6 cycles
cpu2_L1I TOTAL        ACCESS:          0 HIT:          0 MISS:          0
cpu2_L1I LOAD         ACCESS:          0 HIT:          0 MISS:          0
cpu2_L1I RFO          ACCESS:          0 HIT:          0 MISS:          0
cpu2_L1I PREFETCH     ACCESS:          0 HIT:          0 MISS:          0
cpu2_L1I WRITE        ACCESS:          0 HIT:          0 MISS:          0
cpu2_L1I TRANSLATION  ACCESS:          0 HIT:          0 MISS:          0
cpu2_L1I PREFETCH REQUESTED:          0 ISSUED:          0 USEFUL:          0 USELESS:          0
cpu2_L1I AVERAGE MISS LATENCY: 304.6 cycles
cpu2_L2C TOTAL        ACCESS:          0 HIT:          0 MISS:          0
cpu2_L2C LOAD         ACCESS:          0 HIT:          0 MISS:          0
cpu2_L2C RFO          ACCESS:          0 HIT:          0 MISS:          0
cpu2_L2C PREFETCH     ACCESS:          0 HIT:          0 MISS:          0
cpu2_L2C WRITE        ACCESS:          0 HIT:          0 MISS:          0
cpu2_L2C TRANSLATION  ACCESS:          0 HIT:          0 MISS:          0
cpu2_L2C PREFETCH REQUESTED:          0 ISSUED:          0 USEFUL:          0 USELESS:          0
cpu2_L2C AVERAGE MISS LATENCY: 554.7 cycles
cpu2_L2C TOTAL        ACCESS:          0 HIT:          0 MISS:          0
cpu2_L2C LOAD         ACCESS:          0 HIT:          0 MISS:          0
cpu2_L2C RFO          ACCESS:          0 HIT:          0 MISS:          0
cpu2_L2C PREFETCH     ACCESS:          0 HIT:          0 MISS:          0
cpu2_L2C WRITE        ACCESS:          0 HIT:          0 MISS:          0
cpu2_L2C TRANSLATION  ACCESS:          0 HIT:          0 MISS:          0
cpu2_L2C PREFETCH REQUESTED:          0 ISSUED:          0 USEFUL:          0 USELESS:          0
cpu2_L2C AVERAGE MISS LATENCY: 554.7 cycles
cpu2_L2C TOTAL        ACCESS:    2173240 HIT:     620029 MISS:    1553211
cpu2_L2C LOAD         ACCESS:     928713 HIT:        254 MISS:     928459
cpu2_L2C RFO          ACCESS:     619058 HIT:       1724 MISS:     617334
cpu2_L2C PREFETCH     ACCESS:          0 HIT:          0 MISS:          0
cpu2_L2C WRITE        ACCESS:     619145 HIT:     617940 MISS:       1205
cpu2_L2C TRANSLATION  ACCESS:       6324 HIT:        111 MISS:       6213
cpu2_L2C PREFETCH REQUESTED:          0 ISSUED:          0 USEFUL:          0 USELESS:          0
cpu2_L2C AVERAGE MISS LATENCY: 554.7 cycles
cpu2_L2C TOTAL        ACCESS:          0 HIT:          0 MISS:          0
cpu2_L2C LOAD         ACCESS:          0 HIT:          0 MISS:          0
cpu2_L2C RFO          ACCESS:          0 HIT:          0 MISS:          0
cpu2_L2C PREFETCH     ACCESS:          0 HIT:          0 MISS:          0
cpu2_L2C WRITE        ACCESS:          0 HIT:          0 MISS:          0
cpu2_L2C TRANSLATION  ACCESS:          0 HIT:          0 MISS:          0
cpu2_L2C PREFETCH REQUESTED:          0 ISSUED:          0 USEFUL:          0 USELESS:          0
cpu2_L2C AVERAGE MISS LATENCY: 554.7 cycles
cpu2_STLB TOTAL        ACCESS:          0 HIT:          0 MISS:          0
cpu2_STLB LOAD         ACCESS:          0 HIT:          0 MISS:          0
cpu2_STLB RFO          ACCESS:          0 HIT:          0 MISS:          0
cpu2_STLB PREFETCH     ACCESS:          0 HIT:          0 MISS:          0
cpu2_STLB WRITE        ACCESS:          0 HIT:          0 MISS:          0
cpu2_STLB TRANSLATION  ACCESS:          0 HIT:          0 MISS:          0
cpu2_STLB PREFETCH REQUESTED:          0 ISSUED:          0 USEFUL:          0 USELESS:          0
cpu2_STLB AVERAGE MISS LATENCY: 188.8 cycles
cpu2_STLB TOTAL        ACCESS:          0 HIT:          0 MISS:          0
cpu2_STLB LOAD         ACCESS:          0 HIT:          0 MISS:          0
cpu2_STLB RFO          ACCESS:          0 HIT:          0 MISS:          0
cpu2_STLB PREFETCH     ACCESS:          0 HIT:          0 MISS:          0
cpu2_STLB WRITE        ACCESS:          0 HIT:          0 MISS:          0
cpu2_STLB TRANSLATION  ACCESS:          0 HIT:          0 MISS:          0
cpu2_STLB PREFETCH REQUESTED:          0 ISSUED:          0 USEFUL:          0 USELESS:          0
cpu2_STLB AVERAGE MISS LATENCY: 188.8 cycles
cpu2_STLB TOTAL        ACCESS:      33998 HIT:       2861 MISS:      31137
cpu2_STLB LOAD         ACCESS:      33998 HIT:       2861 MISS:      31137
cpu2_STLB RFO          ACCESS:          0 HIT:          0 MISS:          0
cpu2_STLB PREFETCH     ACCESS:          0 HIT:          0 MISS:          0
cpu2_STLB WRITE        ACCESS:          0 HIT:          0 MISS:          0
cpu2_STLB TRANSLATION  ACCESS:          0 HIT:          0 MISS:          0
cpu2_STLB PREFETCH REQUESTED:          0 ISSUED:          0 USEFUL:          0 USELESS:          0
cpu2_STLB AVERAGE MISS LATENCY: 188.8 cycles
cpu2_STLB TOTAL        ACCESS:          0 HIT:          0 MISS:          0
cpu2_STLB LOAD         ACCESS:          0 HIT:          0 MISS:          0
cpu2_STLB RFO          ACCESS:          0 HIT:          0 MISS:          0
cpu2_STLB PREFETCH     ACCESS:          0 HIT:          0 MISS:          0
cpu2_STLB WRITE        ACCESS:          0 HIT:          0 MISS:          0
cpu2_STLB TRANSLATION  ACCESS:          0 HIT:          0 MISS:          0
cpu2_STLB PREFETCH REQUESTED:          0 ISSUED:          0 USEFUL:          0 USELESS:          0
cpu2_STLB AVERAGE MISS LATENCY: 188.8 cycles
cpu3_DTLB TOTAL        ACCESS:          0 HIT:          0 MISS:          0
cpu3_DTLB LOAD         ACCESS:          0 HIT:          0 MISS:          0
cpu3_DTLB RFO          ACCESS:          0 HIT:          0 MISS:          0
cpu3_DTLB PREFETCH     ACCESS:          0 HIT:          0 MISS:          0
cpu3_DTLB WRITE        ACCESS:          0 HIT:          0 MISS:          0
cpu3_DTLB TRANSLATION  ACCESS:          0 HIT:          0 MISS:          0
cpu3_DTLB PREFETCH REQUESTED:          0 ISSUED:          0 USEFUL:          0 USELESS:          0
cpu3_DTLB AVERAGE MISS LATENCY: 8.784 cycles
cpu3_DTLB TOTAL        ACCESS:          0 HIT:          0 MISS:          0
cpu3_DTLB LOAD         ACCESS:          0 HIT:          0 MISS:          0
cpu3_DTLB RFO          ACCESS:          0 HIT:          0 MISS:          0
cpu3_DTLB PREFETCH     ACCESS:          0 HIT:          0 MISS:          0
cpu3_DTLB WRITE        ACCESS:          0 HIT:          0 MISS:          0
cpu3_DTLB TRANSLATION  ACCESS:          0 HIT:          0 MISS:          0
cpu3_DTLB PREFETCH REQUESTED:          0 ISSUED:          0 USEFUL:          0 USELESS:          0
cpu3_DTLB AVERAGE MISS LATENCY: 8.784 cycles
cpu3_DTLB TOTAL        ACCESS:          0 HIT:          0 MISS:          0
cpu3_DTLB LOAD         ACCESS:          0 HIT:          0 MISS:          0
cpu3_DTLB RFO          ACCESS:          0 HIT:          0 MISS:          0
cpu3_DTLB PREFETCH     ACCESS:          0 HIT:          0 MISS:          0
cpu3_DTLB WRITE        ACCESS:          0 HIT:          0 MISS:          0
cpu3_DTLB TRANSLATION  ACCESS:          0 HIT:          0 MISS:          0
cpu3_DTLB PREFETCH REQUESTED:          0 ISSUED:          0 USEFUL:          0 USELESS:          0
cpu3_DTLB AVERAGE MISS LATENCY: 8.784 cycles
cpu3_DTLB TOTAL        ACCESS:   41305835 HIT:   38709635 MISS:    2596200
cpu3_DTLB LOAD         ACCESS:   41305835 HIT:   38709635 MISS:    2596200
cpu3_DTLB RFO          ACCESS:          0 HIT:          0 MISS:          0
cpu3_DTLB PREFETCH     ACCESS:          0 HIT:          0 MISS:          0
cpu3_DTLB WRITE        ACCESS:          0 HIT:          0 MISS:          0
cpu3_DTLB TRANSLATION  ACCESS:          0 HIT:          0 MISS:          0
cpu3_DTLB PREFETCH REQUESTED:          0 ISSUED:          0 USEFUL:          0 USELESS:          0
cpu3_DTLB AVERAGE MISS LATENCY: 8.784 cycles
cpu3_ITLB TOTAL        ACCESS:          0 HIT:          0 MISS:          0
cpu3_ITLB LOAD         ACCESS:          0 HIT:          0 MISS:          0
cpu3_ITLB RFO          ACCESS:          0 HIT:          0 MISS:          0
cpu3_ITLB PREFETCH     ACCESS:          0 HIT:          0 MISS:          0
cpu3_ITLB WRITE        ACCESS:          0 HIT:          0 MISS:          0
cpu3_ITLB TRANSLATION  ACCESS:          0 HIT:          0 MISS:          0
cpu3_ITLB PREFETCH REQUESTED:          0 ISSUED:          0 USEFUL:          0 USELESS:          0
cpu3_ITLB AVERAGE MISS LATENCY: -nan cycles
cpu3_ITLB TOTAL        ACCESS:          0 HIT:          0 MISS:          0
cpu3_ITLB LOAD         ACCESS:          0 HIT:          0 MISS:          0
cpu3_ITLB RFO          ACCESS:          0 HIT:          0 MISS:          0
[...]
cpu2_L1I PREFETCH REQUESTED:          0 ISSUED:          0 USEFUL:          0 USELESS:          0
cpu2_L1I AVERAGE MISS LATENCY: 304.6 cycles
cpu2_L1I TOTAL        ACCESS:          0 HIT:          0 MISS:          0
cpu2_L1I LOAD         ACCESS:          0 HIT:          0 MISS:          0
cpu2_L1I RFO          ACCESS:          0 HIT:          0 MISS:          0
cpu2_L1I PREFETCH     ACCESS:          0 HIT:          0 MISS:          0
cpu2_L1I WRITE        ACCESS:          0 HIT:          0 MISS:          0
cpu2_L1I TRANSLATION  ACCESS:          0 HIT:          0 MISS:          0
cpu2_L1I PREFETCH REQUESTED:          0 ISSUED:          0 USEFUL:          0 USELESS:          0
cpu2_L1I AVERAGE MISS LATENCY: 304.6 cycles
cpu2_L2C TOTAL        ACCESS:          0 HIT:          0 MISS:          0
cpu2_L2C LOAD         ACCESS:          0 HIT:          0 MISS:          0
cpu2_L2C RFO          ACCESS:          0 HIT:          0 MISS:          0
cpu2_L2C PREFETCH     ACCESS:          0 HIT:          0 MISS:          0
cpu2_L2C WRITE        ACCESS:          0 HIT:          0 MISS:          0
cpu2_L2C TRANSLATION  ACCESS:          0 HIT:          0 MISS:          0
cpu2_L2C PREFETCH REQUESTED:          0 ISSUED:          0 USEFUL:          0 USELESS:          0
cpu2_L2C AVERAGE MISS LATENCY: 554.7 cycles
cpu2_L2C TOTAL        ACCESS:          0 HIT:          0 MISS:          0
cpu2_L2C LOAD         ACCESS:          0 HIT:          0 MISS:          0
cpu2_L2C RFO          ACCESS:          0 HIT:          0 MISS:          0
cpu2_L2C PREFETCH     ACCESS:          0 HIT:          0 MISS:          0
cpu2_L2C WRITE        ACCESS:          0 HIT:          0 MISS:          0
cpu2_L2C TRANSLATION  ACCESS:          0 HIT:          0 MISS:          0
cpu2_L2C PREFETCH REQUESTED:          0 ISSUED:          0 USEFUL:          0 USELESS:          0
cpu2_L2C AVERAGE MISS LATENCY: 554.7 cycles
cpu2_L2C TOTAL        ACCESS:      30295 HIT:       9262 MISS:      21033
cpu2_L2C LOAD         ACCESS:      12738 HIT:        117 MISS:      12621
cpu2_L2C RFO          ACCESS:       8752 HIT:        389 MISS:       8363
cpu2_L2C PREFETCH     ACCESS:          0 HIT:          0 MISS:          0
cpu2_L2C WRITE        ACCESS:       8756 HIT:       8756 MISS:          0
cpu2_L2C TRANSLATION  ACCESS:         49 HIT:          0 MISS:         49
cpu2_L2C PREFETCH REQUESTED:          0 ISSUED:          0 USEFUL:          0 USELESS:          0
cpu2_L2C AVERAGE MISS LATENCY: 554.7 cycles
cpu2_L2C TOTAL        ACCESS:          0 HIT:          0 MISS:          0
cpu2_L2C LOAD         ACCESS:          0 HIT:          0 MISS:          0
cpu2_L2C RFO          ACCESS:          0 HIT:          0 MISS:          0
cpu2_L2C PREFETCH     ACCESS:          0 HIT:          0 MISS:          0
cpu2_L2C WRITE        ACCESS:          0 HIT:          0 MISS:          0
cpu2_L2C TRANSLATION  ACCESS:          0 HIT:          0 MISS:          0
cpu2_L2C PREFETCH REQUESTED:          0 ISSUED:          0 USEFUL:          0 USELESS:          0
cpu2_L2C AVERAGE MISS LATENCY: 554.7 cycles
cpu2_STLB TOTAL        ACCESS:          0 HIT:          0 MISS:          0
cpu2_STLB LOAD         ACCESS:          0 HIT:          0 MISS:          0
cpu2_STLB RFO          ACCESS:          0 HIT:          0 MISS:          0
cpu2_STLB PREFETCH     ACCESS:          0 HIT:          0 MISS:          0
cpu2_STLB WRITE        ACCESS:          0 HIT:          0 MISS:          0
cpu2_STLB TRANSLATION  ACCESS:          0 HIT:          0 MISS:          0
cpu2_STLB PREFETCH REQUESTED:          0 ISSUED:          0 USEFUL:          0 USELESS:          0
cpu2_STLB AVERAGE MISS LATENCY: 188.8 cycles
cpu2_STLB TOTAL        ACCESS:          0 HIT:          0 MISS:          0
cpu2_STLB LOAD         ACCESS:          0 HIT:          0 MISS:          0
cpu2_STLB RFO          ACCESS:          0 HIT:          0 MISS:          0
cpu2_STLB PREFETCH     ACCESS:          0 HIT:          0 MISS:          0
cpu2_STLB WRITE        ACCESS:          0 HIT:          0 MISS:          0
cpu2_STLB TRANSLATION  ACCESS:          0 HIT:          0 MISS:          0
cpu2_STLB PREFETCH REQUESTED:          0 ISSUED:          0 USEFUL:          0 USELESS:          0
cpu2_STLB AVERAGE MISS LATENCY: 188.8 cycles
cpu2_STLB TOTAL        ACCESS:        483 HIT:         48 MISS:        435
cpu2_STLB LOAD         ACCESS:        483 HIT:         48 MISS:        435
cpu2_STLB RFO          ACCESS:          0 HIT:          0 MISS:          0
cpu2_STLB PREFETCH     ACCESS:          0 HIT:          0 MISS:          0
cpu2_STLB WRITE        ACCESS:          0 HIT:          0 MISS:          0
cpu2_STLB TRANSLATION  ACCESS:          0 HIT:          0 MISS:          0
cpu2_STLB PREFETCH REQUESTED:          0 ISSUED:          0 USEFUL:          0 USELESS:          0
cpu2_STLB AVERAGE MISS LATENCY: 188.8 cycles
cpu2_STLB TOTAL        ACCESS:          0 HIT:          0 MISS:          0
cpu2_STLB LOAD         ACCESS:          0 HIT:          0 MISS:          0
cpu2_STLB RFO          ACCESS:          0 HIT:          0 MISS:          0
cpu2_STLB PREFETCH     ACCESS:          0 HIT:          0 MISS:          0
cpu2_STLB WRITE        ACCESS:          0 HIT:          0 MISS:          0
cpu2_STLB TRANSLATION  ACCESS:          0 HIT:          0 MISS:          0
cpu2_STLB PREFETCH REQUESTED:          0 ISSUED:          0 USEFUL:          0 USELESS:          0
cpu2_STLB AVERAGE MISS LATENCY: 188.8 cycles
cpu3_DTLB TOTAL        ACCESS:          0 HIT:          0 MISS:          0
cpu3_DTLB LOAD         ACCESS:          0 HIT:          0 MISS:          0
cpu3_DTLB RFO          ACCESS:          0 HIT:          0 MISS:          0
cpu3_DTLB PREFETCH     ACCESS:          0 HIT:          0 MISS:          0
cpu3_DTLB WRITE        ACCESS:          0 HIT:          0 MISS:          0
cpu3_DTLB TRANSLATION  ACCESS:          0 HIT:          0 MISS:          0
cpu3_DTLB PREFETCH REQUESTED:          0 ISSUED:          0 USEFUL:          0 USELESS:          0
cpu3_DTLB AVERAGE MISS LATENCY: 8.784 cycles
cpu3_DTLB TOTAL        ACCESS:          0 HIT:          0 MISS:          0
cpu3_DTLB LOAD         ACCESS:          0 HIT:          0 MISS:          0
cpu3_DTLB RFO          ACCESS:          0 HIT:          0 MISS:          0
cpu3_DTLB PREFETCH     ACCESS:          0 HIT:          0 MISS:          0
cpu3_DTLB WRITE        ACCESS:          0 HIT:          0 MISS:          0
cpu3_DTLB TRANSLATION  ACCESS:          0 HIT:          0 MISS:          0
cpu3_DTLB PREFETCH REQUESTED:          0 ISSUED:          0 USEFUL:          0 USELESS:          0
cpu3_DTLB AVERAGE MISS LATENCY: 8.784 cycles
cpu3_DTLB TOTAL        ACCESS:          0 HIT:          0 MISS:          0
cpu3_DTLB LOAD         ACCESS:          0 HIT:          0 MISS:          0
cpu3_DTLB RFO          ACCESS:          0 HIT:          0 MISS:          0
cpu3_DTLB PREFETCH     ACCESS:          0 HIT:          0 MISS:          0
cpu3_DTLB WRITE        ACCESS:          0 HIT:          0 MISS:          0
cpu3_DTLB TRANSLATION  ACCESS:          0 HIT:          0 MISS:          0
cpu3_DTLB PREFETCH REQUESTED:          0 ISSUED:          0 USEFUL:          0 USELESS:          0
cpu3_DTLB AVERAGE MISS LATENCY: 8.784 cycles
cpu3_DTLB TOTAL        ACCESS:   41305835 HIT:   38709635 MISS:    2596200
cpu3_DTLB LOAD         ACCESS:   41305835 HIT:   38709635 MISS:    2596200
cpu3_DTLB RFO          ACCESS:          0 HIT:          0 MISS:          0
cpu3_DTLB PREFETCH     ACCESS:          0 HIT:          0 MISS:          0
cpu3_DTLB WRITE        ACCESS:          0 HIT:          0 MISS:          0
cpu3_DTLB TRANSLATION  ACCESS:          0 HIT:          0 MISS:          0
cpu3_DTLB PREFETCH REQUESTED:          0 ISSUED:          0 USEFUL:          0 USELESS:          0
cpu3_DTLB AVERAGE MISS LATENCY: 8.784 cycles
cpu3_ITLB TOTAL        ACCESS:          0 HIT:          0 MISS:          0
cpu3_ITLB LOAD         ACCESS:          0 HIT:          0 MISS:          0
cpu3_ITLB RFO          ACCESS:          0 HIT:          0 MISS:          0
cpu3_ITLB PREFETCH     ACCESS:          0 HIT:          0 MISS:          0
cpu3_ITLB WRITE        ACCESS:          0 HIT:          0 MISS:          0
cpu3_ITLB TRANSLATION  ACCESS:          0 HIT:          0 MISS:          0
cpu3_ITLB PREFETCH REQUESTED:          0 ISSUED:          0 USEFUL:          0 USELESS:          0
cpu3_ITLB AVERAGE MISS LATENCY: -nan cycles
cpu3_ITLB TOTAL        ACCESS:          0 HIT:          0 MISS:          0
cpu3_ITLB LOAD         ACCESS:          0 HIT:          0 MISS:          0
cpu3_ITLB RFO          ACCESS:          0 HIT:          0 MISS:          0
cpu3_ITLB PREFETCH     ACCESS:          0 HIT:          0 MISS:          0
cpu3_ITLB WRITE        ACCESS:          0 HIT:          0 MISS:          0
cpu3_ITLB TRANSLATION  ACCESS:          0 HIT:          0 MISS:          0
cpu3_ITLB PREFETCH REQUESTED:          0 ISSUED:          0 USEFUL:          0 USELESS:          0
cpu3_ITLB AVERAGE MISS LATENCY: -nan cycles
cpu3_ITLB TOTAL        ACCESS:          0 HIT:          0 MISS:          0
cpu3_ITLB LOAD         ACCESS:          0 HIT:          0 MISS:          0
cpu3_ITLB RFO          ACCESS:          0 HIT:          0 MISS:          0
cpu3_ITLB PREFETCH     ACCESS:          0 HIT:          0 MISS:          0
cpu3_ITLB WRITE        ACCESS:          0 HIT:          0 MISS:          0
cpu3_ITLB TRANSLATION  ACCESS:          0 HIT:          0 MISS:          0
cpu3_ITLB PREFETCH REQUESTED:          0 ISSUED:          0 USEFUL:          0 USELESS:          0
cpu3_ITLB AVERAGE MISS LATENCY: -nan cycles
cpu3_ITLB TOTAL        ACCESS:      47561 HIT:      47561 MISS:          0
cpu3_ITLB LOAD         ACCESS:      47561 HIT:      47561 MISS:          0
cpu3_ITLB RFO          ACCESS:          0 HIT:          0 MISS:          0
cpu3_ITLB PREFETCH     ACCESS:          0 HIT:          0 MISS:          0
cpu3_ITLB WRITE        ACCESS:          0 HIT:          0 MISS:          0
cpu3_ITLB TRANSLATION  ACCESS:          0 HIT:          0 MISS:          0
cpu3_ITLB PREFETCH REQUESTED:          0 ISSUED:          0 USEFUL:          0 USELESS:          0
cpu3_ITLB AVERAGE MISS LATENCY: -nan cycles
cpu3_L1D TOTAL        ACCESS:          0 HIT:          0 MISS:          0
cpu3_L1D LOAD         ACCESS:          0 HIT:          0 MISS:          0
cpu3_L1D RFO          ACCESS:          0 HIT:          0 MISS:          0
cpu3_L1D PREFETCH     ACCESS:          0 HIT:          0 MISS:          0
cpu3_L1D WRITE        ACCESS:          0 HIT:          0 MISS:          0
cpu3_L1D TRANSLATION  ACCESS:          0 HIT:          0 MISS:          0
cpu3_L1D PREFETCH REQUESTED:          0 ISSUED:          0 USEFUL:          0 USELESS:          0
cpu3_L1D AVERAGE MISS LATENCY: 87.17 cycles
cpu3_L1D TOTAL        ACCESS:          0 HIT:          0 MISS:          0
cpu3_L1D LOAD         ACCESS:          0 HIT:          0 MISS:          0
cpu3_L1D RFO          ACCESS:          0 HIT:          0 MISS:          0
cpu3_L1D PREFETCH     ACCESS:          0 HIT:          0 MISS:          0
cpu3_L1D WRITE        ACCESS:          0 HIT:          0 MISS:          0
cpu3_L1D TRANSLATION  ACCESS:          0 HIT:          0 MISS:          0
cpu3_L1D PREFETCH REQUESTED:          0 ISSUED:          0 USEFUL:          0 USELESS:          0
cpu3_L1D AVERAGE MISS LATENCY: 87.17 cycles
cpu3_L1D TOTAL        ACCESS:          0 HIT:          0 MISS:          0
cpu3_L1D LOAD         ACCESS:          0 HIT:          0 MISS:          0
cpu3_L1D RFO          ACCESS:          0 HIT:          0 MISS:          0
cpu3_L1D PREFETCH     ACCESS:          0 HIT:          0 MISS:          0
cpu3_L1D WRITE        ACCESS:          0 HIT:          0 MISS:          0
cpu3_L1D TRANSLATION  ACCESS:          0 HIT:          0 MISS:          0
cpu3_L1D PREFETCH REQUESTED:          0 ISSUED:          0 USEFUL:          0 USELESS:          0
cpu3_L1D AVERAGE MISS LATENCY: 87.17 cycles
cpu3_L1D TOTAL        ACCESS:   52570648 HIT:   45400544 MISS:    7170104
cpu3_L1D LOAD         ACCESS:   34843433 HIT:   29258140 MISS:    5585293
cpu3_L1D RFO          ACCESS:          0 HIT:          0 MISS:          0
cpu3_L1D PREFETCH     ACCESS:          0 HIT:          0 MISS:          0
cpu3_L1D WRITE        ACCESS:   17695807 HIT:   16127940 MISS:    1567867
cpu3_L1D TRANSLATION  ACCESS:      31408 HIT:      14464 MISS:      16944
cpu3_L1D PREFETCH REQUESTED:          0 ISSUED:          0 USEFUL:          0 USELESS:          0
cpu3_L1D AVERAGE MISS LATENCY: 87.17 cycles
cpu3_L1I TOTAL        ACCESS:          0 HIT:          0 MISS:          0
cpu3_L1I LOAD         ACCESS:          0 HIT:          0 MISS:          0
cpu3_L1I RFO          ACCESS:          0 HIT:          0 MISS:          0
cpu3_L1I PREFETCH     ACCESS:          0 HIT:          0 MISS:          0
cpu3_L1I WRITE        ACCESS:          0 HIT:          0 MISS:          0
cpu3_L1I TRANSLATION  ACCESS:          0 HIT:          0 MISS:          0
cpu3_L1I PREFETCH REQUESTED:          0 ISSUED:          0 USEFUL:          0 USELESS:          0
cpu3_L1I AVERAGE MISS LATENCY: 294.5 cycles
cpu3_L1I TOTAL        ACCESS:          0 HIT:          0 MISS:          0
cpu3_L1I LOAD         ACCESS:          0 HIT:          0 MISS:          0
cpu3_L1I RFO          ACCESS:          0 HIT:          0 MISS:          0
cpu3_L1I PREFETCH     ACCESS:          0 HIT:          0 MISS:          0
cpu3_L1I WRITE        ACCESS:          0 HIT:          0 MISS:          0
cpu3_L1I TRANSLATION  ACCESS:          0 HIT:          0 MISS:          0
cpu3_L1I PREFETCH REQUESTED:          0 ISSUED:          0 USEFUL:          0 USELESS:          0
cpu3_L1I AVERAGE MISS LATENCY: 294.5 cycles
cpu3_L1I TOTAL        ACCESS:          0 HIT:          0 MISS:          0
cpu3_L1I LOAD         ACCESS:          0 HIT:          0 MISS:          0
cpu3_L1I RFO          ACCESS:          0 HIT:          0 MISS:          0
cpu3_L1I PREFETCH     ACCESS:          0 HIT:          0 MISS:          0
cpu3_L1I WRITE        ACCESS:          0 HIT:          0 MISS:          0
cpu3_L1I TRANSLATION  ACCESS:          0 HIT:          0 MISS:          0
cpu3_L1I PREFETCH REQUESTED:          0 ISSUED:          0 USEFUL:          0 USELESS:          0
cpu3_L1I AVERAGE MISS LATENCY: 294.5 cycles
cpu3_L1I TOTAL        ACCESS:      53876 HIT:      53874 MISS:          2
cpu3_L1I LOAD         ACCESS:      53876 HIT:      53874 MISS:          2
cpu3_L1I RFO          ACCESS:          0 HIT:          0 MISS:          0
cpu3_L1I PREFETCH     ACCESS:          0 HIT:          0 MISS:          0
cpu3_L1I WRITE        ACCESS:          0 HIT:          0 MISS:          0
cpu3_L1I TRANSLATION  ACCESS:          0 HIT:          0 MISS:          0
cpu3_L1I PREFETCH REQUESTED:          0 ISSUED:          0 USEFUL:          0 USELESS:          0
cpu3_L1I AVERAGE MISS LATENCY: 294.5 cycles
cpu3_L2C TOTAL        ACCESS:          0 HIT:          0 MISS:          0
cpu3_L2C LOAD         ACCESS:          0 HIT:          0 MISS:          0
cpu3_L2C RFO          ACCESS:          0 HIT:          0 MISS:          0
cpu3_L2C PREFETCH     ACCESS:          0 HIT:          0 MISS:          0
cpu3_L2C WRITE        ACCESS:          0 HIT:          0 MISS:          0
cpu3_L2C TRANSLATION  ACCESS:          0 HIT:          0 MISS:          0
cpu3_L2C PREFETCH REQUESTED:          0 ISSUED:          0 USEFUL:          0 USELESS:          0
cpu3_L2C AVERAGE MISS LATENCY: 179.4 cycles
cpu3_L2C TOTAL        ACCESS:          0 HIT:          0 MISS:          0
cpu3_L2C LOAD         ACCESS:          0 HIT:          0 MISS:          0
cpu3_L2C RFO          ACCESS:          0 HIT:          0 MISS:          0
cpu3_L2C PREFETCH     ACCESS:          0 HIT:          0 MISS:          0
cpu3_L2C WRITE        ACCESS:          0 HIT:          0 MISS:          0
cpu3_L2C TRANSLATION  ACCESS:          0 HIT:          0 MISS:          0
cpu3_L2C PREFETCH REQUESTED:          0 ISSUED:          0 USEFUL:          0 USELESS:          0
cpu3_L2C AVERAGE MISS LATENCY: 179.4 cycles
cpu3_L2C TOTAL        ACCESS:          0 HIT:          0 MISS:          0
cpu3_L2C LOAD         ACCESS:          0 HIT:          0 MISS:          0
cpu3_L2C RFO          ACCESS:          0 HIT:          0 MISS:          0
cpu3_L2C PREFETCH     ACCESS:          0 HIT:          0 MISS:          0
cpu3_L2C WRITE        ACCESS:          0 HIT:          0 MISS:          0
cpu3_L2C TRANSLATION  ACCESS:          0 HIT:          0 MISS:          0
cpu3_L2C PREFETCH REQUESTED:          0 ISSUED:          0 USEFUL:          0 USELESS:          0
cpu3_L2C AVERAGE MISS LATENCY: 179.4 cycles
cpu3_L2C TOTAL        ACCESS:    5993938 HIT:    2763807 MISS:    3230131
cpu3_L2C LOAD         ACCESS:    4619191 HIT:    1631365 MISS:    2987826
cpu3_L2C RFO          ACCESS:     572913 HIT:     345112 MISS:     227801
cpu3_L2C PREFETCH     ACCESS:          0 HIT:          0 MISS:          0
cpu3_L2C WRITE        ACCESS:     784892 HIT:     784441 MISS:        451
cpu3_L2C TRANSLATION  ACCESS:      16942 HIT:       2889 MISS:      14053
cpu3_L2C PREFETCH REQUESTED:          0 ISSUED:          0 USEFUL:          0 USELESS:          0
cpu3_L2C AVERAGE MISS LATENCY: 179.4 cycles
cpu3_STLB TOTAL        ACCESS:          0 HIT:          0 MISS:          0
cpu3_STLB LOAD         ACCESS:          0 HIT:          0 MISS:          0
cpu3_STLB RFO          ACCESS:          0 HIT:          0 MISS:          0
cpu3_STLB PREFETCH     ACCESS:          0 HIT:          0 MISS:          0
cpu3_STLB WRITE        ACCESS:          0 HIT:          0 MISS:          0
cpu3_STLB TRANSLATION  ACCESS:          0 HIT:          0 MISS:          0
cpu3_STLB PREFETCH REQUESTED:          0 ISSUED:          0 USEFUL:          0 USELESS:          0
cpu3_STLB AVERAGE MISS LATENCY: 205.9 cycles
cpu3_STLB TOTAL        ACCESS:          0 HIT:          0 MISS:          0
cpu3_STLB LOAD         ACCESS:          0 HIT:          0 MISS:          0
cpu3_STLB RFO          ACCESS:          0 HIT:          0 MISS:          0
cpu3_STLB PREFETCH     ACCESS:          0 HIT:          0 MISS:          0
cpu3_STLB WRITE        ACCESS:          0 HIT:          0 MISS:          0
cpu3_STLB TRANSLATION  ACCESS:          0 HIT:          0 MISS:          0
cpu3_STLB PREFETCH REQUESTED:          0 ISSUED:          0 USEFUL:          0 USELESS:          0
cpu3_STLB AVERAGE MISS LATENCY: 205.9 cycles
cpu3_STLB TOTAL        ACCESS:          0 HIT:          0 MISS:          0
cpu3_STLB LOAD         ACCESS:          0 HIT:          0 MISS:          0
cpu3_STLB RFO          ACCESS:          0 HIT:          0 MISS:          0
cpu3_STLB PREFETCH     ACCESS:          0 HIT:          0 MISS:          0
cpu3_STLB WRITE        ACCESS:          0 HIT:          0 MISS:          0
cpu3_STLB TRANSLATION  ACCESS:          0 HIT:          0 MISS:          0
cpu3_STLB PREFETCH REQUESTED:          0 ISSUED:          0 USEFUL:          0 USELESS:          0
cpu3_STLB AVERAGE MISS LATENCY: 205.9 cycles
cpu3_STLB TOTAL        ACCESS:    2225445 HIT:    2194274 MISS:      31171
cpu3_STLB LOAD         ACCESS:    2225445 HIT:    2194274 MISS:      31171
cpu3_STLB RFO          ACCESS:          0 HIT:          0 MISS:          0
cpu3_STLB PREFETCH     ACCESS:          0 HIT:          0 MISS:          0
cpu3_STLB WRITE        ACCESS:          0 HIT:          0 MISS:          0
cpu3_STLB TRANSLATION  ACCESS:          0 HIT:          0 MISS:          0
cpu3_STLB PREFETCH REQUESTED:          0 ISSUED:          0 USEFUL:          0 USELESS:          0
cpu3_STLB AVERAGE MISS LATENCY: 205.9 cycles

DRAM Statistics

Channel 0 RQ ROW_BUFFER_HIT:    1693057
  ROW_BUFFER_MISS:    3255906
 AVG DBUS CONGESTED CYCLE: 3.935
WQ ROW_BUFFER_HIT: Channel 0 
  ROW_BUFFER_MISS:      80532
  FULL:     941804

Channel 1 RQ ROW_BUFFER_HIT:    1715159
  ROW_BUFFER_MISS:    3218854
 AVG DBUS CONGESTED CYCLE: 3.936
WQ ROW_BUFFER_HIT: Channel 1 
  ROW_BUFFER_MISS:      83668
  FULL:     937588
