Original cmd-> /home/grads/r/rdas40/ECEN676/ChampSim/bin/multi_core/nopref_2ch --warmup_instructions=50000000 --simulation_instructions=150000000  /home/grads/r/rdas40/dpc3_traces/603.bwaves_s-3699B.champsimtrace.xz /home/grads/r/rdas40/dpc3_traces/654.roms_s-842B.champsimtrace.xz /home/grads/r/rdas40/dpc3_traces/649.fotonik3d_s-1176B.champsimtrace.xz /home/grads/r/rdas40/dpc3_traces/628.pop2_s-17B.champsimtrace.xz
WARNING: physical memory size is smaller than virtual memory size.
WARNING: option --warmup_instructions is deprecated. Use --warmup-instructions instead.
WARNING: option --simulation_instructions is deprecated. Use --simulation-instructions instead.

*** ChampSim Multicore Out-of-Order Simulator ***
Warmup Instructions: 50000000
Simulation Instructions: 150000000
Number of CPUs: 4
Page size: 4096

Off-chip DRAM Size: 8 GiB Channels: 2 Width: 64-bit Data Race: 3200 MT/s
Heartbeat CPU 2 instructions: 10000003 cycles: 2500048 heartbeat IPC: 4 cumulative IPC: 4 (Simulation time: 00 hr 02 min 39 sec)
Heartbeat CPU 1 instructions: 10000002 cycles: 2505992 heartbeat IPC: 3.99 cumulative IPC: 3.99 (Simulation time: 00 hr 02 min 39 sec)
Heartbeat CPU 0 instructions: 10000001 cycles: 2521903 heartbeat IPC: 3.965 cumulative IPC: 3.965 (Simulation time: 00 hr 02 min 40 sec)
Heartbeat CPU 3 instructions: 10000000 cycles: 2653458 heartbeat IPC: 3.769 cumulative IPC: 3.769 (Simulation time: 00 hr 02 min 48 sec)
Heartbeat CPU 2 instructions: 20000003 cycles: 5000048 heartbeat IPC: 4 cumulative IPC: 4 (Simulation time: 00 hr 05 min 20 sec)
Heartbeat CPU 1 instructions: 20000001 cycles: 5014203 heartbeat IPC: 3.987 cumulative IPC: 3.989 (Simulation time: 00 hr 05 min 21 sec)
Heartbeat CPU 0 instructions: 20000001 cycles: 5038282 heartbeat IPC: 3.974 cumulative IPC: 3.97 (Simulation time: 00 hr 05 min 22 sec)
Heartbeat CPU 3 instructions: 20000001 cycles: 5306984 heartbeat IPC: 3.769 cumulative IPC: 3.769 (Simulation time: 00 hr 05 min 40 sec)
Heartbeat CPU 2 instructions: 30000003 cycles: 7500048 heartbeat IPC: 4 cumulative IPC: 4 (Simulation time: 00 hr 08 min 02 sec)
Heartbeat CPU 1 instructions: 30000002 cycles: 7517971 heartbeat IPC: 3.994 cumulative IPC: 3.99 (Simulation time: 00 hr 08 min 03 sec)
Heartbeat CPU 0 instructions: 30000001 cycles: 7553327 heartbeat IPC: 3.976 cumulative IPC: 3.972 (Simulation time: 00 hr 08 min 05 sec)
Heartbeat CPU 3 instructions: 30000004 cycles: 7959947 heartbeat IPC: 3.769 cumulative IPC: 3.769 (Simulation time: 00 hr 08 min 31 sec)
Heartbeat CPU 2 instructions: 40000003 cycles: 10000048 heartbeat IPC: 4 cumulative IPC: 4 (Simulation time: 00 hr 10 min 42 sec)
Heartbeat CPU 1 instructions: 40000000 cycles: 10027024 heartbeat IPC: 3.986 cumulative IPC: 3.989 (Simulation time: 00 hr 10 min 44 sec)
Heartbeat CPU 0 instructions: 40000000 cycles: 10077359 heartbeat IPC: 3.962 cumulative IPC: 3.969 (Simulation time: 00 hr 10 min 48 sec)
Heartbeat CPU 3 instructions: 40000003 cycles: 10612449 heartbeat IPC: 3.77 cumulative IPC: 3.769 (Simulation time: 00 hr 11 min 22 sec)
Heartbeat CPU 2 instructions: 50000003 cycles: 12500048 heartbeat IPC: 4 cumulative IPC: 4 (Simulation time: 00 hr 13 min 23 sec)
Warmup finished CPU 2 instructions: 50000003 cycles: 12500049 cumulative IPC: 4 (Simulation time: 00 hr 13 min 23 sec)
Heartbeat CPU 1 instructions: 50000002 cycles: 12547244 heartbeat IPC: 3.968 cumulative IPC: 3.985 (Simulation time: 00 hr 13 min 26 sec)
Warmup finished CPU 1 instructions: 50000002 cycles: 12547245 cumulative IPC: 3.985 (Simulation time: 00 hr 13 min 26 sec)
Heartbeat CPU 0 instructions: 50000000 cycles: 12599190 heartbeat IPC: 3.965 cumulative IPC: 3.969 (Simulation time: 00 hr 13 min 29 sec)
Warmup finished CPU 0 instructions: 50000000 cycles: 12599191 cumulative IPC: 3.969 (Simulation time: 00 hr 13 min 29 sec)
Heartbeat CPU 3 instructions: 50000001 cycles: 13266021 heartbeat IPC: 3.769 cumulative IPC: 3.769 (Simulation time: 00 hr 14 min 12 sec)
Warmup finished CPU 3 instructions: 50000001 cycles: 13266022 cumulative IPC: 3.769 (Simulation time: 00 hr 14 min 12 sec)
Warmup complete CPU 0 instructions: 52641329 cycles: 13266022 cumulative IPC: 3.968 (Simulation time: 00 hr 14 min 12 sec)
Warmup complete CPU 1 instructions: 52869054 cycles: 13266022 cumulative IPC: 3.985 (Simulation time: 00 hr 14 min 12 sec)
Warmup complete CPU 2 instructions: 53063895 cycles: 13266022 cumulative IPC: 4 (Simulation time: 00 hr 14 min 12 sec)
Warmup complete CPU 3 instructions: 50000001 cycles: 13266022 cumulative IPC: 3.769 (Simulation time: 00 hr 14 min 12 sec)
Heartbeat CPU 1 instructions: 60000002 cycles: 15736226 heartbeat IPC: 3.136 cumulative IPC: 2.887 (Simulation time: 00 hr 16 min 26 sec)
Heartbeat CPU 0 instructions: 60000002 cycles: 16457664 heartbeat IPC: 2.592 cumulative IPC: 2.306 (Simulation time: 00 hr 17 min 04 sec)
Heartbeat CPU 3 instructions: 60000004 cycles: 18797156 heartbeat IPC: 1.808 cumulative IPC: 1.808 (Simulation time: 00 hr 19 min 11 sec)
Heartbeat CPU 1 instructions: 70000003 cycles: 19461902 heartbeat IPC: 2.684 cumulative IPC: 2.765 (Simulation time: 00 hr 19 min 47 sec)
Heartbeat CPU 2 instructions: 60000004 cycles: 19536533 heartbeat IPC: 1.421 cumulative IPC: 1.106 (Simulation time: 00 hr 19 min 51 sec)
Heartbeat CPU 0 instructions: 70000004 cycles: 20802011 heartbeat IPC: 2.302 cumulative IPC: 2.303 (Simulation time: 00 hr 21 min 03 sec)
Heartbeat CPU 1 instructions: 80000000 cycles: 22949120 heartbeat IPC: 2.868 cumulative IPC: 2.802 (Simulation time: 00 hr 23 min 02 sec)
Heartbeat CPU 3 instructions: 70000002 cycles: 24095108 heartbeat IPC: 1.888 cumulative IPC: 1.847 (Simulation time: 00 hr 24 min 05 sec)
Heartbeat CPU 0 instructions: 80000000 cycles: 25086906 heartbeat IPC: 2.334 cumulative IPC: 2.314 (Simulation time: 00 hr 25 min 01 sec)
Heartbeat CPU 1 instructions: 90000001 cycles: 26583933 heartbeat IPC: 2.751 cumulative IPC: 2.788 (Simulation time: 00 hr 26 min 26 sec)
Heartbeat CPU 2 instructions: 70000004 cycles: 28653744 heartbeat IPC: 1.097 cumulative IPC: 1.101 (Simulation time: 00 hr 28 min 16 sec)
Heartbeat CPU 3 instructions: 80000000 cycles: 28766176 heartbeat IPC: 2.141 cumulative IPC: 1.935 (Simulation time: 00 hr 28 min 22 sec)
Heartbeat CPU 0 instructions: 90000001 cycles: 29427978 heartbeat IPC: 2.304 cumulative IPC: 2.312 (Simulation time: 00 hr 28 min 57 sec)
Heartbeat CPU 1 instructions: 100000000 cycles: 30074892 heartbeat IPC: 2.865 cumulative IPC: 2.804 (Simulation time: 00 hr 29 min 32 sec)
Heartbeat CPU 3 instructions: 90000000 cycles: 33153412 heartbeat IPC: 2.279 cumulative IPC: 2.011 (Simulation time: 00 hr 32 min 24 sec)
Heartbeat CPU 1 instructions: 110000001 cycles: 33680306 heartbeat IPC: 2.774 cumulative IPC: 2.799 (Simulation time: 00 hr 32 min 54 sec)
Heartbeat CPU 0 instructions: 100000000 cycles: 33740865 heartbeat IPC: 2.319 cumulative IPC: 2.313 (Simulation time: 00 hr 32 min 57 sec)
Heartbeat CPU 1 instructions: 120000002 cycles: 37190512 heartbeat IPC: 2.849 cumulative IPC: 2.806 (Simulation time: 00 hr 36 min 09 sec)
Heartbeat CPU 2 instructions: 80000004 cycles: 37527605 heartbeat IPC: 1.127 cumulative IPC: 1.11 (Simulation time: 00 hr 36 min 27 sec)
Heartbeat CPU 3 instructions: 100000002 cycles: 37574342 heartbeat IPC: 2.262 cumulative IPC: 2.057 (Simulation time: 00 hr 36 min 30 sec)
Heartbeat CPU 0 instructions: 110000003 cycles: 38179301 heartbeat IPC: 2.253 cumulative IPC: 2.302 (Simulation time: 00 hr 37 min 03 sec)
Heartbeat CPU 1 instructions: 130000003 cycles: 40666022 heartbeat IPC: 2.877 cumulative IPC: 2.815 (Simulation time: 00 hr 39 min 17 sec)
Heartbeat CPU 3 instructions: 110000001 cycles: 42474271 heartbeat IPC: 2.041 cumulative IPC: 2.054 (Simulation time: 00 hr 40 min 56 sec)
Heartbeat CPU 0 instructions: 120000001 cycles: 42508543 heartbeat IPC: 2.31 cumulative IPC: 2.303 (Simulation time: 00 hr 40 min 57 sec)
Heartbeat CPU 1 instructions: 140000003 cycles: 44570539 heartbeat IPC: 2.561 cumulative IPC: 2.783 (Simulation time: 00 hr 42 min 46 sec)
Heartbeat CPU 0 instructions: 130000000 cycles: 46985703 heartbeat IPC: 2.234 cumulative IPC: 2.294 (Simulation time: 00 hr 44 min 55 sec)
Heartbeat CPU 3 instructions: 120000003 cycles: 47510155 heartbeat IPC: 1.986 cumulative IPC: 2.044 (Simulation time: 00 hr 45 min 25 sec)
Heartbeat CPU 1 instructions: 150000003 cycles: 48040386 heartbeat IPC: 2.882 cumulative IPC: 2.793 (Simulation time: 00 hr 45 min 54 sec)
Heartbeat CPU 2 instructions: 90000000 cycles: 48710627 heartbeat IPC: 0.8942 cumulative IPC: 1.042 (Simulation time: 00 hr 46 min 28 sec)
Heartbeat CPU 1 instructions: 160000001 cycles: 51376464 heartbeat IPC: 2.998 cumulative IPC: 2.811 (Simulation time: 00 hr 48 min 55 sec)
Heartbeat CPU 0 instructions: 140000000 cycles: 51532839 heartbeat IPC: 2.199 cumulative IPC: 2.283 (Simulation time: 00 hr 49 min 03 sec)
Heartbeat CPU 3 instructions: 130000002 cycles: 52258490 heartbeat IPC: 2.106 cumulative IPC: 2.052 (Simulation time: 00 hr 49 min 42 sec)
Heartbeat CPU 1 instructions: 170000004 cycles: 55096082 heartbeat IPC: 2.688 cumulative IPC: 2.8 (Simulation time: 00 hr 52 min 06 sec)
Heartbeat CPU 0 instructions: 150000002 cycles: 55970428 heartbeat IPC: 2.253 cumulative IPC: 2.28 (Simulation time: 00 hr 52 min 55 sec)
Heartbeat CPU 3 instructions: 140000003 cycles: 56784056 heartbeat IPC: 2.21 cumulative IPC: 2.068 (Simulation time: 00 hr 53 min 41 sec)
Heartbeat CPU 2 instructions: 100000002 cycles: 58040323 heartbeat IPC: 1.072 cumulative IPC: 1.048 (Simulation time: 00 hr 54 min 51 sec)
Heartbeat CPU 1 instructions: 180000003 cycles: 58741858 heartbeat IPC: 2.743 cumulative IPC: 2.796 (Simulation time: 00 hr 55 min 30 sec)
Heartbeat CPU 0 instructions: 160000001 cycles: 60372639 heartbeat IPC: 2.272 cumulative IPC: 2.279 (Simulation time: 00 hr 56 min 58 sec)
Heartbeat CPU 3 instructions: 150000001 cycles: 60999334 heartbeat IPC: 2.372 cumulative IPC: 2.095 (Simulation time: 00 hr 57 min 32 sec)
Heartbeat CPU 1 instructions: 190000001 cycles: 62355138 heartbeat IPC: 2.768 cumulative IPC: 2.794 (Simulation time: 00 hr 58 min 48 sec)
Heartbeat CPU 0 instructions: 170000000 cycles: 64814745 heartbeat IPC: 2.251 cumulative IPC: 2.277 (Simulation time: 01 hr 00 min 48 sec)
Heartbeat CPU 1 instructions: 200000004 cycles: 66038001 heartbeat IPC: 2.715 cumulative IPC: 2.788 (Simulation time: 01 hr 01 min 54 sec)
Heartbeat CPU 3 instructions: 160000000 cycles: 66212939 heartbeat IPC: 1.918 cumulative IPC: 2.078 (Simulation time: 01 hr 02 min 04 sec)
Simulation finished CPU 1 instructions: 150000003 cycles: 53788348 cumulative IPC: 2.789 (Simulation time: 01 hr 02 min 50 sec)
Heartbeat CPU 2 instructions: 110000001 cycles: 67658546 heartbeat IPC: 1.04 cumulative IPC: 1.047 (Simulation time: 01 hr 03 min 24 sec)
Heartbeat CPU 0 instructions: 180000000 cycles: 69278020 heartbeat IPC: 2.241 cumulative IPC: 2.274 (Simulation time: 01 hr 04 min 54 sec)
Heartbeat CPU 1 instructions: 210000004 cycles: 69568302 heartbeat IPC: 2.833 cumulative IPC: 2.791 (Simulation time: 01 hr 05 min 09 sec)
Heartbeat CPU 3 instructions: 170000002 cycles: 70445788 heartbeat IPC: 2.362 cumulative IPC: 2.099 (Simulation time: 01 hr 05 min 58 sec)
Heartbeat CPU 1 instructions: 220000001 cycles: 73222270 heartbeat IPC: 2.737 cumulative IPC: 2.788 (Simulation time: 01 hr 08 min 29 sec)
Heartbeat CPU 0 instructions: 190000000 cycles: 73689580 heartbeat IPC: 2.267 cumulative IPC: 2.273 (Simulation time: 01 hr 08 min 53 sec)
Heartbeat CPU 3 instructions: 180000000 cycles: 76493886 heartbeat IPC: 1.653 cumulative IPC: 2.056 (Simulation time: 01 hr 11 min 22 sec)
Heartbeat CPU 1 instructions: 230000000 cycles: 76710479 heartbeat IPC: 2.867 cumulative IPC: 2.792 (Simulation time: 01 hr 11 min 34 sec)
Heartbeat CPU 2 instructions: 120000003 cycles: 76767934 heartbeat IPC: 1.098 cumulative IPC: 1.054 (Simulation time: 01 hr 11 min 37 sec)
Heartbeat CPU 0 instructions: 200000004 cycles: 78069377 heartbeat IPC: 2.283 cumulative IPC: 2.274 (Simulation time: 01 hr 12 min 48 sec)
Simulation finished CPU 0 instructions: 150000003 cycles: 65985377 cumulative IPC: 2.273 (Simulation time: 01 hr 13 min 52 sec)
Heartbeat CPU 1 instructions: 240000002 cycles: 80372384 heartbeat IPC: 2.731 cumulative IPC: 2.789 (Simulation time: 01 hr 14 min 52 sec)
Heartbeat CPU 3 instructions: 190000004 cycles: 82330222 heartbeat IPC: 1.713 cumulative IPC: 2.027 (Simulation time: 01 hr 16 min 38 sec)
Heartbeat CPU 0 instructions: 210000001 cycles: 82555409 heartbeat IPC: 2.229 cumulative IPC: 2.271 (Simulation time: 01 hr 16 min 51 sec)
Heartbeat CPU 1 instructions: 250000004 cycles: 83971176 heartbeat IPC: 2.779 cumulative IPC: 2.788 (Simulation time: 01 hr 18 min 07 sec)
Heartbeat CPU 2 instructions: 130000003 cycles: 86217539 heartbeat IPC: 1.058 cumulative IPC: 1.055 (Simulation time: 01 hr 20 min 11 sec)
Heartbeat CPU 0 instructions: 220000002 cycles: 87101700 heartbeat IPC: 2.2 cumulative IPC: 2.267 (Simulation time: 01 hr 21 min 01 sec)
Heartbeat CPU 1 instructions: 260000002 cycles: 87473009 heartbeat IPC: 2.856 cumulative IPC: 2.791 (Simulation time: 01 hr 21 min 21 sec)
Heartbeat CPU 3 instructions: 200000003 cycles: 88036643 heartbeat IPC: 1.752 cumulative IPC: 2.006 (Simulation time: 01 hr 21 min 52 sec)
Simulation finished CPU 3 instructions: 150000002 cycles: 74770622 cumulative IPC: 2.006 (Simulation time: 01 hr 21 min 52 sec)
Heartbeat CPU 1 instructions: 270000004 cycles: 91047360 heartbeat IPC: 2.798 cumulative IPC: 2.792 (Simulation time: 01 hr 24 min 40 sec)
Heartbeat CPU 0 instructions: 230000000 cycles: 91552033 heartbeat IPC: 2.247 cumulative IPC: 2.266 (Simulation time: 01 hr 25 min 07 sec)
Heartbeat CPU 3 instructions: 210000003 cycles: 93726069 heartbeat IPC: 1.758 cumulative IPC: 1.989 (Simulation time: 01 hr 27 min 07 sec)
Heartbeat CPU 1 instructions: 280000004 cycles: 94575666 heartbeat IPC: 2.834 cumulative IPC: 2.793 (Simulation time: 01 hr 27 min 54 sec)
Heartbeat CPU 2 instructions: 140000001 cycles: 95248370 heartbeat IPC: 1.107 cumulative IPC: 1.06 (Simulation time: 01 hr 28 min 31 sec)
Heartbeat CPU 0 instructions: 240000001 cycles: 96062261 heartbeat IPC: 2.217 cumulative IPC: 2.263 (Simulation time: 01 hr 29 min 16 sec)
Heartbeat CPU 1 instructions: 290000003 cycles: 98025434 heartbeat IPC: 2.899 cumulative IPC: 2.798 (Simulation time: 01 hr 31 min 04 sec)
Heartbeat CPU 3 instructions: 220000004 cycles: 99301470 heartbeat IPC: 1.794 cumulative IPC: 1.976 (Simulation time: 01 hr 32 min 14 sec)
Heartbeat CPU 0 instructions: 250000001 cycles: 100478707 heartbeat IPC: 2.264 cumulative IPC: 2.263 (Simulation time: 01 hr 33 min 20 sec)
Heartbeat CPU 1 instructions: 300000000 cycles: 101539980 heartbeat IPC: 2.845 cumulative IPC: 2.8 (Simulation time: 01 hr 34 min 17 sec)
Heartbeat CPU 2 instructions: 150000004 cycles: 104169093 heartbeat IPC: 1.121 cumulative IPC: 1.066 (Simulation time: 01 hr 36 min 43 sec)
Heartbeat CPU 3 instructions: 230000000 cycles: 104896184 heartbeat IPC: 1.787 cumulative IPC: 1.964 (Simulation time: 01 hr 37 min 23 sec)
Heartbeat CPU 0 instructions: 260000000 cycles: 104898953 heartbeat IPC: 2.262 cumulative IPC: 2.263 (Simulation time: 01 hr 37 min 24 sec)
Heartbeat CPU 1 instructions: 310000004 cycles: 104974679 heartbeat IPC: 2.911 cumulative IPC: 2.804 (Simulation time: 01 hr 37 min 28 sec)
Heartbeat CPU 1 instructions: 320000001 cycles: 108411488 heartbeat IPC: 2.91 cumulative IPC: 2.808 (Simulation time: 01 hr 40 min 36 sec)
Heartbeat CPU 0 instructions: 270000003 cycles: 109342345 heartbeat IPC: 2.251 cumulative IPC: 2.262 (Simulation time: 01 hr 41 min 27 sec)
Heartbeat CPU 3 instructions: 240000000 cycles: 110437385 heartbeat IPC: 1.805 cumulative IPC: 1.955 (Simulation time: 01 hr 42 min 26 sec)
Heartbeat CPU 1 instructions: 330000001 cycles: 111844393 heartbeat IPC: 2.913 cumulative IPC: 2.811 (Simulation time: 01 hr 43 min 43 sec)
Heartbeat CPU 2 instructions: 160000003 cycles: 113089036 heartbeat IPC: 1.121 cumulative IPC: 1.071 (Simulation time: 01 hr 44 min 51 sec)
Heartbeat CPU 0 instructions: 280000003 cycles: 113759372 heartbeat IPC: 2.264 cumulative IPC: 2.262 (Simulation time: 01 hr 45 min 29 sec)
Heartbeat CPU 1 instructions: 340000002 cycles: 115349282 heartbeat IPC: 2.853 cumulative IPC: 2.813 (Simulation time: 01 hr 46 min 57 sec)
Heartbeat CPU 3 instructions: 250000000 cycles: 115844062 heartbeat IPC: 1.85 cumulative IPC: 1.95 (Simulation time: 01 hr 47 min 24 sec)
Heartbeat CPU 0 instructions: 290000001 cycles: 118190566 heartbeat IPC: 2.257 cumulative IPC: 2.262 (Simulation time: 01 hr 49 min 34 sec)
Heartbeat CPU 1 instructions: 350000001 cycles: 118882760 heartbeat IPC: 2.83 cumulative IPC: 2.813 (Simulation time: 01 hr 50 min 11 sec)
Heartbeat CPU 3 instructions: 260000001 cycles: 120928153 heartbeat IPC: 1.967 cumulative IPC: 1.951 (Simulation time: 01 hr 52 min 00 sec)
Heartbeat CPU 1 instructions: 360000001 cycles: 122372064 heartbeat IPC: 2.866 cumulative IPC: 2.815 (Simulation time: 01 hr 53 min 18 sec)
Heartbeat CPU 2 instructions: 170000002 cycles: 122461773 heartbeat IPC: 1.067 cumulative IPC: 1.071 (Simulation time: 01 hr 53 min 23 sec)
Heartbeat CPU 0 instructions: 300000002 cycles: 122644855 heartbeat IPC: 2.245 cumulative IPC: 2.261 (Simulation time: 01 hr 53 min 33 sec)
Heartbeat CPU 3 instructions: 270000001 cycles: 125200858 heartbeat IPC: 2.34 cumulative IPC: 1.965 (Simulation time: 01 hr 55 min 54 sec)
Heartbeat CPU 1 instructions: 370000001 cycles: 125843221 heartbeat IPC: 2.881 cumulative IPC: 2.817 (Simulation time: 01 hr 56 min 30 sec)
Heartbeat CPU 0 instructions: 310000000 cycles: 127043849 heartbeat IPC: 2.273 cumulative IPC: 2.262 (Simulation time: 01 hr 57 min 37 sec)
Heartbeat CPU 1 instructions: 380000001 cycles: 130013880 heartbeat IPC: 2.398 cumulative IPC: 2.802 (Simulation time: 02 hr 00 min 18 sec)
Heartbeat CPU 3 instructions: 280000003 cycles: 130052405 heartbeat IPC: 2.061 cumulative IPC: 1.969 (Simulation time: 02 hr 00 min 20 sec)
Heartbeat CPU 0 instructions: 320000002 cycles: 131569994 heartbeat IPC: 2.209 cumulative IPC: 2.26 (Simulation time: 02 hr 01 min 41 sec)
Heartbeat CPU 2 instructions: 180000002 cycles: 131739321 heartbeat IPC: 1.078 cumulative IPC: 1.071 (Simulation time: 02 hr 01 min 50 sec)
Heartbeat CPU 1 instructions: 390000002 cycles: 133786460 heartbeat IPC: 2.651 cumulative IPC: 2.797 (Simulation time: 02 hr 03 min 39 sec)
Heartbeat CPU 3 instructions: 290000004 cycles: 135207568 heartbeat IPC: 1.94 cumulative IPC: 1.968 (Simulation time: 02 hr 04 min 55 sec)
Heartbeat CPU 0 instructions: 330000004 cycles: 136171364 heartbeat IPC: 2.173 cumulative IPC: 2.257 (Simulation time: 02 hr 05 min 46 sec)
Heartbeat CPU 1 instructions: 400000003 cycles: 137325792 heartbeat IPC: 2.825 cumulative IPC: 2.798 (Simulation time: 02 hr 06 min 48 sec)
Heartbeat CPU 3 instructions: 300000000 cycles: 139895232 heartbeat IPC: 2.133 cumulative IPC: 1.974 (Simulation time: 02 hr 09 min 04 sec)
Heartbeat CPU 0 instructions: 340000001 cycles: 140684371 heartbeat IPC: 2.216 cumulative IPC: 2.255 (Simulation time: 02 hr 09 min 46 sec)
Heartbeat CPU 1 instructions: 410000004 cycles: 140861136 heartbeat IPC: 2.829 cumulative IPC: 2.799 (Simulation time: 02 hr 09 min 54 sec)
Heartbeat CPU 2 instructions: 190000003 cycles: 142467459 heartbeat IPC: 0.9321 cumulative IPC: 1.06 (Simulation time: 02 hr 11 min 22 sec)
Heartbeat CPU 1 instructions: 420000000 cycles: 144287044 heartbeat IPC: 2.919 cumulative IPC: 2.802 (Simulation time: 02 hr 12 min 58 sec)
Heartbeat CPU 3 instructions: 310000002 cycles: 144993290 heartbeat IPC: 1.962 cumulative IPC: 1.974 (Simulation time: 02 hr 13 min 35 sec)
Heartbeat CPU 0 instructions: 350000001 cycles: 145335885 heartbeat IPC: 2.15 cumulative IPC: 2.252 (Simulation time: 02 hr 13 min 54 sec)
Heartbeat CPU 1 instructions: 430000003 cycles: 148775943 heartbeat IPC: 2.228 cumulative IPC: 2.783 (Simulation time: 02 hr 16 min 40 sec)
Heartbeat CPU 3 instructions: 320000003 cycles: 149864978 heartbeat IPC: 2.053 cumulative IPC: 1.977 (Simulation time: 02 hr 17 min 41 sec)
Heartbeat CPU 0 instructions: 360000004 cycles: 150014020 heartbeat IPC: 2.138 cumulative IPC: 2.248 (Simulation time: 02 hr 17 min 49 sec)
Heartbeat CPU 2 instructions: 200000000 cycles: 152325975 heartbeat IPC: 1.014 cumulative IPC: 1.057 (Simulation time: 02 hr 19 min 54 sec)
Heartbeat CPU 1 instructions: 440000000 cycles: 152529848 heartbeat IPC: 2.664 cumulative IPC: 2.78 (Simulation time: 02 hr 20 min 04 sec)
Heartbeat CPU 0 instructions: 370000000 cycles: 154462799 heartbeat IPC: 2.248 cumulative IPC: 2.248 (Simulation time: 02 hr 21 min 42 sec)
Heartbeat CPU 3 instructions: 330000002 cycles: 154723538 heartbeat IPC: 2.058 cumulative IPC: 1.979 (Simulation time: 02 hr 21 min 55 sec)
Simulation finished CPU 2 instructions: 150000000 cycles: 142245805 cumulative IPC: 1.055 (Simulation time: 02 hr 22 min 36 sec)
Simulation complete CPU 0 instructions: 319788247 cycles: 142245805 cumulative IPC: 2.248 (Simulation time: 02 hr 22 min 36 sec)
Simulation complete CPU 1 instructions: 392497851 cycles: 142245805 cumulative IPC: 2.759 (Simulation time: 02 hr 22 min 36 sec)
Simulation complete CPU 2 instructions: 150000000 cycles: 142245805 cumulative IPC: 1.055 (Simulation time: 02 hr 22 min 36 sec)
Simulation complete CPU 3 instructions: 281453197 cycles: 142245805 cumulative IPC: 1.979 (Simulation time: 02 hr 22 min 36 sec)

ChampSim completed all CPUs

=== Simulation ===
CPU 0 runs /home/grads/r/rdas40/dpc3_traces/603.bwaves_s-3699B.champsimtrace.xzCPU 1 runs /home/grads/r/rdas40/dpc3_traces/654.roms_s-842B.champsimtrace.xzCPU 2 runs /home/grads/r/rdas40/dpc3_traces/649.fotonik3d_s-1176B.champsimtrace.xzCPU 3 runs /home/grads/r/rdas40/dpc3_traces/628.pop2_s-17B.champsimtrace.xz
Total Simulation Statistics (not including warmup)

CPU 0 cumulative IPC: 2.248 instructions: 319788247 cycles: 142245805
CPU 0 Branch Prediction Accuracy: 90.05% MPKI: 14.53 Average ROB Occupancy at Mispredict: 30.21
Branch type MPKI
BRANCH_DIRECT_JUMP: 0.0608
BRANCH_INDIRECT: 0
BRANCH_CONDITIONAL: 14.4
BRANCH_DIRECT_CALL: 0
BRANCH_INDIRECT_CALL: 0
BRANCH_RETURN: 0.068


CPU 1 cumulative IPC: 2.759 instructions: 392497851 cycles: 142245805
CPU 1 Branch Prediction Accuracy: 95.05% MPKI: 8.155 Average ROB Occupancy at Mispredict: 84.22
Branch type MPKI
BRANCH_DIRECT_JUMP: 0.155
BRANCH_INDIRECT: 0
BRANCH_CONDITIONAL: 6.81
BRANCH_DIRECT_CALL: 0
BRANCH_INDIRECT_CALL: 0
BRANCH_RETURN: 1.19


CPU 2 cumulative IPC: 1.055 instructions: 150000000 cycles: 142245805
CPU 2 Branch Prediction Accuracy: 99.98% MPKI: 0.00438 Average ROB Occupancy at Mispredict: 352
Branch type MPKI
BRANCH_DIRECT_JUMP: 0
BRANCH_INDIRECT: 0
BRANCH_CONDITIONAL: 0.00438
BRANCH_DIRECT_CALL: 0
BRANCH_INDIRECT_CALL: 0
BRANCH_RETURN: 0


CPU 3 cumulative IPC: 1.979 instructions: 281453197 cycles: 142245805
CPU 3 Branch Prediction Accuracy: 97.59% MPKI: 3.768 Average ROB Occupancy at Mispredict: 108.7
Branch type MPKI
BRANCH_DIRECT_JUMP: 0.0277
BRANCH_INDIRECT: 0.000643
BRANCH_CONDITIONAL: 3.68
BRANCH_DIRECT_CALL: 0.000984
BRANCH_INDIRECT_CALL: 0
BRANCH_RETURN: 0.0628

LLC TOTAL        ACCESS:      71281 HIT:         13 MISS:      71268
LLC LOAD         ACCESS:       6486 HIT:          0 MISS:       6486
LLC RFO          ACCESS:      32329 HIT:          0 MISS:      32329
LLC PREFETCH     ACCESS:          0 HIT:          0 MISS:          0
LLC WRITE        ACCESS:      32464 HIT:         13 MISS:      32451
LLC TRANSLATION  ACCESS:          2 HIT:          0 MISS:          2
LLC PREFETCH REQUESTED:          0 ISSUED:          0 USEFUL:          0 USELESS:          0
LLC AVERAGE MISS LATENCY: 430.2 cycles
LLC TOTAL        ACCESS:      76986 HIT:       2531 MISS:      74455
LLC LOAD         ACCESS:      32957 HIT:          0 MISS:      32957
LLC RFO          ACCESS:      21829 HIT:          1 MISS:      21828
LLC PREFETCH     ACCESS:          0 HIT:          0 MISS:          0
LLC WRITE        ACCESS:      22068 HIT:       2530 MISS:      19538
LLC TRANSLATION  ACCESS:        132 HIT:          0 MISS:        132
LLC PREFETCH REQUESTED:          0 ISSUED:          0 USEFUL:          0 USELESS:          0
LLC AVERAGE MISS LATENCY: 430.2 cycles
LLC TOTAL        ACCESS:    2685801 HIT:    1362009 MISS:    1323792
LLC LOAD         ACCESS:    1370104 HIT:      46475 MISS:    1323629
LLC RFO          ACCESS:        260 HIT:        260 MISS:          0
LLC PREFETCH     ACCESS:          0 HIT:          0 MISS:          0
LLC WRITE        ACCESS:    1315156 HIT:    1315121 MISS:         35
LLC TRANSLATION  ACCESS:        281 HIT:        153 MISS:        128
LLC PREFETCH REQUESTED:          0 ISSUED:          0 USEFUL:          0 USELESS:          0
LLC AVERAGE MISS LATENCY: 430.2 cycles
LLC TOTAL        ACCESS:    2557440 HIT:    1675501 MISS:     881939
LLC LOAD         ACCESS:    1112474 HIT:     637528 MISS:     474946
LLC RFO          ACCESS:     603899 HIT:     205388 MISS:     398511
LLC PREFETCH     ACCESS:          0 HIT:          0 MISS:          0
LLC WRITE        ACCESS:     834092 HIT:     830467 MISS:       3625
LLC TRANSLATION  ACCESS:       6975 HIT:       2118 MISS:       4857
LLC PREFETCH REQUESTED:          0 ISSUED:          0 USEFUL:          0 USELESS:          0
LLC AVERAGE MISS LATENCY: 430.2 cycles
cpu0_DTLB TOTAL        ACCESS:   39890940 HIT:   39886287 MISS:       4653
cpu0_DTLB LOAD         ACCESS:   39890940 HIT:   39886287 MISS:       4653
cpu0_DTLB RFO          ACCESS:          0 HIT:          0 MISS:          0
cpu0_DTLB PREFETCH     ACCESS:          0 HIT:          0 MISS:          0
cpu0_DTLB WRITE        ACCESS:          0 HIT:          0 MISS:          0
cpu0_DTLB TRANSLATION  ACCESS:          0 HIT:          0 MISS:          0
cpu0_DTLB PREFETCH REQUESTED:          0 ISSUED:          0 USEFUL:          0 USELESS:          0
cpu0_DTLB AVERAGE MISS LATENCY: 24.96 cycles
cpu0_DTLB TOTAL        ACCESS:          0 HIT:          0 MISS:          0
cpu0_DTLB LOAD         ACCESS:          0 HIT:          0 MISS:          0
cpu0_DTLB RFO          ACCESS:          0 HIT:          0 MISS:          0
cpu0_DTLB PREFETCH     ACCESS:          0 HIT:          0 MISS:          0
cpu0_DTLB WRITE        ACCESS:          0 HIT:          0 MISS:          0
cpu0_DTLB TRANSLATION  ACCESS:          0 HIT:          0 MISS:          0
cpu0_DTLB PREFETCH REQUESTED:          0 ISSUED:          0 USEFUL:          0 USELESS:          0
cpu0_DTLB AVERAGE MISS LATENCY: 24.96 cycles
cpu0_DTLB TOTAL        ACCESS:          0 HIT:          0 MISS:          0
cpu0_DTLB LOAD         ACCESS:          0 HIT:          0 MISS:          0
cpu0_DTLB RFO          ACCESS:          0 HIT:          0 MISS:          0
cpu0_DTLB PREFETCH     ACCESS:          0 HIT:          0 MISS:          0
cpu0_DTLB WRITE        ACCESS:          0 HIT:          0 MISS:          0
cpu0_DTLB TRANSLATION  ACCESS:          0 HIT:          0 MISS:          0
cpu0_DTLB PREFETCH REQUESTED:          0 ISSUED:          0 USEFUL:          0 USELESS:          0
cpu0_DTLB AVERAGE MISS LATENCY: 24.96 cycles
cpu0_DTLB TOTAL        ACCESS:          0 HIT:          0 MISS:          0
cpu0_DTLB LOAD         ACCESS:          0 HIT:          0 MISS:          0
cpu0_DTLB RFO          ACCESS:          0 HIT:          0 MISS:          0
cpu0_DTLB PREFETCH     ACCESS:          0 HIT:          0 MISS:          0
cpu0_DTLB WRITE        ACCESS:          0 HIT:          0 MISS:          0
cpu0_DTLB TRANSLATION  ACCESS:          0 HIT:          0 MISS:          0
cpu0_DTLB PREFETCH REQUESTED:          0 ISSUED:          0 USEFUL:          0 USELESS:          0
cpu0_DTLB AVERAGE MISS LATENCY: 24.96 cycles
cpu0_ITLB TOTAL        ACCESS:    1048268 HIT:    1048268 MISS:          0
cpu0_ITLB LOAD         ACCESS:    1048268 HIT:    1048268 MISS:          0
cpu0_ITLB RFO          ACCESS:          0 HIT:          0 MISS:          0
cpu0_ITLB PREFETCH     ACCESS:          0 HIT:          0 MISS:          0
cpu0_ITLB WRITE        ACCESS:          0 HIT:          0 MISS:          0
cpu0_ITLB TRANSLATION  ACCESS:          0 HIT:          0 MISS:          0
cpu0_ITLB PREFETCH REQUESTED:          0 ISSUED:          0 USEFUL:          0 USELESS:          0
cpu0_ITLB AVERAGE MISS LATENCY: -nan cycles
cpu0_ITLB TOTAL        ACCESS:          0 HIT:          0 MISS:          0
cpu0_ITLB LOAD         ACCESS:          0 HIT:          0 MISS:          0
cpu0_ITLB RFO          ACCESS:          0 HIT:          0 MISS:          0
cpu0_ITLB PREFETCH     ACCESS:          0 HIT:          0 MISS:          0
cpu0_ITLB WRITE        ACCESS:          0 HIT:          0 MISS:          0
cpu0_ITLB TRANSLATION  ACCESS:          0 HIT:          0 MISS:          0
cpu0_ITLB PREFETCH REQUESTED:          0 ISSUED:          0 USEFUL:          0 USELESS:          0
cpu0_ITLB AVERAGE MISS LATENCY: -nan cycles
cpu0_ITLB TOTAL        ACCESS:          0 HIT:          0 MISS:          0
cpu0_ITLB LOAD         ACCESS:          0 HIT:          0 MISS:          0
cpu0_ITLB RFO          ACCESS:          0 HIT:          0 MISS:          0
cpu0_ITLB PREFETCH     ACCESS:          0 HIT:          0 MISS:          0
cpu0_ITLB WRITE        ACCESS:          0 HIT:          0 MISS:          0
cpu0_ITLB TRANSLATION  ACCESS:          0 HIT:          0 MISS:          0
cpu0_ITLB PREFETCH REQUESTED:          0 ISSUED:          0 USEFUL:          0 USELESS:          0
cpu0_ITLB AVERAGE MISS LATENCY: -nan cycles
cpu0_ITLB TOTAL        ACCESS:          0 HIT:          0 MISS:          0
cpu0_ITLB LOAD         ACCESS:          0 HIT:          0 MISS:          0
cpu0_ITLB RFO          ACCESS:          0 HIT:          0 MISS:          0
cpu0_ITLB PREFETCH     ACCESS:          0 HIT:          0 MISS:          0
cpu0_ITLB WRITE        ACCESS:          0 HIT:          0 MISS:          0
cpu0_ITLB TRANSLATION  ACCESS:          0 HIT:          0 MISS:          0
cpu0_ITLB PREFETCH REQUESTED:          0 ISSUED:          0 USEFUL:          0 USELESS:          0
cpu0_ITLB AVERAGE MISS LATENCY: -nan cycles
cpu0_L1D TOTAL        ACCESS:   59930408 HIT:   59690689 MISS:     239719
cpu0_L1D LOAD         ACCESS:   47635663 HIT:   47626327 MISS:       9336
cpu0_L1D RFO          ACCESS:          0 HIT:          0 MISS:          0
cpu0_L1D PREFETCH     ACCESS:          0 HIT:          0 MISS:          0
cpu0_L1D WRITE        ACCESS:   12294137 HIT:   12063806 MISS:     230331
cpu0_L1D TRANSLATION  ACCESS:        608 HIT:        556 MISS:         52
cpu0_L1D PREFETCH REQUESTED:          0 ISSUED:          0 USEFUL:          0 USELESS:          0
cpu0_L1D AVERAGE MISS LATENCY: 103.4 cycles
cpu0_L1D TOTAL        ACCESS:          0 HIT:          0 MISS:          0
cpu0_L1D LOAD         ACCESS:          0 HIT:          0 MISS:          0
cpu0_L1D RFO          ACCESS:          0 HIT:          0 MISS:          0
cpu0_L1D PREFETCH     ACCESS:          0 HIT:          0 MISS:          0
cpu0_L1D WRITE        ACCESS:          0 HIT:          0 MISS:          0
cpu0_L1D TRANSLATION  ACCESS:          0 HIT:          0 MISS:          0
cpu0_L1D PREFETCH REQUESTED:          0 ISSUED:          0 USEFUL:          0 USELESS:          0
cpu0_L1D AVERAGE MISS LATENCY: 103.4 cycles
cpu0_L1D TOTAL        ACCESS:          0 HIT:          0 MISS:          0
cpu0_L1D LOAD         ACCESS:          0 HIT:          0 MISS:          0
cpu0_L1D RFO          ACCESS:          0 HIT:          0 MISS:          0
cpu0_L1D PREFETCH     ACCESS:          0 HIT:          0 MISS:          0
cpu0_L1D WRITE        ACCESS:          0 HIT:          0 MISS:          0
cpu0_L1D TRANSLATION  ACCESS:          0 HIT:          0 MISS:          0
cpu0_L1D PREFETCH REQUESTED:          0 ISSUED:          0 USEFUL:          0 USELESS:          0
cpu0_L1D AVERAGE MISS LATENCY: 103.4 cycles
cpu0_L1D TOTAL        ACCESS:          0 HIT:          0 MISS:          0
cpu0_L1D LOAD         ACCESS:          0 HIT:          0 MISS:          0
cpu0_L1D RFO          ACCESS:          0 HIT:          0 MISS:          0
cpu0_L1D PREFETCH     ACCESS:          0 HIT:          0 MISS:          0
cpu0_L1D WRITE        ACCESS:          0 HIT:          0 MISS:          0
cpu0_L1D TRANSLATION  ACCESS:          0 HIT:          0 MISS:          0
cpu0_L1D PREFETCH REQUESTED:          0 ISSUED:          0 USEFUL:          0 USELESS:          0
cpu0_L1D AVERAGE MISS LATENCY: 103.4 cycles
cpu0_L1I TOTAL        ACCESS:    1243460 HIT:    1243460 MISS:          0
cpu0_L1I LOAD         ACCESS:    1243460 HIT:    1243460 MISS:          0
cpu0_L1I RFO          ACCESS:          0 HIT:          0 MISS:          0
cpu0_L1I PREFETCH     ACCESS:          0 HIT:          0 MISS:          0
cpu0_L1I WRITE        ACCESS:          0 HIT:          0 MISS:          0
cpu0_L1I TRANSLATION  ACCESS:          0 HIT:          0 MISS:          0
cpu0_L1I PREFETCH REQUESTED:          0 ISSUED:          0 USEFUL:          0 USELESS:          0
cpu0_L1I AVERAGE MISS LATENCY: -nan cycles
cpu0_L1I TOTAL        ACCESS:          0 HIT:          0 MISS:          0
cpu0_L1I LOAD         ACCESS:          0 HIT:          0 MISS:          0
cpu0_L1I RFO          ACCESS:          0 HIT:          0 MISS:          0
cpu0_L1I PREFETCH     ACCESS:          0 HIT:          0 MISS:          0
cpu0_L1I WRITE        ACCESS:          0 HIT:          0 MISS:          0
cpu0_L1I TRANSLATION  ACCESS:          0 HIT:          0 MISS:          0
cpu0_L1I PREFETCH REQUESTED:          0 ISSUED:          0 USEFUL:          0 USELESS:          0
cpu0_L1I AVERAGE MISS LATENCY: -nan cycles
cpu0_L1I TOTAL        ACCESS:          0 HIT:          0 MISS:          0
cpu0_L1I LOAD         ACCESS:          0 HIT:          0 MISS:          0
cpu0_L1I RFO          ACCESS:          0 HIT:          0 MISS:          0
cpu0_L1I PREFETCH     ACCESS:          0 HIT:          0 MISS:          0
cpu0_L1I WRITE        ACCESS:          0 HIT:          0 MISS:          0
cpu0_L1I TRANSLATION  ACCESS:          0 HIT:          0 MISS:          0
cpu0_L1I PREFETCH REQUESTED:          0 ISSUED:          0 USEFUL:          0 USELESS:          0
cpu0_L1I AVERAGE MISS LATENCY: -nan cycles
cpu0_L1I TOTAL        ACCESS:          0 HIT:          0 MISS:          0
cpu0_L1I LOAD         ACCESS:          0 HIT:          0 MISS:          0
cpu0_L1I RFO          ACCESS:          0 HIT:          0 MISS:          0
cpu0_L1I PREFETCH     ACCESS:          0 HIT:          0 MISS:          0
cpu0_L1I WRITE        ACCESS:          0 HIT:          0 MISS:          0
cpu0_L1I TRANSLATION  ACCESS:          0 HIT:          0 MISS:          0
cpu0_L1I PREFETCH REQUESTED:          0 ISSUED:          0 USEFUL:          0 USELESS:          0
cpu0_L1I AVERAGE MISS LATENCY: -nan cycles
cpu0_L2C TOTAL        ACCESS:      72238 HIT:      33373 MISS:      38865
cpu0_L2C LOAD         ACCESS:       6911 HIT:        425 MISS:       6486
cpu0_L2C RFO          ACCESS:      32609 HIT:        280 MISS:      32329
cpu0_L2C PREFETCH     ACCESS:          0 HIT:          0 MISS:          0
cpu0_L2C WRITE        ACCESS:      32666 HIT:      32618 MISS:         48
cpu0_L2C TRANSLATION  ACCESS:         52 HIT:         50 MISS:          2
cpu0_L2C PREFETCH REQUESTED:          0 ISSUED:          0 USEFUL:          0 USELESS:          0
cpu0_L2C AVERAGE MISS LATENCY: 663.8 cycles
cpu0_L2C TOTAL        ACCESS:          0 HIT:          0 MISS:          0
cpu0_L2C LOAD         ACCESS:          0 HIT:          0 MISS:          0
cpu0_L2C RFO          ACCESS:          0 HIT:          0 MISS:          0
cpu0_L2C PREFETCH     ACCESS:          0 HIT:          0 MISS:          0
cpu0_L2C WRITE        ACCESS:          0 HIT:          0 MISS:          0
cpu0_L2C TRANSLATION  ACCESS:          0 HIT:          0 MISS:          0
cpu0_L2C PREFETCH REQUESTED:          0 ISSUED:          0 USEFUL:          0 USELESS:          0
cpu0_L2C AVERAGE MISS LATENCY: 663.8 cycles
cpu0_L2C TOTAL        ACCESS:          0 HIT:          0 MISS:          0
cpu0_L2C LOAD         ACCESS:          0 HIT:          0 MISS:          0
cpu0_L2C RFO          ACCESS:          0 HIT:          0 MISS:          0
cpu0_L2C PREFETCH     ACCESS:          0 HIT:          0 MISS:          0
cpu0_L2C WRITE        ACCESS:          0 HIT:          0 MISS:          0
cpu0_L2C TRANSLATION  ACCESS:          0 HIT:          0 MISS:          0
cpu0_L2C PREFETCH REQUESTED:          0 ISSUED:          0 USEFUL:          0 USELESS:          0
cpu0_L2C AVERAGE MISS LATENCY: 663.8 cycles
cpu0_L2C TOTAL        ACCESS:          0 HIT:          0 MISS:          0
cpu0_L2C LOAD         ACCESS:          0 HIT:          0 MISS:          0
cpu0_L2C RFO          ACCESS:          0 HIT:          0 MISS:          0
cpu0_L2C PREFETCH     ACCESS:          0 HIT:          0 MISS:          0
cpu0_L2C WRITE        ACCESS:          0 HIT:          0 MISS:          0
cpu0_L2C TRANSLATION  ACCESS:          0 HIT:          0 MISS:          0
cpu0_L2C PREFETCH REQUESTED:          0 ISSUED:          0 USEFUL:          0 USELESS:          0
cpu0_L2C AVERAGE MISS LATENCY: 663.8 cycles
cpu0_STLB TOTAL        ACCESS:        648 HIT:         41 MISS:        607
cpu0_STLB LOAD         ACCESS:        648 HIT:         41 MISS:        607
cpu0_STLB RFO          ACCESS:          0 HIT:          0 MISS:          0
cpu0_STLB PREFETCH     ACCESS:          0 HIT:          0 MISS:          0
cpu0_STLB WRITE        ACCESS:          0 HIT:          0 MISS:          0
cpu0_STLB TRANSLATION  ACCESS:          0 HIT:          0 MISS:          0
cpu0_STLB PREFETCH REQUESTED:          0 ISSUED:          0 USEFUL:          0 USELESS:          0
cpu0_STLB AVERAGE MISS LATENCY: 210.6 cycles
cpu0_STLB TOTAL        ACCESS:          0 HIT:          0 MISS:          0
cpu0_STLB LOAD         ACCESS:          0 HIT:          0 MISS:          0
cpu0_STLB RFO          ACCESS:          0 HIT:          0 MISS:          0
cpu0_STLB PREFETCH     ACCESS:          0 HIT:          0 MISS:          0
cpu0_STLB WRITE        ACCESS:          0 HIT:          0 MISS:          0
cpu0_STLB TRANSLATION  ACCESS:          0 HIT:          0 MISS:          0
cpu0_STLB PREFETCH REQUESTED:          0 ISSUED:          0 USEFUL:          0 USELESS:          0
cpu0_STLB AVERAGE MISS LATENCY: 210.6 cycles
cpu0_STLB TOTAL        ACCESS:          0 HIT:          0 MISS:          0
cpu0_STLB LOAD         ACCESS:          0 HIT:          0 MISS:          0
cpu0_STLB RFO          ACCESS:          0 HIT:          0 MISS:          0
cpu0_STLB PREFETCH     ACCESS:          0 HIT:          0 MISS:          0
cpu0_STLB WRITE        ACCESS:          0 HIT:          0 MISS:          0
cpu0_STLB TRANSLATION  ACCESS:          0 HIT:          0 MISS:          0
cpu0_STLB PREFETCH REQUESTED:          0 ISSUED:          0 USEFUL:          0 USELESS:          0
cpu0_STLB AVERAGE MISS LATENCY: 210.6 cycles
cpu0_STLB TOTAL        ACCESS:          0 HIT:          0 MISS:          0
cpu0_STLB LOAD         ACCESS:          0 HIT:          0 MISS:          0
cpu0_STLB RFO          ACCESS:          0 HIT:          0 MISS:          0
cpu0_STLB PREFETCH     ACCESS:          0 HIT:          0 MISS:          0
cpu0_STLB WRITE        ACCESS:          0 HIT:          0 MISS:          0
cpu0_STLB TRANSLATION  ACCESS:          0 HIT:          0 MISS:          0
cpu0_STLB PREFETCH REQUESTED:          0 ISSUED:          0 USEFUL:          0 USELESS:          0
cpu0_STLB AVERAGE MISS LATENCY: 210.6 cycles
cpu1_DTLB TOTAL        ACCESS:          0 HIT:          0 MISS:          0
cpu1_DTLB LOAD         ACCESS:          0 HIT:          0 MISS:          0
cpu1_DTLB RFO          ACCESS:          0 HIT:          0 MISS:          0
cpu1_DTLB PREFETCH     ACCESS:          0 HIT:          0 MISS:          0
cpu1_DTLB WRITE        ACCESS:          0 HIT:          0 MISS:          0
cpu1_DTLB TRANSLATION  ACCESS:          0 HIT:          0 MISS:          0
cpu1_DTLB PREFETCH REQUESTED:          0 ISSUED:          0 USEFUL:          0 USELESS:          0
cpu1_DTLB AVERAGE MISS LATENCY: 48.55 cycles
cpu1_DTLB TOTAL        ACCESS:   48419626 HIT:   48414473 MISS:       5153
cpu1_DTLB LOAD         ACCESS:   48419626 HIT:   48414473 MISS:       5153
cpu1_DTLB RFO          ACCESS:          0 HIT:          0 MISS:          0
cpu1_DTLB PREFETCH     ACCESS:          0 HIT:          0 MISS:          0
cpu1_DTLB WRITE        ACCESS:          0 HIT:          0 MISS:          0
cpu1_DTLB TRANSLATION  ACCESS:          0 HIT:          0 MISS:          0
cpu1_DTLB PREFETCH REQUESTED:          0 ISSUED:          0 USEFUL:          0 USELESS:          0
cpu1_DTLB AVERAGE MISS LATENCY: 48.55 cycles
cpu1_DTLB TOTAL        ACCESS:          0 HIT:          0 MISS:          0
cpu1_DTLB LOAD         ACCESS:          0 HIT:          0 MISS:          0
cpu1_DTLB RFO          ACCESS:          0 HIT:          0 MISS:          0
cpu1_DTLB PREFETCH     ACCESS:          0 HIT:          0 MISS:          0
cpu1_DTLB WRITE        ACCESS:          0 HIT:          0 MISS:          0
cpu1_DTLB TRANSLATION  ACCESS:          0 HIT:          0 MISS:          0
cpu1_DTLB PREFETCH REQUESTED:          0 ISSUED:          0 USEFUL:          0 USELESS:          0
cpu1_DTLB AVERAGE MISS LATENCY: 48.55 cycles
cpu1_DTLB TOTAL        ACCESS:          0 HIT:          0 MISS:          0
cpu1_DTLB LOAD         ACCESS:          0 HIT:          0 MISS:          0
cpu1_DTLB RFO          ACCESS:          0 HIT:          0 MISS:          0
cpu1_DTLB PREFETCH     ACCESS:          0 HIT:          0 MISS:          0
cpu1_DTLB WRITE        ACCESS:          0 HIT:          0 MISS:          0
cpu1_DTLB TRANSLATION  ACCESS:          0 HIT:          0 MISS:          0
cpu1_DTLB PREFETCH REQUESTED:          0 ISSUED:          0 USEFUL:          0 USELESS:          0
cpu1_DTLB AVERAGE MISS LATENCY: 48.55 cycles
cpu1_ITLB TOTAL        ACCESS:          0 HIT:          0 MISS:          0
cpu1_ITLB LOAD         ACCESS:          0 HIT:          0 MISS:          0
cpu1_ITLB RFO          ACCESS:          0 HIT:          0 MISS:          0
cpu1_ITLB PREFETCH     ACCESS:          0 HIT:          0 MISS:          0
cpu1_ITLB WRITE        ACCESS:          0 HIT:          0 MISS:          0
cpu1_ITLB TRANSLATION  ACCESS:          0 HIT:          0 MISS:          0
cpu1_ITLB PREFETCH REQUESTED:          0 ISSUED:          0 USEFUL:          0 USELESS:          0
cpu1_ITLB AVERAGE MISS LATENCY: -nan cycles
cpu1_ITLB TOTAL        ACCESS:    3719497 HIT:    3719497 MISS:          0
cpu1_ITLB LOAD         ACCESS:    3719497 HIT:    3719497 MISS:          0
cpu1_ITLB RFO          ACCESS:          0 HIT:          0 MISS:          0
cpu1_ITLB PREFETCH     ACCESS:          0 HIT:          0 MISS:          0
cpu1_ITLB WRITE        ACCESS:          0 HIT:          0 MISS:          0
cpu1_ITLB TRANSLATION  ACCESS:          0 HIT:          0 MISS:          0
cpu1_ITLB PREFETCH REQUESTED:          0 ISSUED:          0 USEFUL:          0 USELESS:          0
cpu1_ITLB AVERAGE MISS LATENCY: -nan cycles
cpu1_ITLB TOTAL        ACCESS:          0 HIT:          0 MISS:          0
cpu1_ITLB LOAD         ACCESS:          0 HIT:          0 MISS:          0
cpu1_ITLB RFO          ACCESS:          0 HIT:          0 MISS:          0
cpu1_ITLB PREFETCH     ACCESS:          0 HIT:          0 MISS:          0
cpu1_ITLB WRITE        ACCESS:          0 HIT:          0 MISS:          0
cpu1_ITLB TRANSLATION  ACCESS:          0 HIT:          0 MISS:          0
cpu1_ITLB PREFETCH REQUESTED:          0 ISSUED:          0 USEFUL:          0 USELESS:          0
cpu1_ITLB AVERAGE MISS LATENCY: -nan cycles
cpu1_ITLB TOTAL        ACCESS:          0 HIT:          0 MISS:          0
cpu1_ITLB LOAD         ACCESS:          0 HIT:          0 MISS:          0
cpu1_ITLB RFO          ACCESS:          0 HIT:          0 MISS:          0
cpu1_ITLB PREFETCH     ACCESS:          0 HIT:          0 MISS:          0
cpu1_ITLB WRITE        ACCESS:          0 HIT:          0 MISS:          0
cpu1_ITLB TRANSLATION  ACCESS:          0 HIT:          0 MISS:          0
cpu1_ITLB PREFETCH REQUESTED:          0 ISSUED:          0 USEFUL:          0 USELESS:          0
cpu1_ITLB AVERAGE MISS LATENCY: -nan cycles
cpu1_L1D TOTAL        ACCESS:          0 HIT:          0 MISS:          0
cpu1_L1D LOAD         ACCESS:          0 HIT:          0 MISS:          0
cpu1_L1D RFO          ACCESS:          0 HIT:          0 MISS:          0
cpu1_L1D PREFETCH     ACCESS:          0 HIT:          0 MISS:          0
cpu1_L1D WRITE        ACCESS:          0 HIT:          0 MISS:          0
cpu1_L1D TRANSLATION  ACCESS:          0 HIT:          0 MISS:          0
cpu1_L1D PREFETCH REQUESTED:          0 ISSUED:          0 USEFUL:          0 USELESS:          0
cpu1_L1D AVERAGE MISS LATENCY: 171.3 cycles
cpu1_L1D TOTAL        ACCESS:   66761070 HIT:   66664670 MISS:      96400
cpu1_L1D LOAD         ACCESS:   38139722 HIT:   38095844 MISS:      43878
cpu1_L1D RFO          ACCESS:          0 HIT:          0 MISS:          0
cpu1_L1D PREFETCH     ACCESS:          0 HIT:          0 MISS:          0
cpu1_L1D WRITE        ACCESS:   28620160 HIT:   28567770 MISS:      52390
cpu1_L1D TRANSLATION  ACCESS:       1188 HIT:       1056 MISS:        132
cpu1_L1D PREFETCH REQUESTED:          0 ISSUED:          0 USEFUL:          0 USELESS:          0
cpu1_L1D AVERAGE MISS LATENCY: 171.3 cycles
cpu1_L1D TOTAL        ACCESS:          0 HIT:          0 MISS:          0
cpu1_L1D LOAD         ACCESS:          0 HIT:          0 MISS:          0
cpu1_L1D RFO          ACCESS:          0 HIT:          0 MISS:          0
cpu1_L1D PREFETCH     ACCESS:          0 HIT:          0 MISS:          0
cpu1_L1D WRITE        ACCESS:          0 HIT:          0 MISS:          0
cpu1_L1D TRANSLATION  ACCESS:          0 HIT:          0 MISS:          0
cpu1_L1D PREFETCH REQUESTED:          0 ISSUED:          0 USEFUL:          0 USELESS:          0
cpu1_L1D AVERAGE MISS LATENCY: 171.3 cycles
cpu1_L1D TOTAL        ACCESS:          0 HIT:          0 MISS:          0
cpu1_L1D LOAD         ACCESS:          0 HIT:          0 MISS:          0
cpu1_L1D RFO          ACCESS:          0 HIT:          0 MISS:          0
cpu1_L1D PREFETCH     ACCESS:          0 HIT:          0 MISS:          0
cpu1_L1D WRITE        ACCESS:          0 HIT:          0 MISS:          0
cpu1_L1D TRANSLATION  ACCESS:          0 HIT:          0 MISS:          0
cpu1_L1D PREFETCH REQUESTED:          0 ISSUED:          0 USEFUL:          0 USELESS:          0
cpu1_L1D AVERAGE MISS LATENCY: 171.3 cycles
cpu1_L1I TOTAL        ACCESS:          0 HIT:          0 MISS:          0
cpu1_L1I LOAD         ACCESS:          0 HIT:          0 MISS:          0
cpu1_L1I RFO          ACCESS:          0 HIT:          0 MISS:          0
cpu1_L1I PREFETCH     ACCESS:          0 HIT:          0 MISS:          0
cpu1_L1I WRITE        ACCESS:          0 HIT:          0 MISS:          0
cpu1_L1I TRANSLATION  ACCESS:          0 HIT:          0 MISS:          0
cpu1_L1I PREFETCH REQUESTED:          0 ISSUED:          0 USEFUL:          0 USELESS:          0
cpu1_L1I AVERAGE MISS LATENCY: -nan cycles
cpu1_L1I TOTAL        ACCESS:    4526724 HIT:    4526724 MISS:          0
cpu1_L1I LOAD         ACCESS:    4526724 HIT:    4526724 MISS:          0
cpu1_L1I RFO          ACCESS:          0 HIT:          0 MISS:          0
cpu1_L1I PREFETCH     ACCESS:          0 HIT:          0 MISS:          0
cpu1_L1I WRITE        ACCESS:          0 HIT:          0 MISS:          0
cpu1_L1I TRANSLATION  ACCESS:          0 HIT:          0 MISS:          0
cpu1_L1I PREFETCH REQUESTED:          0 ISSUED:          0 USEFUL:          0 USELESS:          0
cpu1_L1I AVERAGE MISS LATENCY: -nan cycles
cpu1_L1I TOTAL        ACCESS:          0 HIT:          0 MISS:          0
cpu1_L1I LOAD         ACCESS:          0 HIT:          0 MISS:          0
cpu1_L1I RFO          ACCESS:          0 HIT:          0 MISS:          0
cpu1_L1I PREFETCH     ACCESS:          0 HIT:          0 MISS:          0
cpu1_L1I WRITE        ACCESS:          0 HIT:          0 MISS:          0
cpu1_L1I TRANSLATION  ACCESS:          0 HIT:          0 MISS:          0
cpu1_L1I PREFETCH REQUESTED:          0 ISSUED:          0 USEFUL:          0 USELESS:          0
cpu1_L1I AVERAGE MISS LATENCY: -nan cycles
cpu1_L1I TOTAL        ACCESS:          0 HIT:          0 MISS:          0
cpu1_L1I LOAD         ACCESS:          0 HIT:          0 MISS:          0
cpu1_L1I RFO          ACCESS:          0 HIT:          0 MISS:          0
cpu1_L1I PREFETCH     ACCESS:          0 HIT:          0 MISS:          0
cpu1_L1I WRITE        ACCESS:          0 HIT:          0 MISS:          0
cpu1_L1I TRANSLATION  ACCESS:          0 HIT:          0 MISS:          0
cpu1_L1I PREFETCH REQUESTED:          0 ISSUED:          0 USEFUL:          0 USELESS:          0
cpu1_L1I AVERAGE MISS LATENCY: -nan cycles
cpu1_L2C TOTAL        ACCESS:          0 HIT:          0 MISS:          0
cpu1_L2C LOAD         ACCESS:          0 HIT:          0 MISS:          0
cpu1_L2C RFO          ACCESS:          0 HIT:          0 MISS:          0
cpu1_L2C PREFETCH     ACCESS:          0 HIT:          0 MISS:          0
cpu1_L2C WRITE        ACCESS:          0 HIT:          0 MISS:          0
cpu1_L2C TRANSLATION  ACCESS:          0 HIT:          0 MISS:          0
cpu1_L2C PREFETCH REQUESTED:          0 ISSUED:          0 USEFUL:          0 USELESS:          0
cpu1_L2C AVERAGE MISS LATENCY: 373.5 cycles
cpu1_L2C TOTAL        ACCESS:      78678 HIT:      23760 MISS:      54918
cpu1_L2C LOAD         ACCESS:      33199 HIT:        242 MISS:      32957
cpu1_L2C RFO          ACCESS:      22657 HIT:        828 MISS:      21829
cpu1_L2C PREFETCH     ACCESS:          0 HIT:          0 MISS:          0
cpu1_L2C WRITE        ACCESS:      22690 HIT:      22690 MISS:          0
cpu1_L2C TRANSLATION  ACCESS:        132 HIT:          0 MISS:        132
cpu1_L2C PREFETCH REQUESTED:          0 ISSUED:          0 USEFUL:          0 USELESS:          0
cpu1_L2C AVERAGE MISS LATENCY: 373.5 cycles
cpu1_L2C TOTAL        ACCESS:          0 HIT:          0 MISS:          0
cpu1_L2C LOAD         ACCESS:          0 HIT:          0 MISS:          0
cpu1_L2C RFO          ACCESS:          0 HIT:          0 MISS:          0
cpu1_L2C PREFETCH     ACCESS:          0 HIT:          0 MISS:          0
cpu1_L2C WRITE        ACCESS:          0 HIT:          0 MISS:          0
cpu1_L2C TRANSLATION  ACCESS:          0 HIT:          0 MISS:          0
cpu1_L2C PREFETCH REQUESTED:          0 ISSUED:          0 USEFUL:          0 USELESS:          0
cpu1_L2C AVERAGE MISS LATENCY: 373.5 cycles
cpu1_L2C TOTAL        ACCESS:          0 HIT:          0 MISS:          0
cpu1_L2C LOAD         ACCESS:          0 HIT:          0 MISS:          0
cpu1_L2C RFO          ACCESS:          0 HIT:          0 MISS:          0
cpu1_L2C PREFETCH     ACCESS:          0 HIT:          0 MISS:          0
cpu1_L2C WRITE        ACCESS:          0 HIT:          0 MISS:          0
cpu1_L2C TRANSLATION  ACCESS:          0 HIT:          0 MISS:          0
cpu1_L2C PREFETCH REQUESTED:          0 ISSUED:          0 USEFUL:          0 USELESS:          0
cpu1_L2C AVERAGE MISS LATENCY: 373.5 cycles
cpu1_STLB TOTAL        ACCESS:          0 HIT:          0 MISS:          0
cpu1_STLB LOAD         ACCESS:          0 HIT:          0 MISS:          0
cpu1_STLB RFO          ACCESS:          0 HIT:          0 MISS:          0
cpu1_STLB PREFETCH     ACCESS:          0 HIT:          0 MISS:          0
cpu1_STLB WRITE        ACCESS:          0 HIT:          0 MISS:          0
cpu1_STLB TRANSLATION  ACCESS:          0 HIT:          0 MISS:          0
cpu1_STLB PREFETCH REQUESTED:          0 ISSUED:          0 USEFUL:          0 USELESS:          0
cpu1_STLB AVERAGE MISS LATENCY: 250.3 cycles
cpu1_STLB TOTAL        ACCESS:       1269 HIT:         83 MISS:       1186
cpu1_STLB LOAD         ACCESS:       1269 HIT:         83 MISS:       1186
cpu1_STLB RFO          ACCESS:          0 HIT:          0 MISS:          0
cpu1_STLB PREFETCH     ACCESS:          0 HIT:          0 MISS:          0
cpu1_STLB WRITE        ACCESS:          0 HIT:          0 MISS:          0
cpu1_STLB TRANSLATION  ACCESS:          0 HIT:          0 MISS:          0
cpu1_STLB PREFETCH REQUESTED:          0 ISSUED:          0 USEFUL:          0 USELESS:          0
cpu1_STLB AVERAGE MISS LATENCY: 250.3 cycles
cpu1_STLB TOTAL        ACCESS:          0 HIT:          0 MISS:          0
cpu1_STLB LOAD         ACCESS:          0 HIT:          0 MISS:          0
cpu1_STLB RFO          ACCESS:          0 HIT:          0 MISS:          0
cpu1_STLB PREFETCH     ACCESS:          0 HIT:          0 MISS:          0
cpu1_STLB WRITE        ACCESS:          0 HIT:          0 MISS:          0
cpu1_STLB TRANSLATION  ACCESS:          0 HIT:          0 MISS:          0
cpu1_STLB PREFETCH REQUESTED:          0 ISSUED:          0 USEFUL:          0 USELESS:          0
cpu1_STLB AVERAGE MISS LATENCY: 250.3 cycles
cpu1_STLB TOTAL        ACCESS:          0 HIT:          0 MISS:          0
cpu1_STLB LOAD         ACCESS:          0 HIT:          0 MISS:          0
cpu1_STLB RFO          ACCESS:          0 HIT:          0 MISS:          0
cpu1_STLB PREFETCH     ACCESS:          0 HIT:          0 MISS:          0
cpu1_STLB WRITE        ACCESS:          0 HIT:          0 MISS:          0
cpu1_STLB TRANSLATION  ACCESS:          0 HIT:          0 MISS:          0
cpu1_STLB PREFETCH REQUESTED:          0 ISSUED:          0 USEFUL:          0 USELESS:          0
cpu1_STLB AVERAGE MISS LATENCY: 250.3 cycles
cpu2_DTLB TOTAL        ACCESS:          0 HIT:          0 MISS:          0
cpu2_DTLB LOAD         ACCESS:          0 HIT:          0 MISS:          0
cpu2_DTLB RFO          ACCESS:          0 HIT:          0 MISS:          0
cpu2_DTLB PREFETCH     ACCESS:          0 HIT:          0 MISS:          0
cpu2_DTLB WRITE        ACCESS:          0 HIT:          0 MISS:          0
cpu2_DTLB TRANSLATION  ACCESS:          0 HIT:          0 MISS:          0
cpu2_DTLB PREFETCH REQUESTED:          0 ISSUED:          0 USEFUL:          0 USELESS:          0
cpu2_DTLB AVERAGE MISS LATENCY: 25.91 cycles
cpu2_DTLB TOTAL        ACCESS:          0 HIT:          0 MISS:          0
cpu2_DTLB LOAD         ACCESS:          0 HIT:          0 MISS:          0
cpu2_DTLB RFO          ACCESS:          0 HIT:          0 MISS:          0
cpu2_DTLB PREFETCH     ACCESS:          0 HIT:          0 MISS:          0
cpu2_DTLB WRITE        ACCESS:          0 HIT:          0 MISS:          0
cpu2_DTLB TRANSLATION  ACCESS:          0 HIT:          0 MISS:          0
cpu2_DTLB PREFETCH REQUESTED:          0 ISSUED:          0 USEFUL:          0 USELESS:          0
cpu2_DTLB AVERAGE MISS LATENCY: 25.91 cycles
cpu2_DTLB TOTAL        ACCESS:   17447120 HIT:   17335300 MISS:     111820
cpu2_DTLB LOAD         ACCESS:   17447120 HIT:   17335300 MISS:     111820
cpu2_DTLB RFO          ACCESS:          0 HIT:          0 MISS:          0
cpu2_DTLB PREFETCH     ACCESS:          0 HIT:          0 MISS:          0
cpu2_DTLB WRITE        ACCESS:          0 HIT:          0 MISS:          0
cpu2_DTLB TRANSLATION  ACCESS:          0 HIT:          0 MISS:          0
cpu2_DTLB PREFETCH REQUESTED:          0 ISSUED:          0 USEFUL:          0 USELESS:          0
cpu2_DTLB AVERAGE MISS LATENCY: 25.91 cycles
cpu2_DTLB TOTAL        ACCESS:          0 HIT:          0 MISS:          0
cpu2_DTLB LOAD         ACCESS:          0 HIT:          0 MISS:          0
cpu2_DTLB RFO          ACCESS:          0 HIT:          0 MISS:          0
cpu2_DTLB PREFETCH     ACCESS:          0 HIT:          0 MISS:          0
cpu2_DTLB WRITE        ACCESS:          0 HIT:          0 MISS:          0
cpu2_DTLB TRANSLATION  ACCESS:          0 HIT:          0 MISS:          0
cpu2_DTLB PREFETCH REQUESTED:          0 ISSUED:          0 USEFUL:          0 USELESS:          0
cpu2_DTLB AVERAGE MISS LATENCY: 25.91 cycles
cpu2_ITLB TOTAL        ACCESS:          0 HIT:          0 MISS:          0
cpu2_ITLB LOAD         ACCESS:          0 HIT:          0 MISS:          0
cpu2_ITLB RFO          ACCESS:          0 HIT:          0 MISS:          0
cpu2_ITLB PREFETCH     ACCESS:          0 HIT:          0 MISS:          0
cpu2_ITLB WRITE        ACCESS:          0 HIT:          0 MISS:          0
cpu2_ITLB TRANSLATION  ACCESS:          0 HIT:          0 MISS:          0
cpu2_ITLB PREFETCH REQUESTED:          0 ISSUED:          0 USEFUL:          0 USELESS:          0
cpu2_ITLB AVERAGE MISS LATENCY: -nan cycles
cpu2_ITLB TOTAL        ACCESS:          0 HIT:          0 MISS:          0
cpu2_ITLB LOAD         ACCESS:          0 HIT:          0 MISS:          0
cpu2_ITLB RFO          ACCESS:          0 HIT:          0 MISS:          0
cpu2_ITLB PREFETCH     ACCESS:          0 HIT:          0 MISS:          0
cpu2_ITLB WRITE        ACCESS:          0 HIT:          0 MISS:          0
cpu2_ITLB TRANSLATION  ACCESS:          0 HIT:          0 MISS:          0
cpu2_ITLB PREFETCH REQUESTED:          0 ISSUED:          0 USEFUL:          0 USELESS:          0
cpu2_ITLB AVERAGE MISS LATENCY: -nan cycles
cpu2_ITLB TOTAL        ACCESS:          0 HIT:          0 MISS:          0
cpu2_ITLB LOAD         ACCESS:          0 HIT:          0 MISS:          0
cpu2_ITLB RFO          ACCESS:          0 HIT:          0 MISS:          0
cpu2_ITLB PREFETCH     ACCESS:          0 HIT:          0 MISS:          0
cpu2_ITLB WRITE        ACCESS:          0 HIT:          0 MISS:          0
cpu2_ITLB TRANSLATION  ACCESS:          0 HIT:          0 MISS:          0
cpu2_ITLB PREFETCH REQUESTED:          0 ISSUED:          0 USEFUL:          0 USELESS:          0
cpu2_ITLB AVERAGE MISS LATENCY: -nan cycles
cpu2_ITLB TOTAL        ACCESS:          0 HIT:          0 MISS:          0
cpu2_ITLB LOAD         ACCESS:          0 HIT:          0 MISS:          0
cpu2_ITLB RFO          ACCESS:          0 HIT:          0 MISS:          0
cpu2_ITLB PREFETCH     ACCESS:          0 HIT:          0 MISS:          0
cpu2_ITLB WRITE        ACCESS:          0 HIT:          0 MISS:          0
cpu2_ITLB TRANSLATION  ACCESS:          0 HIT:          0 MISS:          0
cpu2_ITLB PREFETCH REQUESTED:          0 ISSUED:          0 USEFUL:          0 USELESS:          0
cpu2_ITLB AVERAGE MISS LATENCY: -nan cycles
cpu2_L1D TOTAL        ACCESS:          0 HIT:          0 MISS:          0
cpu2_L1D LOAD         ACCESS:          0 HIT:          0 MISS:          0
cpu2_L1D RFO          ACCESS:          0 HIT:          0 MISS:          0
cpu2_L1D PREFETCH     ACCESS:          0 HIT:          0 MISS:          0
cpu2_L1D WRITE        ACCESS:          0 HIT:          0 MISS:          0
cpu2_L1D TRANSLATION  ACCESS:          0 HIT:          0 MISS:          0
cpu2_L1D PREFETCH REQUESTED:          0 ISSUED:          0 USEFUL:          0 USELESS:          0
cpu2_L1D AVERAGE MISS LATENCY: 97.47 cycles
cpu2_L1D TOTAL        ACCESS:          0 HIT:          0 MISS:          0
cpu2_L1D LOAD         ACCESS:          0 HIT:          0 MISS:          0
cpu2_L1D RFO          ACCESS:          0 HIT:          0 MISS:          0
cpu2_L1D PREFETCH     ACCESS:          0 HIT:          0 MISS:          0
cpu2_L1D WRITE        ACCESS:          0 HIT:          0 MISS:          0
cpu2_L1D TRANSLATION  ACCESS:          0 HIT:          0 MISS:          0
cpu2_L1D PREFETCH REQUESTED:          0 ISSUED:          0 USEFUL:          0 USELESS:          0
cpu2_L1D AVERAGE MISS LATENCY: 97.47 cycles
cpu2_L1D TOTAL        ACCESS:   25007760 HIT:   21318474 MISS:    3689286
cpu2_L1D LOAD         ACCESS:   14456272 HIT:   10775708 MISS:    3680564
cpu2_L1D RFO          ACCESS:          0 HIT:          0 MISS:          0
cpu2_L1D PREFETCH     ACCESS:          0 HIT:          0 MISS:          0
cpu2_L1D WRITE        ACCESS:   10530828 HIT:   10522919 MISS:       7909
cpu2_L1D TRANSLATION  ACCESS:      20660 HIT:      19847 MISS:        813
cpu2_L1D PREFETCH REQUESTED:          0 ISSUED:          0 USEFUL:          0 USELESS:          0
cpu2_L1D AVERAGE MISS LATENCY: 97.47 cycles
cpu2_L1D TOTAL        ACCESS:          0 HIT:          0 MISS:          0
cpu2_L1D LOAD         ACCESS:          0 HIT:          0 MISS:          0
cpu2_L1D RFO          ACCESS:          0 HIT:          0 MISS:          0
cpu2_L1D PREFETCH     ACCESS:          0 HIT:          0 MISS:          0
cpu2_L1D WRITE        ACCESS:          0 HIT:          0 MISS:          0
cpu2_L1D TRANSLATION  ACCESS:          0 HIT:          0 MISS:          0
cpu2_L1D PREFETCH REQUESTED:          0 ISSUED:          0 USEFUL:          0 USELESS:          0
cpu2_L1D AVERAGE MISS LATENCY: 97.47 cycles
cpu2_L1I TOTAL        ACCESS:          0 HIT:          0 MISS:          0
cpu2_L1I LOAD         ACCESS:          0 HIT:          0 MISS:          0
cpu2_L1I RFO          ACCESS:          0 HIT:          0 MISS:          0
cpu2_L1I PREFETCH     ACCESS:          0 HIT:          0 MISS:          0
cpu2_L1I WRITE        ACCESS:          0 HIT:          0 MISS:          0
cpu2_L1I TRANSLATION  ACCESS:          0 HIT:          0 MISS:          0
cpu2_L1I PREFETCH REQUESTED:          0 ISSUED:          0 USEFUL:          0 USELESS:          0
cpu2_L1I AVERAGE MISS LATENCY: -nan cycles
cpu2_L1I TOTAL        ACCESS:          0 HIT:          0 MISS:          0
cpu2_L1I LOAD         ACCESS:          0 HIT:          0 MISS:          0
cpu2_L1I RFO          ACCESS:          0 HIT:          0 MISS:          0
cpu2_L1I PREFETCH     ACCESS:          0 HIT:          0 MISS:          0
cpu2_L1I WRITE        ACCESS:          0 HIT:          0 MISS:          0
cpu2_L1I TRANSLATION  ACCESS:          0 HIT:          0 MISS:          0
cpu2_L1I PREFETCH REQUESTED:          0 ISSUED:          0 USEFUL:          0 USELESS:          0
cpu2_L1I AVERAGE MISS LATENCY: -nan cycles
cpu2_L1I TOTAL        ACCESS:          0 HIT:          0 MISS:          0
cpu2_L1I LOAD         ACCESS:          0 HIT:          0 MISS:          0
cpu2_L1I RFO          ACCESS:          0 HIT:          0 MISS:          0
cpu2_L1I PREFETCH     ACCESS:          0 HIT:          0 MISS:          0
cpu2_L1I WRITE        ACCESS:          0 HIT:          0 MISS:          0
cpu2_L1I TRANSLATION  ACCESS:          0 HIT:          0 MISS:          0
cpu2_L1I PREFETCH REQUESTED:          0 ISSUED:          0 USEFUL:          0 USELESS:          0
cpu2_L1I AVERAGE MISS LATENCY: -nan cycles
cpu2_L1I TOTAL        ACCESS:          0 HIT:          0 MISS:          0
cpu2_L1I LOAD         ACCESS:          0 HIT:          0 MISS:          0
cpu2_L1I RFO          ACCESS:          0 HIT:          0 MISS:          0
cpu2_L1I PREFETCH     ACCESS:          0 HIT:          0 MISS:          0
cpu2_L1I WRITE        ACCESS:          0 HIT:          0 MISS:          0
cpu2_L1I TRANSLATION  ACCESS:          0 HIT:          0 MISS:          0
cpu2_L1I PREFETCH REQUESTED:          0 ISSUED:          0 USEFUL:          0 USELESS:          0
cpu2_L1I AVERAGE MISS LATENCY: -nan cycles
cpu2_L2C TOTAL        ACCESS:          0 HIT:          0 MISS:          0
cpu2_L2C LOAD         ACCESS:          0 HIT:          0 MISS:          0
cpu2_L2C RFO          ACCESS:          0 HIT:          0 MISS:          0
cpu2_L2C PREFETCH     ACCESS:          0 HIT:          0 MISS:          0
cpu2_L2C WRITE        ACCESS:          0 HIT:          0 MISS:          0
cpu2_L2C TRANSLATION  ACCESS:          0 HIT:          0 MISS:          0
cpu2_L2C PREFETCH REQUESTED:          0 ISSUED:          0 USEFUL:          0 USELESS:          0
cpu2_L2C AVERAGE MISS LATENCY: 301.1 cycles
cpu2_L2C TOTAL        ACCESS:          0 HIT:          0 MISS:          0
cpu2_L2C LOAD         ACCESS:          0 HIT:          0 MISS:          0
cpu2_L2C RFO          ACCESS:          0 HIT:          0 MISS:          0
cpu2_L2C PREFETCH     ACCESS:          0 HIT:          0 MISS:          0
cpu2_L2C WRITE        ACCESS:          0 HIT:          0 MISS:          0
cpu2_L2C TRANSLATION  ACCESS:          0 HIT:          0 MISS:          0
cpu2_L2C PREFETCH REQUESTED:          0 ISSUED:          0 USEFUL:          0 USELESS:          0
cpu2_L2C AVERAGE MISS LATENCY: 301.1 cycles
cpu2_L2C TOTAL        ACCESS:    3303633 HIT:    1932988 MISS:    1370645
cpu2_L2C LOAD         ACCESS:    1982771 HIT:     612667 MISS:    1370104
cpu2_L2C RFO          ACCESS:       2303 HIT:       2043 MISS:        260
cpu2_L2C PREFETCH     ACCESS:          0 HIT:          0 MISS:          0
cpu2_L2C WRITE        ACCESS:    1317750 HIT:    1317750 MISS:          0
cpu2_L2C TRANSLATION  ACCESS:        809 HIT:        528 MISS:        281
cpu2_L2C PREFETCH REQUESTED:          0 ISSUED:          0 USEFUL:          0 USELESS:          0
cpu2_L2C AVERAGE MISS LATENCY: 301.1 cycles
cpu2_L2C TOTAL        ACCESS:          0 HIT:          0 MISS:          0
cpu2_L2C LOAD         ACCESS:          0 HIT:          0 MISS:          0
cpu2_L2C RFO          ACCESS:          0 HIT:          0 MISS:          0
cpu2_L2C PREFETCH     ACCESS:          0 HIT:          0 MISS:          0
cpu2_L2C WRITE        ACCESS:          0 HIT:          0 MISS:          0
cpu2_L2C TRANSLATION  ACCESS:          0 HIT:          0 MISS:          0
cpu2_L2C PREFETCH REQUESTED:          0 ISSUED:          0 USEFUL:          0 USELESS:          0
cpu2_L2C AVERAGE MISS LATENCY: 301.1 cycles
cpu2_STLB TOTAL        ACCESS:          0 HIT:          0 MISS:          0
cpu2_STLB LOAD         ACCESS:          0 HIT:          0 MISS:          0
cpu2_STLB RFO          ACCESS:          0 HIT:          0 MISS:          0
cpu2_STLB PREFETCH     ACCESS:          0 HIT:          0 MISS:          0
cpu2_STLB WRITE        ACCESS:          0 HIT:          0 MISS:          0
cpu2_STLB TRANSLATION  ACCESS:          0 HIT:          0 MISS:          0
cpu2_STLB PREFETCH REQUESTED:          0 ISSUED:          0 USEFUL:          0 USELESS:          0
cpu2_STLB AVERAGE MISS LATENCY: 209.6 cycles
cpu2_STLB TOTAL        ACCESS:          0 HIT:          0 MISS:          0
cpu2_STLB LOAD         ACCESS:          0 HIT:          0 MISS:          0
cpu2_STLB RFO          ACCESS:          0 HIT:          0 MISS:          0
cpu2_STLB PREFETCH     ACCESS:          0 HIT:          0 MISS:          0
cpu2_STLB WRITE        ACCESS:          0 HIT:          0 MISS:          0
cpu2_STLB TRANSLATION  ACCESS:          0 HIT:          0 MISS:          0
cpu2_STLB PREFETCH REQUESTED:          0 ISSUED:          0 USEFUL:          0 USELESS:          0
cpu2_STLB AVERAGE MISS LATENCY: 209.6 cycles
cpu2_STLB TOTAL        ACCESS:      35098 HIT:      14515 MISS:      20583
cpu2_STLB LOAD         ACCESS:      35098 HIT:      14515 MISS:      20583
cpu2_STLB RFO          ACCESS:          0 HIT:          0 MISS:          0
cpu2_STLB PREFETCH     ACCESS:          0 HIT:          0 MISS:          0
cpu2_STLB WRITE        ACCESS:          0 HIT:          0 MISS:          0
cpu2_STLB TRANSLATION  ACCESS:          0 HIT:          0 MISS:          0
cpu2_STLB PREFETCH REQUESTED:          0 ISSUED:          0 USEFUL:          0 USELESS:          0
cpu2_STLB AVERAGE MISS LATENCY: 209.6 cycles
cpu2_STLB TOTAL        ACCESS:          0 HIT:          0 MISS:          0
cpu2_STLB LOAD         ACCESS:          0 HIT:          0 MISS:          0
cpu2_STLB RFO          ACCESS:          0 HIT:          0 MISS:          0
cpu2_STLB PREFETCH     ACCESS:          0 HIT:          0 MISS:          0
cpu2_STLB WRITE        ACCESS:          0 HIT:          0 MISS:          0
cpu2_STLB TRANSLATION  ACCESS:          0 HIT:          0 MISS:          0
cpu2_STLB PREFETCH REQUESTED:          0 ISSUED:          0 USEFUL:          0 USELESS:          0
cpu2_STLB AVERAGE MISS LATENCY: 209.6 cycles
cpu3_DTLB TOTAL        ACCESS:          0 HIT:          0 MISS:          0
cpu3_DTLB LOAD         ACCESS:          0 HIT:          0 MISS:          0
cpu3_DTLB RFO          ACCESS:          0 HIT:          0 MISS:          0
cpu3_DTLB PREFETCH     ACCESS:          0 HIT:          0 MISS:          0
cpu3_DTLB WRITE        ACCESS:          0 HIT:          0 MISS:          0
cpu3_DTLB TRANSLATION  ACCESS:          0 HIT:          0 MISS:          0
cpu3_DTLB PREFETCH REQUESTED:          0 ISSUED:          0 USEFUL:          0 USELESS:          0
cpu3_DTLB AVERAGE MISS LATENCY: 10.84 cycles
cpu3_DTLB TOTAL        ACCESS:          0 HIT:          0 MISS:          0
cpu3_DTLB LOAD         ACCESS:          0 HIT:          0 MISS:          0
cpu3_DTLB RFO          ACCESS:          0 HIT:          0 MISS:          0
cpu3_DTLB PREFETCH     ACCESS:          0 HIT:          0 MISS:          0
cpu3_DTLB WRITE        ACCESS:          0 HIT:          0 MISS:          0
cpu3_DTLB TRANSLATION  ACCESS:          0 HIT:          0 MISS:          0
cpu3_DTLB PREFETCH REQUESTED:          0 ISSUED:          0 USEFUL:          0 USELESS:          0
cpu3_DTLB AVERAGE MISS LATENCY: 10.84 cycles
cpu3_DTLB TOTAL        ACCESS:          0 HIT:          0 MISS:          0
cpu3_DTLB LOAD         ACCESS:          0 HIT:          0 MISS:          0
cpu3_DTLB RFO          ACCESS:          0 HIT:          0 MISS:          0
cpu3_DTLB PREFETCH     ACCESS:          0 HIT:          0 MISS:          0
cpu3_DTLB WRITE        ACCESS:          0 HIT:          0 MISS:          0
cpu3_DTLB TRANSLATION  ACCESS:          0 HIT:          0 MISS:          0
cpu3_DTLB PREFETCH REQUESTED:          0 ISSUED:          0 USEFUL:          0 USELESS:          0
cpu3_DTLB AVERAGE MISS LATENCY: 10.84 cycles
cpu3_DTLB TOTAL        ACCESS:   38571837 HIT:   38238677 MISS:     333160
cpu3_DTLB LOAD         ACCESS:   38571837 HIT:   38238677 MISS:     333160
cpu3_DTLB RFO          ACCESS:          0 HIT:          0 MISS:          0
cpu3_DTLB PREFETCH     ACCESS:          0 HIT:          0 MISS:          0
cpu3_DTLB WRITE        ACCESS:          0 HIT:          0 MISS:          0
cpu3_DTLB TRANSLATION  ACCESS:          0 HIT:          0 MISS:          0
cpu3_DTLB PREFETCH REQUESTED:          0 ISSUED:          0 USEFUL:          0 USELESS:          0
cpu3_DTLB AVERAGE MISS LATENCY: 10.84 cycles
cpu3_ITLB TOTAL        ACCESS:          0 HIT:          0 MISS:          0
cpu3_ITLB LOAD         ACCESS:          0 HIT:          0 MISS:          0
cpu3_ITLB RFO          ACCESS:          0 HIT:          0 MISS:          0
cpu3_ITLB PREFETCH     ACCESS:          0 HIT:          0 MISS:          0
cpu3_ITLB WRITE        ACCESS:          0 HIT:          0 MISS:          0
cpu3_ITLB TRANSLATION  ACCESS:          0 HIT:          0 MISS:          0
cpu3_ITLB PREFETCH REQUESTED:          0 ISSUED:          0 USEFUL:          0 USELESS:          0
cpu3_ITLB AVERAGE MISS LATENCY: 7.844 cycles
cpu3_ITLB TOTAL        ACCESS:          0 HIT:          0 MISS:          0
cpu3_ITLB LOAD         ACCESS:          0 HIT:          0 MISS:          0
cpu3_ITLB RFO          ACCESS:          0 HIT:          0 MISS:          0
cpu3_ITLB PREFETCH     ACCESS:          0 HIT:          0 MISS:          0
cpu3_ITLB WRITE        ACCESS:          0 HIT:          0 MISS:          0
cpu3_ITLB TRANSLATION  ACCESS:          0 HIT:          0 MISS:          0
cpu3_ITLB PREFETCH REQUESTED:          0 ISSUED:          0 USEFUL:          0 USELESS:          0
cpu3_ITLB AVERAGE MISS LATENCY: 7.844 cycles
cpu3_ITLB TOTAL        ACCESS:          0 HIT:          0 MISS:          0
cpu3_ITLB LOAD         ACCESS:          0 HIT:          0 MISS:          0
cpu3_ITLB RFO          ACCESS:          0 HIT:          0 MISS:          0
cpu3_ITLB PREFETCH     ACCESS:          0 HIT:          0 MISS:          0
cpu3_ITLB WRITE        ACCESS:          0 HIT:          0 MISS:          0
cpu3_ITLB TRANSLATION  ACCESS:          0 HIT:          0 MISS:          0
cpu3_ITLB PREFETCH REQUESTED:          0 ISSUED:          0 USEFUL:          0 USELESS:          0
cpu3_ITLB AVERAGE MISS LATENCY: 7.844 cycles
cpu3_ITLB TOTAL        ACCESS:     537159 HIT:     525499 MISS:      11660
cpu3_ITLB LOAD         ACCESS:     537159 HIT:     525499 MISS:      11660
cpu3_ITLB RFO          ACCESS:          0 HIT:          0 MISS:          0
cpu3_ITLB PREFETCH     ACCESS:          0 HIT:          0 MISS:          0
cpu3_ITLB WRITE        ACCESS:          0 HIT:          0 MISS:          0
cpu3_ITLB TRANSLATION  ACCESS:          0 HIT:          0 MISS:          0
cpu3_ITLB PREFETCH REQUESTED:          0 ISSUED:          0 USEFUL:          0 USELESS:          0
cpu3_ITLB AVERAGE MISS LATENCY: 7.844 cycles
cpu3_L1D TOTAL        ACCESS:          0 HIT:          0 MISS:          0
cpu3_L1D LOAD         ACCESS:          0 HIT:          0 MISS:          0
cpu3_L1D RFO          ACCESS:          0 HIT:          0 MISS:          0
cpu3_L1D PREFETCH     ACCESS:          0 HIT:          0 MISS:          0
cpu3_L1D WRITE        ACCESS:          0 HIT:          0 MISS:          0
cpu3_L1D TRANSLATION  ACCESS:          0 HIT:          0 MISS:          0
cpu3_L1D PREFETCH REQUESTED:          0 ISSUED:          0 USEFUL:          0 USELESS:          0
cpu3_L1D AVERAGE MISS LATENCY: 59.22 cycles
cpu3_L1D TOTAL        ACCESS:          0 HIT:          0 MISS:          0
cpu3_L1D LOAD         ACCESS:          0 HIT:          0 MISS:          0
cpu3_L1D RFO          ACCESS:          0 HIT:          0 MISS:          0
cpu3_L1D PREFETCH     ACCESS:          0 HIT:          0 MISS:          0
cpu3_L1D WRITE        ACCESS:          0 HIT:          0 MISS:          0
cpu3_L1D TRANSLATION  ACCESS:          0 HIT:          0 MISS:          0
cpu3_L1D PREFETCH REQUESTED:          0 ISSUED:          0 USEFUL:          0 USELESS:          0
cpu3_L1D AVERAGE MISS LATENCY: 59.22 cycles
cpu3_L1D TOTAL        ACCESS:          0 HIT:          0 MISS:          0
cpu3_L1D LOAD         ACCESS:          0 HIT:          0 MISS:          0
cpu3_L1D RFO          ACCESS:          0 HIT:          0 MISS:          0
cpu3_L1D PREFETCH     ACCESS:          0 HIT:          0 MISS:          0
cpu3_L1D WRITE        ACCESS:          0 HIT:          0 MISS:          0
cpu3_L1D TRANSLATION  ACCESS:          0 HIT:          0 MISS:          0
cpu3_L1D PREFETCH REQUESTED:          0 ISSUED:          0 USEFUL:          0 USELESS:          0
cpu3_L1D AVERAGE MISS LATENCY: 59.22 cycles
cpu3_L1D TOTAL        ACCESS:   46913418 HIT:   36927659 MISS:    9985759
cpu3_L1D LOAD         ACCESS:   28651817 HIT:   24381555 MISS:    4270262
cpu3_L1D RFO          ACCESS:          0 HIT:          0 MISS:          0
cpu3_L1D PREFETCH     ACCESS:          0 HIT:          0 MISS:          0
cpu3_L1D WRITE        ACCESS:   18246108 HIT:   12542002 MISS:    5704106
cpu3_L1D TRANSLATION  ACCESS:      15493 HIT:       4102 MISS:      11391
cpu3_L1D PREFETCH REQUESTED:          0 ISSUED:          0 USEFUL:          0 USELESS:          0
cpu3_L1D AVERAGE MISS LATENCY: 59.22 cycles
cpu3_L1I TOTAL        ACCESS:          0 HIT:          0 MISS:          0
cpu3_L1I LOAD         ACCESS:          0 HIT:          0 MISS:          0
cpu3_L1I RFO          ACCESS:          0 HIT:          0 MISS:          0
cpu3_L1I PREFETCH     ACCESS:          0 HIT:          0 MISS:          0
cpu3_L1I WRITE        ACCESS:          0 HIT:          0 MISS:          0
cpu3_L1I TRANSLATION  ACCESS:          0 HIT:          0 MISS:          0
cpu3_L1I PREFETCH REQUESTED:          0 ISSUED:          0 USEFUL:          0 USELESS:          0
cpu3_L1I AVERAGE MISS LATENCY: 27.05 cycles
cpu3_L1I TOTAL        ACCESS:          0 HIT:          0 MISS:          0
cpu3_L1I LOAD         ACCESS:          0 HIT:          0 MISS:          0
cpu3_L1I RFO          ACCESS:          0 HIT:          0 MISS:          0
cpu3_L1I PREFETCH     ACCESS:          0 HIT:          0 MISS:          0
cpu3_L1I WRITE        ACCESS:          0 HIT:          0 MISS:          0
cpu3_L1I TRANSLATION  ACCESS:          0 HIT:          0 MISS:          0
cpu3_L1I PREFETCH REQUESTED:          0 ISSUED:          0 USEFUL:          0 USELESS:          0
cpu3_L1I AVERAGE MISS LATENCY: 27.05 cycles
cpu3_L1I TOTAL        ACCESS:          0 HIT:          0 MISS:          0
cpu3_L1I LOAD         ACCESS:          0 HIT:          0 MISS:          0
cpu3_L1I RFO          ACCESS:          0 HIT:          0 MISS:          0
cpu3_L1I PREFETCH     ACCESS:          0 HIT:          0 MISS:          0
cpu3_L1I WRITE        ACCESS:          0 HIT:          0 MISS:          0
cpu3_L1I TRANSLATION  ACCESS:          0 HIT:          0 MISS:          0
cpu3_L1I PREFETCH REQUESTED:          0 ISSUED:          0 USEFUL:          0 USELESS:          0
cpu3_L1I AVERAGE MISS LATENCY: 27.05 cycles
cpu3_L1I TOTAL        ACCESS:     668315 HIT:     469780 MISS:     198535
cpu3_L1I LOAD         ACCESS:     668315 HIT:     469780 MISS:     198535
cpu3_L1I RFO          ACCESS:          0 HIT:          0 MISS:          0
cpu3_L1I PREFETCH     ACCESS:          0 HIT:          0 MISS:          0
cpu3_L1I WRITE        ACCESS:          0 HIT:          0 MISS:          0
cpu3_L1I TRANSLATION  ACCESS:          0 HIT:          0 MISS:          0
cpu3_L1I PREFETCH REQUESTED:          0 ISSUED:          0 USEFUL:          0 USELESS:          0
cpu3_L1I AVERAGE MISS LATENCY: 27.05 cycles
cpu3_L2C TOTAL        ACCESS:          0 HIT:          0 MISS:          0
cpu3_L2C LOAD         ACCESS:          0 HIT:          0 MISS:          0
cpu3_L2C RFO          ACCESS:          0 HIT:          0 MISS:          0
cpu3_L2C PREFETCH     ACCESS:          0 HIT:          0 MISS:          0
cpu3_L2C WRITE        ACCESS:          0 HIT:          0 MISS:          0
cpu3_L2C TRANSLATION  ACCESS:          0 HIT:          0 MISS:          0
cpu3_L2C PREFETCH REQUESTED:          0 ISSUED:          0 USEFUL:          0 USELESS:          0
cpu3_L2C AVERAGE MISS LATENCY: 358.6 cycles
cpu3_L2C TOTAL        ACCESS:          0 HIT:          0 MISS:          0
cpu3_L2C LOAD         ACCESS:          0 HIT:          0 MISS:          0
cpu3_L2C RFO          ACCESS:          0 HIT:          0 MISS:          0
cpu3_L2C PREFETCH     ACCESS:          0 HIT:          0 MISS:          0
cpu3_L2C WRITE        ACCESS:          0 HIT:          0 MISS:          0
cpu3_L2C TRANSLATION  ACCESS:          0 HIT:          0 MISS:          0
cpu3_L2C PREFETCH REQUESTED:          0 ISSUED:          0 USEFUL:          0 USELESS:          0
cpu3_L2C AVERAGE MISS LATENCY: 358.6 cycles
cpu3_L2C TOTAL        ACCESS:          0 HIT:          0 MISS:          0
cpu3_L2C LOAD         ACCESS:          0 HIT:          0 MISS:          0
cpu3_L2C RFO          ACCESS:          0 HIT:          0 MISS:          0
cpu3_L2C PREFETCH     ACCESS:          0 HIT:          0 MISS:          0
cpu3_L2C WRITE        ACCESS:          0 HIT:          0 MISS:          0
cpu3_L2C TRANSLATION  ACCESS:          0 HIT:          0 MISS:          0
cpu3_L2C PREFETCH REQUESTED:          0 ISSUED:          0 USEFUL:          0 USELESS:          0
cpu3_L2C AVERAGE MISS LATENCY: 358.6 cycles
cpu3_L2C TOTAL        ACCESS:    5847141 HIT:    4122591 MISS:    1724550
cpu3_L2C LOAD         ACCESS:    2577773 HIT:    1465299 MISS:    1112474
cpu3_L2C RFO          ACCESS:    1414706 HIT:     810805 MISS:     603901
cpu3_L2C PREFETCH     ACCESS:          0 HIT:          0 MISS:          0
cpu3_L2C WRITE        ACCESS:    1843441 HIT:    1842241 MISS:       1200
cpu3_L2C TRANSLATION  ACCESS:      11221 HIT:       4246 MISS:       6975
cpu3_L2C PREFETCH REQUESTED:          0 ISSUED:          0 USEFUL:          0 USELESS:          0
cpu3_L2C AVERAGE MISS LATENCY: 358.6 cycles
cpu3_STLB TOTAL        ACCESS:          0 HIT:          0 MISS:          0
cpu3_STLB LOAD         ACCESS:          0 HIT:          0 MISS:          0
cpu3_STLB RFO          ACCESS:          0 HIT:          0 MISS:          0
cpu3_STLB PREFETCH     ACCESS:          0 HIT:          0 MISS:          0
cpu3_STLB WRITE        ACCESS:          0 HIT:          0 MISS:          0
[...]
cpu2_L1I PREFETCH REQUESTED:          0 ISSUED:          0 USEFUL:          0 USELESS:          0
cpu2_L1I AVERAGE MISS LATENCY: -nan cycles
cpu2_L1I TOTAL        ACCESS:          0 HIT:          0 MISS:          0
cpu2_L1I LOAD         ACCESS:          0 HIT:          0 MISS:          0
cpu2_L1I RFO          ACCESS:          0 HIT:          0 MISS:          0
cpu2_L1I PREFETCH     ACCESS:          0 HIT:          0 MISS:          0
cpu2_L1I WRITE        ACCESS:          0 HIT:          0 MISS:          0
cpu2_L1I TRANSLATION  ACCESS:          0 HIT:          0 MISS:          0
cpu2_L1I PREFETCH REQUESTED:          0 ISSUED:          0 USEFUL:          0 USELESS:          0
cpu2_L1I AVERAGE MISS LATENCY: -nan cycles
cpu2_L2C TOTAL        ACCESS:          0 HIT:          0 MISS:          0
cpu2_L2C LOAD         ACCESS:          0 HIT:          0 MISS:          0
cpu2_L2C RFO          ACCESS:          0 HIT:          0 MISS:          0
cpu2_L2C PREFETCH     ACCESS:          0 HIT:          0 MISS:          0
cpu2_L2C WRITE        ACCESS:          0 HIT:          0 MISS:          0
cpu2_L2C TRANSLATION  ACCESS:          0 HIT:          0 MISS:          0
cpu2_L2C PREFETCH REQUESTED:          0 ISSUED:          0 USEFUL:          0 USELESS:          0
cpu2_L2C AVERAGE MISS LATENCY: 301.1 cycles
cpu2_L2C TOTAL        ACCESS:          0 HIT:          0 MISS:          0
cpu2_L2C LOAD         ACCESS:          0 HIT:          0 MISS:          0
cpu2_L2C RFO          ACCESS:          0 HIT:          0 MISS:          0
cpu2_L2C PREFETCH     ACCESS:          0 HIT:          0 MISS:          0
cpu2_L2C WRITE        ACCESS:          0 HIT:          0 MISS:          0
cpu2_L2C TRANSLATION  ACCESS:          0 HIT:          0 MISS:          0
cpu2_L2C PREFETCH REQUESTED:          0 ISSUED:          0 USEFUL:          0 USELESS:          0
cpu2_L2C AVERAGE MISS LATENCY: 301.1 cycles
cpu2_L2C TOTAL        ACCESS:    3303633 HIT:    1932988 MISS:    1370645
cpu2_L2C LOAD         ACCESS:    1982771 HIT:     612667 MISS:    1370104
cpu2_L2C RFO          ACCESS:       2303 HIT:       2043 MISS:        260
cpu2_L2C PREFETCH     ACCESS:          0 HIT:          0 MISS:          0
cpu2_L2C WRITE        ACCESS:    1317750 HIT:    1317750 MISS:          0
cpu2_L2C TRANSLATION  ACCESS:        809 HIT:        528 MISS:        281
cpu2_L2C PREFETCH REQUESTED:          0 ISSUED:          0 USEFUL:          0 USELESS:          0
cpu2_L2C AVERAGE MISS LATENCY: 301.1 cycles
cpu2_L2C TOTAL        ACCESS:          0 HIT:          0 MISS:          0
cpu2_L2C LOAD         ACCESS:          0 HIT:          0 MISS:          0
cpu2_L2C RFO          ACCESS:          0 HIT:          0 MISS:          0
cpu2_L2C PREFETCH     ACCESS:          0 HIT:          0 MISS:          0
cpu2_L2C WRITE        ACCESS:          0 HIT:          0 MISS:          0
cpu2_L2C TRANSLATION  ACCESS:          0 HIT:          0 MISS:          0
cpu2_L2C PREFETCH REQUESTED:          0 ISSUED:          0 USEFUL:          0 USELESS:          0
cpu2_L2C AVERAGE MISS LATENCY: 301.1 cycles
cpu2_STLB TOTAL        ACCESS:          0 HIT:          0 MISS:          0
cpu2_STLB LOAD         ACCESS:          0 HIT:          0 MISS:          0
cpu2_STLB RFO          ACCESS:          0 HIT:          0 MISS:          0
cpu2_STLB PREFETCH     ACCESS:          0 HIT:          0 MISS:          0
cpu2_STLB WRITE        ACCESS:          0 HIT:          0 MISS:          0
cpu2_STLB TRANSLATION  ACCESS:          0 HIT:          0 MISS:          0
cpu2_STLB PREFETCH REQUESTED:          0 ISSUED:          0 USEFUL:          0 USELESS:          0
cpu2_STLB AVERAGE MISS LATENCY: 209.6 cycles
cpu2_STLB TOTAL        ACCESS:          0 HIT:          0 MISS:          0
cpu2_STLB LOAD         ACCESS:          0 HIT:          0 MISS:          0
cpu2_STLB RFO          ACCESS:          0 HIT:          0 MISS:          0
cpu2_STLB PREFETCH     ACCESS:          0 HIT:          0 MISS:          0
cpu2_STLB WRITE        ACCESS:          0 HIT:          0 MISS:          0
cpu2_STLB TRANSLATION  ACCESS:          0 HIT:          0 MISS:          0
cpu2_STLB PREFETCH REQUESTED:          0 ISSUED:          0 USEFUL:          0 USELESS:          0
cpu2_STLB AVERAGE MISS LATENCY: 209.6 cycles
cpu2_STLB TOTAL        ACCESS:      35098 HIT:      14515 MISS:      20583
cpu2_STLB LOAD         ACCESS:      35098 HIT:      14515 MISS:      20583
cpu2_STLB RFO          ACCESS:          0 HIT:          0 MISS:          0
cpu2_STLB PREFETCH     ACCESS:          0 HIT:          0 MISS:          0
cpu2_STLB WRITE        ACCESS:          0 HIT:          0 MISS:          0
cpu2_STLB TRANSLATION  ACCESS:          0 HIT:          0 MISS:          0
cpu2_STLB PREFETCH REQUESTED:          0 ISSUED:          0 USEFUL:          0 USELESS:          0
cpu2_STLB AVERAGE MISS LATENCY: 209.6 cycles
cpu2_STLB TOTAL        ACCESS:          0 HIT:          0 MISS:          0
cpu2_STLB LOAD         ACCESS:          0 HIT:          0 MISS:          0
cpu2_STLB RFO          ACCESS:          0 HIT:          0 MISS:          0
cpu2_STLB PREFETCH     ACCESS:          0 HIT:          0 MISS:          0
cpu2_STLB WRITE        ACCESS:          0 HIT:          0 MISS:          0
cpu2_STLB TRANSLATION  ACCESS:          0 HIT:          0 MISS:          0
cpu2_STLB PREFETCH REQUESTED:          0 ISSUED:          0 USEFUL:          0 USELESS:          0
cpu2_STLB AVERAGE MISS LATENCY: 209.6 cycles
cpu3_DTLB TOTAL        ACCESS:          0 HIT:          0 MISS:          0
cpu3_DTLB LOAD         ACCESS:          0 HIT:          0 MISS:          0
cpu3_DTLB RFO          ACCESS:          0 HIT:          0 MISS:          0
cpu3_DTLB PREFETCH     ACCESS:          0 HIT:          0 MISS:          0
cpu3_DTLB WRITE        ACCESS:          0 HIT:          0 MISS:          0
cpu3_DTLB TRANSLATION  ACCESS:          0 HIT:          0 MISS:          0
cpu3_DTLB PREFETCH REQUESTED:          0 ISSUED:          0 USEFUL:          0 USELESS:          0
cpu3_DTLB AVERAGE MISS LATENCY: 10.84 cycles
cpu3_DTLB TOTAL        ACCESS:          0 HIT:          0 MISS:          0
cpu3_DTLB LOAD         ACCESS:          0 HIT:          0 MISS:          0
cpu3_DTLB RFO          ACCESS:          0 HIT:          0 MISS:          0
cpu3_DTLB PREFETCH     ACCESS:          0 HIT:          0 MISS:          0
cpu3_DTLB WRITE        ACCESS:          0 HIT:          0 MISS:          0
cpu3_DTLB TRANSLATION  ACCESS:          0 HIT:          0 MISS:          0
cpu3_DTLB PREFETCH REQUESTED:          0 ISSUED:          0 USEFUL:          0 USELESS:          0
cpu3_DTLB AVERAGE MISS LATENCY: 10.84 cycles
cpu3_DTLB TOTAL        ACCESS:          0 HIT:          0 MISS:          0
cpu3_DTLB LOAD         ACCESS:          0 HIT:          0 MISS:          0
cpu3_DTLB RFO          ACCESS:          0 HIT:          0 MISS:          0
cpu3_DTLB PREFETCH     ACCESS:          0 HIT:          0 MISS:          0
cpu3_DTLB WRITE        ACCESS:          0 HIT:          0 MISS:          0
cpu3_DTLB TRANSLATION  ACCESS:          0 HIT:          0 MISS:          0
cpu3_DTLB PREFETCH REQUESTED:          0 ISSUED:          0 USEFUL:          0 USELESS:          0
cpu3_DTLB AVERAGE MISS LATENCY: 10.84 cycles
cpu3_DTLB TOTAL        ACCESS:   20436622 HIT:   20261387 MISS:     175235
cpu3_DTLB LOAD         ACCESS:   20436622 HIT:   20261387 MISS:     175235
cpu3_DTLB RFO          ACCESS:          0 HIT:          0 MISS:          0
cpu3_DTLB PREFETCH     ACCESS:          0 HIT:          0 MISS:          0
cpu3_DTLB WRITE        ACCESS:          0 HIT:          0 MISS:          0
cpu3_DTLB TRANSLATION  ACCESS:          0 HIT:          0 MISS:          0
cpu3_DTLB PREFETCH REQUESTED:          0 ISSUED:          0 USEFUL:          0 USELESS:          0
cpu3_DTLB AVERAGE MISS LATENCY: 10.84 cycles
cpu3_ITLB TOTAL        ACCESS:          0 HIT:          0 MISS:          0
cpu3_ITLB LOAD         ACCESS:          0 HIT:          0 MISS:          0
cpu3_ITLB RFO          ACCESS:          0 HIT:          0 MISS:          0
cpu3_ITLB PREFETCH     ACCESS:          0 HIT:          0 MISS:          0
cpu3_ITLB WRITE        ACCESS:          0 HIT:          0 MISS:          0
cpu3_ITLB TRANSLATION  ACCESS:          0 HIT:          0 MISS:          0
cpu3_ITLB PREFETCH REQUESTED:          0 ISSUED:          0 USEFUL:          0 USELESS:          0
cpu3_ITLB AVERAGE MISS LATENCY: 7.844 cycles
cpu3_ITLB TOTAL        ACCESS:          0 HIT:          0 MISS:          0
cpu3_ITLB LOAD         ACCESS:          0 HIT:          0 MISS:          0
cpu3_ITLB RFO          ACCESS:          0 HIT:          0 MISS:          0
cpu3_ITLB PREFETCH     ACCESS:          0 HIT:          0 MISS:          0
cpu3_ITLB WRITE        ACCESS:          0 HIT:          0 MISS:          0
cpu3_ITLB TRANSLATION  ACCESS:          0 HIT:          0 MISS:          0
cpu3_ITLB PREFETCH REQUESTED:          0 ISSUED:          0 USEFUL:          0 USELESS:          0
cpu3_ITLB AVERAGE MISS LATENCY: 7.844 cycles
cpu3_ITLB TOTAL        ACCESS:          0 HIT:          0 MISS:          0
cpu3_ITLB LOAD         ACCESS:          0 HIT:          0 MISS:          0
cpu3_ITLB RFO          ACCESS:          0 HIT:          0 MISS:          0
cpu3_ITLB PREFETCH     ACCESS:          0 HIT:          0 MISS:          0
cpu3_ITLB WRITE        ACCESS:          0 HIT:          0 MISS:          0
cpu3_ITLB TRANSLATION  ACCESS:          0 HIT:          0 MISS:          0
cpu3_ITLB PREFETCH REQUESTED:          0 ISSUED:          0 USEFUL:          0 USELESS:          0
cpu3_ITLB AVERAGE MISS LATENCY: 7.844 cycles
cpu3_ITLB TOTAL        ACCESS:     273454 HIT:     267844 MISS:       5610
cpu3_ITLB LOAD         ACCESS:     273454 HIT:     267844 MISS:       5610
cpu3_ITLB RFO          ACCESS:          0 HIT:          0 MISS:          0
cpu3_ITLB PREFETCH     ACCESS:          0 HIT:          0 MISS:          0
cpu3_ITLB WRITE        ACCESS:          0 HIT:          0 MISS:          0
cpu3_ITLB TRANSLATION  ACCESS:          0 HIT:          0 MISS:          0
cpu3_ITLB PREFETCH REQUESTED:          0 ISSUED:          0 USEFUL:          0 USELESS:          0
cpu3_ITLB AVERAGE MISS LATENCY: 7.844 cycles
cpu3_L1D TOTAL        ACCESS:          0 HIT:          0 MISS:          0
cpu3_L1D LOAD         ACCESS:          0 HIT:          0 MISS:          0
cpu3_L1D RFO          ACCESS:          0 HIT:          0 MISS:          0
cpu3_L1D PREFETCH     ACCESS:          0 HIT:          0 MISS:          0
cpu3_L1D WRITE        ACCESS:          0 HIT:          0 MISS:          0
cpu3_L1D TRANSLATION  ACCESS:          0 HIT:          0 MISS:          0
cpu3_L1D PREFETCH REQUESTED:          0 ISSUED:          0 USEFUL:          0 USELESS:          0
cpu3_L1D AVERAGE MISS LATENCY: 59.22 cycles
cpu3_L1D TOTAL        ACCESS:          0 HIT:          0 MISS:          0
cpu3_L1D LOAD         ACCESS:          0 HIT:          0 MISS:          0
cpu3_L1D RFO          ACCESS:          0 HIT:          0 MISS:          0
cpu3_L1D PREFETCH     ACCESS:          0 HIT:          0 MISS:          0
cpu3_L1D WRITE        ACCESS:          0 HIT:          0 MISS:          0
cpu3_L1D TRANSLATION  ACCESS:          0 HIT:          0 MISS:          0
cpu3_L1D PREFETCH REQUESTED:          0 ISSUED:          0 USEFUL:          0 USELESS:          0
cpu3_L1D AVERAGE MISS LATENCY: 59.22 cycles
cpu3_L1D TOTAL        ACCESS:          0 HIT:          0 MISS:          0
cpu3_L1D LOAD         ACCESS:          0 HIT:          0 MISS:          0
cpu3_L1D RFO          ACCESS:          0 HIT:          0 MISS:          0
cpu3_L1D PREFETCH     ACCESS:          0 HIT:          0 MISS:          0
cpu3_L1D WRITE        ACCESS:          0 HIT:          0 MISS:          0
cpu3_L1D TRANSLATION  ACCESS:          0 HIT:          0 MISS:          0
cpu3_L1D PREFETCH REQUESTED:          0 ISSUED:          0 USEFUL:          0 USELESS:          0
cpu3_L1D AVERAGE MISS LATENCY: 59.22 cycles
cpu3_L1D TOTAL        ACCESS:   24847843 HIT:   19772602 MISS:    5075241
cpu3_L1D LOAD         ACCESS:   15181380 HIT:   13033197 MISS:    2148183
cpu3_L1D RFO          ACCESS:          0 HIT:          0 MISS:          0
cpu3_L1D PREFETCH     ACCESS:          0 HIT:          0 MISS:          0
cpu3_L1D WRITE        ACCESS:    9658259 HIT:    6737162 MISS:    2921097
cpu3_L1D TRANSLATION  ACCESS:       8204 HIT:       2243 MISS:       5961
cpu3_L1D PREFETCH REQUESTED:          0 ISSUED:          0 USEFUL:          0 USELESS:          0
cpu3_L1D AVERAGE MISS LATENCY: 59.22 cycles
cpu3_L1I TOTAL        ACCESS:          0 HIT:          0 MISS:          0
cpu3_L1I LOAD         ACCESS:          0 HIT:          0 MISS:          0
cpu3_L1I RFO          ACCESS:          0 HIT:          0 MISS:          0
cpu3_L1I PREFETCH     ACCESS:          0 HIT:          0 MISS:          0
cpu3_L1I WRITE        ACCESS:          0 HIT:          0 MISS:          0
cpu3_L1I TRANSLATION  ACCESS:          0 HIT:          0 MISS:          0
cpu3_L1I PREFETCH REQUESTED:          0 ISSUED:          0 USEFUL:          0 USELESS:          0
cpu3_L1I AVERAGE MISS LATENCY: 27.05 cycles
cpu3_L1I TOTAL        ACCESS:          0 HIT:          0 MISS:          0
cpu3_L1I LOAD         ACCESS:          0 HIT:          0 MISS:          0
cpu3_L1I RFO          ACCESS:          0 HIT:          0 MISS:          0
cpu3_L1I PREFETCH     ACCESS:          0 HIT:          0 MISS:          0
cpu3_L1I WRITE        ACCESS:          0 HIT:          0 MISS:          0
cpu3_L1I TRANSLATION  ACCESS:          0 HIT:          0 MISS:          0
cpu3_L1I PREFETCH REQUESTED:          0 ISSUED:          0 USEFUL:          0 USELESS:          0
cpu3_L1I AVERAGE MISS LATENCY: 27.05 cycles
cpu3_L1I TOTAL        ACCESS:          0 HIT:          0 MISS:          0
cpu3_L1I LOAD         ACCESS:          0 HIT:          0 MISS:          0
cpu3_L1I RFO          ACCESS:          0 HIT:          0 MISS:          0
cpu3_L1I PREFETCH     ACCESS:          0 HIT:          0 MISS:          0
cpu3_L1I WRITE        ACCESS:          0 HIT:          0 MISS:          0
cpu3_L1I TRANSLATION  ACCESS:          0 HIT:          0 MISS:          0
cpu3_L1I PREFETCH REQUESTED:          0 ISSUED:          0 USEFUL:          0 USELESS:          0
cpu3_L1I AVERAGE MISS LATENCY: 27.05 cycles
cpu3_L1I TOTAL        ACCESS:     339799 HIT:     244685 MISS:      95114
cpu3_L1I LOAD         ACCESS:     339799 HIT:     244685 MISS:      95114
cpu3_L1I RFO          ACCESS:          0 HIT:          0 MISS:          0
cpu3_L1I PREFETCH     ACCESS:          0 HIT:          0 MISS:          0
cpu3_L1I WRITE        ACCESS:          0 HIT:          0 MISS:          0
cpu3_L1I TRANSLATION  ACCESS:          0 HIT:          0 MISS:          0
cpu3_L1I PREFETCH REQUESTED:          0 ISSUED:          0 USEFUL:          0 USELESS:          0
cpu3_L1I AVERAGE MISS LATENCY: 27.05 cycles
cpu3_L2C TOTAL        ACCESS:          0 HIT:          0 MISS:          0
cpu3_L2C LOAD         ACCESS:          0 HIT:          0 MISS:          0
cpu3_L2C RFO          ACCESS:          0 HIT:          0 MISS:          0
cpu3_L2C PREFETCH     ACCESS:          0 HIT:          0 MISS:          0
cpu3_L2C WRITE        ACCESS:          0 HIT:          0 MISS:          0
cpu3_L2C TRANSLATION  ACCESS:          0 HIT:          0 MISS:          0
cpu3_L2C PREFETCH REQUESTED:          0 ISSUED:          0 USEFUL:          0 USELESS:          0
cpu3_L2C AVERAGE MISS LATENCY: 358.6 cycles
cpu3_L2C TOTAL        ACCESS:          0 HIT:          0 MISS:          0
cpu3_L2C LOAD         ACCESS:          0 HIT:          0 MISS:          0
cpu3_L2C RFO          ACCESS:          0 HIT:          0 MISS:          0
cpu3_L2C PREFETCH     ACCESS:          0 HIT:          0 MISS:          0
cpu3_L2C WRITE        ACCESS:          0 HIT:          0 MISS:          0
cpu3_L2C TRANSLATION  ACCESS:          0 HIT:          0 MISS:          0
cpu3_L2C PREFETCH REQUESTED:          0 ISSUED:          0 USEFUL:          0 USELESS:          0
cpu3_L2C AVERAGE MISS LATENCY: 358.6 cycles
cpu3_L2C TOTAL        ACCESS:          0 HIT:          0 MISS:          0
cpu3_L2C LOAD         ACCESS:          0 HIT:          0 MISS:          0
cpu3_L2C RFO          ACCESS:          0 HIT:          0 MISS:          0
cpu3_L2C PREFETCH     ACCESS:          0 HIT:          0 MISS:          0
cpu3_L2C WRITE        ACCESS:          0 HIT:          0 MISS:          0
cpu3_L2C TRANSLATION  ACCESS:          0 HIT:          0 MISS:          0
cpu3_L2C PREFETCH REQUESTED:          0 ISSUED:          0 USEFUL:          0 USELESS:          0
cpu3_L2C AVERAGE MISS LATENCY: 358.6 cycles
cpu3_L2C TOTAL        ACCESS:    2948744 HIT:    2078043 MISS:     870701
cpu3_L2C LOAD         ACCESS:    1287400 HIT:     728054 MISS:     559346
cpu3_L2C RFO          ACCESS:     719152 HIT:     412081 MISS:     307071
cpu3_L2C PREFETCH     ACCESS:          0 HIT:          0 MISS:          0
cpu3_L2C WRITE        ACCESS:     936307 HIT:     935709 MISS:        598
cpu3_L2C TRANSLATION  ACCESS:       5885 HIT:       2199 MISS:       3686
cpu3_L2C PREFETCH REQUESTED:          0 ISSUED:          0 USEFUL:          0 USELESS:          0
cpu3_L2C AVERAGE MISS LATENCY: 358.6 cycles
cpu3_STLB TOTAL        ACCESS:          0 HIT:          0 MISS:          0
cpu3_STLB LOAD         ACCESS:          0 HIT:          0 MISS:          0
cpu3_STLB RFO          ACCESS:          0 HIT:          0 MISS:          0
cpu3_STLB PREFETCH     ACCESS:          0 HIT:          0 MISS:          0
cpu3_STLB WRITE        ACCESS:          0 HIT:          0 MISS:          0
cpu3_STLB TRANSLATION  ACCESS:          0 HIT:          0 MISS:          0
cpu3_STLB PREFETCH REQUESTED:          0 ISSUED:          0 USEFUL:          0 USELESS:          0
cpu3_STLB AVERAGE MISS LATENCY: 344.3 cycles
cpu3_STLB TOTAL        ACCESS:          0 HIT:          0 MISS:          0
cpu3_STLB LOAD         ACCESS:          0 HIT:          0 MISS:          0
cpu3_STLB RFO          ACCESS:          0 HIT:          0 MISS:          0
cpu3_STLB PREFETCH     ACCESS:          0 HIT:          0 MISS:          0
cpu3_STLB WRITE        ACCESS:          0 HIT:          0 MISS:          0
cpu3_STLB TRANSLATION  ACCESS:          0 HIT:          0 MISS:          0
cpu3_STLB PREFETCH REQUESTED:          0 ISSUED:          0 USEFUL:          0 USELESS:          0
cpu3_STLB AVERAGE MISS LATENCY: 344.3 cycles
cpu3_STLB TOTAL        ACCESS:          0 HIT:          0 MISS:          0
cpu3_STLB LOAD         ACCESS:          0 HIT:          0 MISS:          0
cpu3_STLB RFO          ACCESS:          0 HIT:          0 MISS:          0
cpu3_STLB PREFETCH     ACCESS:          0 HIT:          0 MISS:          0
cpu3_STLB WRITE        ACCESS:          0 HIT:          0 MISS:          0
cpu3_STLB TRANSLATION  ACCESS:          0 HIT:          0 MISS:          0
cpu3_STLB PREFETCH REQUESTED:          0 ISSUED:          0 USEFUL:          0 USELESS:          0
cpu3_STLB AVERAGE MISS LATENCY: 344.3 cycles
cpu3_STLB TOTAL        ACCESS:      62857 HIT:      55648 MISS:       7209
cpu3_STLB LOAD         ACCESS:      62857 HIT:      55648 MISS:       7209
cpu3_STLB RFO          ACCESS:          0 HIT:          0 MISS:          0
cpu3_STLB PREFETCH     ACCESS:          0 HIT:          0 MISS:          0
cpu3_STLB WRITE        ACCESS:          0 HIT:          0 MISS:          0
cpu3_STLB TRANSLATION  ACCESS:          0 HIT:          0 MISS:          0
cpu3_STLB PREFETCH REQUESTED:          0 ISSUED:          0 USEFUL:          0 USELESS:          0
cpu3_STLB AVERAGE MISS LATENCY: 344.3 cycles

DRAM Statistics

Channel 0 RQ ROW_BUFFER_HIT:     173452
  ROW_BUFFER_MISS:     974990
 AVG DBUS CONGESTED CYCLE: 3.974
WQ ROW_BUFFER_HIT: Channel 0 
  ROW_BUFFER_MISS:      70863
  FULL:     867615

Channel 1 RQ ROW_BUFFER_HIT:     170159
  ROW_BUFFER_MISS:     977024
 AVG DBUS CONGESTED CYCLE: 3.975
WQ ROW_BUFFER_HIT: Channel 1 
  ROW_BUFFER_MISS:      71324
  FULL:     866986
