Original cmd-> /home/grads/r/rdas40/ECEN676/ChampSim/bin/multi_core/nopref_2ch --warmup_instructions=50000000 --simulation_instructions=150000000  /home/grads/r/rdas40/dpc3_traces/644.nab_s-5853B.champsimtrace.xz /home/grads/r/rdas40/dpc3_traces/649.fotonik3d_s-1176B.champsimtrace.xz /home/grads/r/rdas40/dpc3_traces/623.xalancbmk_s-700B.champsimtrace.xz /home/grads/r/rdas40/dpc3_traces/621.wrf_s-575B.champsimtrace.xz
WARNING: physical memory size is smaller than virtual memory size.
WARNING: option --warmup_instructions is deprecated. Use --warmup-instructions instead.
WARNING: option --simulation_instructions is deprecated. Use --simulation-instructions instead.

*** ChampSim Multicore Out-of-Order Simulator ***
Warmup Instructions: 50000000
Simulation Instructions: 150000000
Number of CPUs: 4
Page size: 4096

Off-chip DRAM Size: 8 GiB Channels: 2 Width: 64-bit Data Race: 3200 MT/s
Heartbeat CPU 1 instructions: 10000002 cycles: 2500044 heartbeat IPC: 4 cumulative IPC: 4 (Simulation time: 00 hr 02 min 54 sec)
Heartbeat CPU 3 instructions: 10000001 cycles: 2502764 heartbeat IPC: 3.996 cumulative IPC: 3.996 (Simulation time: 00 hr 02 min 54 sec)
Heartbeat CPU 2 instructions: 10000002 cycles: 3063849 heartbeat IPC: 3.264 cumulative IPC: 3.264 (Simulation time: 00 hr 03 min 34 sec)
Heartbeat CPU 0 instructions: 10000001 cycles: 3450965 heartbeat IPC: 2.898 cumulative IPC: 2.898 (Simulation time: 00 hr 04 min 01 sec)
Heartbeat CPU 1 instructions: 20000002 cycles: 5000044 heartbeat IPC: 4 cumulative IPC: 4 (Simulation time: 00 hr 05 min 49 sec)
Heartbeat CPU 3 instructions: 20000000 cycles: 5005381 heartbeat IPC: 3.996 cumulative IPC: 3.996 (Simulation time: 00 hr 05 min 50 sec)
Heartbeat CPU 2 instructions: 20000002 cycles: 5747776 heartbeat IPC: 3.726 cumulative IPC: 3.48 (Simulation time: 00 hr 06 min 42 sec)
Heartbeat CPU 0 instructions: 20000001 cycles: 6908011 heartbeat IPC: 2.893 cumulative IPC: 2.895 (Simulation time: 00 hr 08 min 05 sec)
Heartbeat CPU 1 instructions: 30000002 cycles: 7500044 heartbeat IPC: 4 cumulative IPC: 4 (Simulation time: 00 hr 08 min 47 sec)
Heartbeat CPU 3 instructions: 30000001 cycles: 7507708 heartbeat IPC: 3.996 cumulative IPC: 3.996 (Simulation time: 00 hr 08 min 48 sec)
Heartbeat CPU 2 instructions: 30000000 cycles: 8965816 heartbeat IPC: 3.107 cumulative IPC: 3.346 (Simulation time: 00 hr 10 min 32 sec)
Heartbeat CPU 1 instructions: 40000002 cycles: 10000044 heartbeat IPC: 4 cumulative IPC: 4 (Simulation time: 00 hr 11 min 47 sec)
Heartbeat CPU 3 instructions: 40000001 cycles: 10010384 heartbeat IPC: 3.996 cumulative IPC: 3.996 (Simulation time: 00 hr 11 min 48 sec)
Heartbeat CPU 0 instructions: 30000001 cycles: 10362717 heartbeat IPC: 2.895 cumulative IPC: 2.895 (Simulation time: 00 hr 12 min 13 sec)
Heartbeat CPU 2 instructions: 40000004 cycles: 12218782 heartbeat IPC: 3.074 cumulative IPC: 3.274 (Simulation time: 00 hr 14 min 26 sec)
Heartbeat CPU 1 instructions: 50000002 cycles: 12500044 heartbeat IPC: 4 cumulative IPC: 4 (Simulation time: 00 hr 14 min 46 sec)
Warmup finished CPU 1 instructions: 50000002 cycles: 12500045 cumulative IPC: 4 (Simulation time: 00 hr 14 min 46 sec)
Heartbeat CPU 3 instructions: 50000002 cycles: 12513112 heartbeat IPC: 3.996 cumulative IPC: 3.996 (Simulation time: 00 hr 14 min 47 sec)
Warmup finished CPU 3 instructions: 50000002 cycles: 12513113 cumulative IPC: 3.996 (Simulation time: 00 hr 14 min 47 sec)
Heartbeat CPU 0 instructions: 40000004 cycles: 13787357 heartbeat IPC: 2.92 cumulative IPC: 2.901 (Simulation time: 00 hr 16 min 18 sec)
Heartbeat CPU 1 instructions: 60000002 cycles: 15000044 heartbeat IPC: 4 cumulative IPC: 4 (Simulation time: 00 hr 17 min 44 sec)
Heartbeat CPU 3 instructions: 60000002 cycles: 15015794 heartbeat IPC: 3.996 cumulative IPC: 3.996 (Simulation time: 00 hr 17 min 45 sec)
Heartbeat CPU 2 instructions: 50000002 cycles: 15372871 heartbeat IPC: 3.17 cumulative IPC: 3.252 (Simulation time: 00 hr 18 min 11 sec)
Warmup finished CPU 2 instructions: 50000002 cycles: 15372872 cumulative IPC: 3.252 (Simulation time: 00 hr 18 min 11 sec)
Heartbeat CPU 0 instructions: 50000002 cycles: 17216370 heartbeat IPC: 2.916 cumulative IPC: 2.904 (Simulation time: 00 hr 20 min 19 sec)
Warmup finished CPU 0 instructions: 50000002 cycles: 17216371 cumulative IPC: 2.904 (Simulation time: 00 hr 20 min 19 sec)
Warmup complete CPU 0 instructions: 50000002 cycles: 17216371 cumulative IPC: 2.904 (Simulation time: 00 hr 20 min 19 sec)
Warmup complete CPU 1 instructions: 68865306 cycles: 17216371 cumulative IPC: 4 (Simulation time: 00 hr 20 min 19 sec)
Warmup complete CPU 2 instructions: 56734252 cycles: 17216371 cumulative IPC: 3.295 (Simulation time: 00 hr 20 min 19 sec)
Warmup complete CPU 3 instructions: 68792163 cycles: 17216371 cumulative IPC: 3.996 (Simulation time: 00 hr 20 min 19 sec)
Heartbeat CPU 3 instructions: 70000000 cycles: 17796199 heartbeat IPC: 3.597 cumulative IPC: 2.083 (Simulation time: 00 hr 20 min 54 sec)
Heartbeat CPU 1 instructions: 70000001 cycles: 18140479 heartbeat IPC: 3.184 cumulative IPC: 1.228 (Simulation time: 00 hr 21 min 15 sec)
Heartbeat CPU 2 instructions: 60000003 cycles: 18853112 heartbeat IPC: 2.873 cumulative IPC: 1.995 (Simulation time: 00 hr 21 min 57 sec)
Heartbeat CPU 0 instructions: 60000001 cycles: 21068933 heartbeat IPC: 2.596 cumulative IPC: 2.596 (Simulation time: 00 hr 24 min 05 sec)
Heartbeat CPU 3 instructions: 80000000 cycles: 22502286 heartbeat IPC: 2.125 cumulative IPC: 2.12 (Simulation time: 00 hr 25 min 29 sec)
Heartbeat CPU 2 instructions: 70000001 cycles: 24568673 heartbeat IPC: 1.75 cumulative IPC: 1.804 (Simulation time: 00 hr 27 min 26 sec)
Heartbeat CPU 0 instructions: 70000000 cycles: 24949417 heartbeat IPC: 2.577 cumulative IPC: 2.586 (Simulation time: 00 hr 27 min 48 sec)
Heartbeat CPU 1 instructions: 80000003 cycles: 26550333 heartbeat IPC: 1.189 cumulative IPC: 1.193 (Simulation time: 00 hr 29 min 08 sec)
Heartbeat CPU 3 instructions: 90000004 cycles: 27220193 heartbeat IPC: 2.12 cumulative IPC: 2.12 (Simulation time: 00 hr 29 min 44 sec)
Heartbeat CPU 0 instructions: 80000003 cycles: 29839234 heartbeat IPC: 2.045 cumulative IPC: 2.377 (Simulation time: 00 hr 32 min 04 sec)
Heartbeat CPU 3 instructions: 100000000 cycles: 31938159 heartbeat IPC: 2.12 cumulative IPC: 2.12 (Simulation time: 00 hr 33 min 54 sec)
Heartbeat CPU 2 instructions: 80000001 cycles: 32141569 heartbeat IPC: 1.32 cumulative IPC: 1.559 (Simulation time: 00 hr 34 min 05 sec)
Heartbeat CPU 1 instructions: 90000000 cycles: 34531824 heartbeat IPC: 1.253 cumulative IPC: 1.221 (Simulation time: 00 hr 36 min 12 sec)
Heartbeat CPU 0 instructions: 90000001 cycles: 34926117 heartbeat IPC: 1.966 cumulative IPC: 2.259 (Simulation time: 00 hr 36 min 32 sec)
Heartbeat CPU 3 instructions: 110000001 cycles: 36640727 heartbeat IPC: 2.126 cumulative IPC: 2.121 (Simulation time: 00 hr 38 min 01 sec)
Heartbeat CPU 2 instructions: 90000001 cycles: 38086328 heartbeat IPC: 1.682 cumulative IPC: 1.594 (Simulation time: 00 hr 39 min 22 sec)
Heartbeat CPU 0 instructions: 100000000 cycles: 40424935 heartbeat IPC: 1.819 cumulative IPC: 2.154 (Simulation time: 00 hr 41 min 19 sec)
Heartbeat CPU 3 instructions: 120000000 cycles: 41268592 heartbeat IPC: 2.161 cumulative IPC: 2.129 (Simulation time: 00 hr 42 min 02 sec)
Heartbeat CPU 1 instructions: 100000003 cycles: 42486325 heartbeat IPC: 1.257 cumulative IPC: 1.232 (Simulation time: 00 hr 43 min 06 sec)
Heartbeat CPU 2 instructions: 100000002 cycles: 45056822 heartbeat IPC: 1.435 cumulative IPC: 1.554 (Simulation time: 00 hr 45 min 15 sec)
Heartbeat CPU 0 instructions: 110000001 cycles: 45777549 heartbeat IPC: 1.868 cumulative IPC: 2.101 (Simulation time: 00 hr 45 min 53 sec)
Heartbeat CPU 3 instructions: 130000002 cycles: 45929585 heartbeat IPC: 2.145 cumulative IPC: 2.132 (Simulation time: 00 hr 46 min 01 sec)
Heartbeat CPU 3 instructions: 140000000 cycles: 50611582 heartbeat IPC: 2.136 cumulative IPC: 2.132 (Simulation time: 00 hr 50 min 05 sec)
Heartbeat CPU 0 instructions: 120000000 cycles: 50713067 heartbeat IPC: 2.026 cumulative IPC: 2.09 (Simulation time: 00 hr 50 min 10 sec)
Heartbeat CPU 1 instructions: 110000003 cycles: 51008130 heartbeat IPC: 1.173 cumulative IPC: 1.217 (Simulation time: 00 hr 50 min 26 sec)
Heartbeat CPU 2 instructions: 110000004 cycles: 51704612 heartbeat IPC: 1.504 cumulative IPC: 1.544 (Simulation time: 00 hr 51 min 02 sec)
Heartbeat CPU 3 instructions: 150000004 cycles: 55225549 heartbeat IPC: 2.167 cumulative IPC: 2.137 (Simulation time: 00 hr 54 min 07 sec)
Heartbeat CPU 0 instructions: 130000001 cycles: 55652048 heartbeat IPC: 2.025 cumulative IPC: 2.081 (Simulation time: 00 hr 54 min 29 sec)
Heartbeat CPU 2 instructions: 120000000 cycles: 58207158 heartbeat IPC: 1.538 cumulative IPC: 1.543 (Simulation time: 00 hr 56 min 43 sec)
Heartbeat CPU 1 instructions: 120000004 cycles: 59685665 heartbeat IPC: 1.152 cumulative IPC: 1.204 (Simulation time: 00 hr 58 min 01 sec)
Heartbeat CPU 3 instructions: 160000003 cycles: 59841695 heartbeat IPC: 2.166 cumulative IPC: 2.14 (Simulation time: 00 hr 58 min 09 sec)
Heartbeat CPU 0 instructions: 140000000 cycles: 60731403 heartbeat IPC: 1.969 cumulative IPC: 2.068 (Simulation time: 00 hr 58 min 56 sec)
Heartbeat CPU 2 instructions: 130000001 cycles: 63537198 heartbeat IPC: 1.876 cumulative IPC: 1.582 (Simulation time: 01 hr 01 min 34 sec)
Heartbeat CPU 3 instructions: 170000003 cycles: 64439167 heartbeat IPC: 2.175 cumulative IPC: 2.143 (Simulation time: 01 hr 02 min 25 sec)
Heartbeat CPU 0 instructions: 150000003 cycles: 65675747 heartbeat IPC: 2.023 cumulative IPC: 2.064 (Simulation time: 01 hr 03 min 35 sec)
Heartbeat CPU 1 instructions: 130000002 cycles: 67851460 heartbeat IPC: 1.225 cumulative IPC: 1.207 (Simulation time: 01 hr 05 min 35 sec)
Heartbeat CPU 3 instructions: 180000004 cycles: 69045819 heartbeat IPC: 2.171 cumulative IPC: 2.146 (Simulation time: 01 hr 06 min 40 sec)
Heartbeat CPU 2 instructions: 140000000 cycles: 69119373 heartbeat IPC: 1.791 cumulative IPC: 1.604 (Simulation time: 01 hr 06 min 44 sec)
Heartbeat CPU 0 instructions: 160000000 cycles: 70667711 heartbeat IPC: 2.003 cumulative IPC: 2.058 (Simulation time: 01 hr 08 min 02 sec)
Heartbeat CPU 3 instructions: 190000002 cycles: 73669577 heartbeat IPC: 2.163 cumulative IPC: 2.147 (Simulation time: 01 hr 10 min 37 sec)
Heartbeat CPU 0 instructions: 170000003 cycles: 75678288 heartbeat IPC: 1.996 cumulative IPC: 2.053 (Simulation time: 01 hr 12 min 23 sec)
Heartbeat CPU 1 instructions: 140000001 cycles: 76219348 heartbeat IPC: 1.195 cumulative IPC: 1.206 (Simulation time: 01 hr 12 min 52 sec)
Heartbeat CPU 2 instructions: 150000004 cycles: 76572938 heartbeat IPC: 1.342 cumulative IPC: 1.571 (Simulation time: 01 hr 13 min 11 sec)
Heartbeat CPU 3 instructions: 200000000 cycles: 78297825 heartbeat IPC: 2.161 cumulative IPC: 2.148 (Simulation time: 01 hr 14 min 42 sec)
Heartbeat CPU 0 instructions: 180000000 cycles: 80637644 heartbeat IPC: 2.016 cumulative IPC: 2.05 (Simulation time: 01 hr 16 min 53 sec)
Heartbeat CPU 3 instructions: 210000000 cycles: 82883523 heartbeat IPC: 2.181 cumulative IPC: 2.15 (Simulation time: 01 hr 18 min 48 sec)
Heartbeat CPU 2 instructions: 160000004 cycles: 82943048 heartbeat IPC: 1.57 cumulative IPC: 1.571 (Simulation time: 01 hr 18 min 51 sec)
Heartbeat CPU 1 instructions: 150000001 cycles: 84336996 heartbeat IPC: 1.232 cumulative IPC: 1.209 (Simulation time: 01 hr 20 min 05 sec)
Heartbeat CPU 0 instructions: 190000000 cycles: 85613539 heartbeat IPC: 2.01 cumulative IPC: 2.047 (Simulation time: 01 hr 21 min 12 sec)
Simulation finished CPU 3 instructions: 150000000 cycles: 69702899 cumulative IPC: 2.152 (Simulation time: 01 hr 22 min 21 sec)
Heartbeat CPU 3 instructions: 220000000 cycles: 87458068 heartbeat IPC: 2.186 cumulative IPC: 2.153 (Simulation time: 01 hr 22 min 51 sec)
Heartbeat CPU 2 instructions: 170000004 cycles: 89260942 heartbeat IPC: 1.583 cumulative IPC: 1.572 (Simulation time: 01 hr 24 min 25 sec)
Heartbeat CPU 0 instructions: 200000004 cycles: 90611698 heartbeat IPC: 2.001 cumulative IPC: 2.044 (Simulation time: 01 hr 25 min 34 sec)
Simulation finished CPU 0 instructions: 150000002 cycles: 73395328 cumulative IPC: 2.044 (Simulation time: 01 hr 25 min 34 sec)
Heartbeat CPU 3 instructions: 230000001 cycles: 92052420 heartbeat IPC: 2.177 cumulative IPC: 2.154 (Simulation time: 01 hr 26 min 49 sec)
Heartbeat CPU 1 instructions: 160000003 cycles: 92554586 heartbeat IPC: 1.217 cumulative IPC: 1.21 (Simulation time: 01 hr 27 min 15 sec)
Heartbeat CPU 0 instructions: 210000002 cycles: 95682004 heartbeat IPC: 1.972 cumulative IPC: 2.039 (Simulation time: 01 hr 29 min 58 sec)
Heartbeat CPU 2 instructions: 180000002 cycles: 95917012 heartbeat IPC: 1.502 cumulative IPC: 1.566 (Simulation time: 01 hr 30 min 10 sec)
Heartbeat CPU 3 instructions: 240000000 cycles: 96672639 heartbeat IPC: 2.164 cumulative IPC: 2.155 (Simulation time: 01 hr 30 min 50 sec)
Heartbeat CPU 0 instructions: 220000000 cycles: 100643955 heartbeat IPC: 2.015 cumulative IPC: 2.038 (Simulation time: 01 hr 34 min 17 sec)
Heartbeat CPU 1 instructions: 170000004 cycles: 101209371 heartbeat IPC: 1.155 cumulative IPC: 1.204 (Simulation time: 01 hr 34 min 47 sec)
Heartbeat CPU 3 instructions: 250000002 cycles: 101300589 heartbeat IPC: 2.161 cumulative IPC: 2.155 (Simulation time: 01 hr 34 min 52 sec)
Heartbeat CPU 2 instructions: 190000001 cycles: 102442455 heartbeat IPC: 1.532 cumulative IPC: 1.564 (Simulation time: 01 hr 35 min 51 sec)
Heartbeat CPU 0 instructions: 230000002 cycles: 105611450 heartbeat IPC: 2.013 cumulative IPC: 2.036 (Simulation time: 01 hr 38 min 38 sec)
Heartbeat CPU 3 instructions: 260000000 cycles: 105964227 heartbeat IPC: 2.144 cumulative IPC: 2.155 (Simulation time: 01 hr 38 min 56 sec)
Heartbeat CPU 2 instructions: 200000002 cycles: 108301913 heartbeat IPC: 1.707 cumulative IPC: 1.573 (Simulation time: 01 hr 41 min 04 sec)
Heartbeat CPU 1 instructions: 180000001 cycles: 109721316 heartbeat IPC: 1.175 cumulative IPC: 1.201 (Simulation time: 01 hr 42 min 25 sec)
Heartbeat CPU 0 instructions: 240000001 cycles: 110535244 heartbeat IPC: 2.031 cumulative IPC: 2.036 (Simulation time: 01 hr 43 min 10 sec)
Heartbeat CPU 3 instructions: 270000000 cycles: 110594403 heartbeat IPC: 2.16 cumulative IPC: 2.155 (Simulation time: 01 hr 43 min 14 sec)
Simulation finished CPU 2 instructions: 150000000 cycles: 94320019 cumulative IPC: 1.59 (Simulation time: 01 hr 44 min 05 sec)
Heartbeat CPU 2 instructions: 210000001 cycles: 113288950 heartbeat IPC: 2.005 cumulative IPC: 1.595 (Simulation time: 01 hr 45 min 42 sec)
Heartbeat CPU 3 instructions: 280000001 cycles: 115225841 heartbeat IPC: 2.159 cumulative IPC: 2.155 (Simulation time: 01 hr 47 min 29 sec)
Heartbeat CPU 0 instructions: 250000002 cycles: 115353201 heartbeat IPC: 2.076 cumulative IPC: 2.038 (Simulation time: 01 hr 47 min 36 sec)
Heartbeat CPU 1 instructions: 190000002 cycles: 118096721 heartbeat IPC: 1.194 cumulative IPC: 1.201 (Simulation time: 01 hr 49 min 56 sec)
Heartbeat CPU 3 instructions: 290000004 cycles: 119872416 heartbeat IPC: 2.152 cumulative IPC: 2.155 (Simulation time: 01 hr 51 min 27 sec)
Heartbeat CPU 0 instructions: 260000003 cycles: 120365475 heartbeat IPC: 1.995 cumulative IPC: 2.036 (Simulation time: 01 hr 51 min 53 sec)
Heartbeat CPU 2 instructions: 220000000 cycles: 120820615 heartbeat IPC: 1.328 cumulative IPC: 1.576 (Simulation time: 01 hr 52 min 17 sec)
Heartbeat CPU 3 instructions: 300000000 cycles: 124502069 heartbeat IPC: 2.16 cumulative IPC: 2.155 (Simulation time: 01 hr 55 min 27 sec)
Heartbeat CPU 0 instructions: 270000001 cycles: 125416299 heartbeat IPC: 1.98 cumulative IPC: 2.033 (Simulation time: 01 hr 56 min 15 sec)
Heartbeat CPU 1 instructions: 200000001 cycles: 127133258 heartbeat IPC: 1.107 cumulative IPC: 1.193 (Simulation time: 01 hr 57 min 45 sec)
Heartbeat CPU 2 instructions: 230000000 cycles: 127491287 heartbeat IPC: 1.499 cumulative IPC: 1.571 (Simulation time: 01 hr 58 min 04 sec)
Heartbeat CPU 3 instructions: 310000001 cycles: 129129038 heartbeat IPC: 2.161 cumulative IPC: 2.155 (Simulation time: 01 hr 59 min 31 sec)
Heartbeat CPU 0 instructions: 280000001 cycles: 130364108 heartbeat IPC: 2.021 cumulative IPC: 2.033 (Simulation time: 02 hr 00 min 35 sec)
Heartbeat CPU 3 instructions: 320000001 cycles: 133749584 heartbeat IPC: 2.164 cumulative IPC: 2.156 (Simulation time: 02 hr 03 min 35 sec)
Heartbeat CPU 2 instructions: 240000001 cycles: 133947823 heartbeat IPC: 1.549 cumulative IPC: 1.57 (Simulation time: 02 hr 03 min 45 sec)
Heartbeat CPU 0 instructions: 290000000 cycles: 135242696 heartbeat IPC: 2.05 cumulative IPC: 2.033 (Simulation time: 02 hr 04 min 54 sec)
Heartbeat CPU 1 instructions: 210000002 cycles: 136170815 heartbeat IPC: 1.106 cumulative IPC: 1.186 (Simulation time: 02 hr 05 min 47 sec)
Heartbeat CPU 3 instructions: 330000001 cycles: 138359086 heartbeat IPC: 2.169 cumulative IPC: 2.156 (Simulation time: 02 hr 07 min 50 sec)
Heartbeat CPU 0 instructions: 300000004 cycles: 139292919 heartbeat IPC: 2.469 cumulative IPC: 2.048 (Simulation time: 02 hr 08 min 41 sec)
Heartbeat CPU 2 instructions: 250000001 cycles: 140440573 heartbeat IPC: 1.54 cumulative IPC: 1.568 (Simulation time: 02 hr 09 min 43 sec)
Heartbeat CPU 0 instructions: 310000000 cycles: 143453665 heartbeat IPC: 2.403 cumulative IPC: 2.06 (Simulation time: 02 hr 12 min 37 sec)
Heartbeat CPU 3 instructions: 340000000 cycles: 144152263 heartbeat IPC: 1.726 cumulative IPC: 2.137 (Simulation time: 02 hr 13 min 15 sec)
Simulation finished CPU 1 instructions: 150000004 cycles: 127609844 cumulative IPC: 1.175 (Simulation time: 02 hr 13 min 52 sec)
Simulation complete CPU 0 instructions: 262613986 cycles: 127609844 cumulative IPC: 2.058 (Simulation time: 02 hr 13 min 52 sec)
Simulation complete CPU 1 instructions: 150000004 cycles: 127609844 cumulative IPC: 1.175 (Simulation time: 02 hr 13 min 52 sec)
Simulation complete CPU 2 instructions: 200057476 cycles: 127609844 cumulative IPC: 1.568 (Simulation time: 02 hr 13 min 52 sec)
Simulation complete CPU 3 instructions: 272482757 cycles: 127609844 cumulative IPC: 2.135 (Simulation time: 02 hr 13 min 52 sec)

ChampSim completed all CPUs

=== Simulation ===
CPU 0 runs /home/grads/r/rdas40/dpc3_traces/644.nab_s-5853B.champsimtrace.xzCPU 1 runs /home/grads/r/rdas40/dpc3_traces/649.fotonik3d_s-1176B.champsimtrace.xzCPU 2 runs /home/grads/r/rdas40/dpc3_traces/623.xalancbmk_s-700B.champsimtrace.xzCPU 3 runs /home/grads/r/rdas40/dpc3_traces/621.wrf_s-575B.champsimtrace.xz
Total Simulation Statistics (not including warmup)

CPU 0 cumulative IPC: 2.058 instructions: 262613986 cycles: 127609844
CPU 0 Branch Prediction Accuracy: 86.07% MPKI: 13.49 Average ROB Occupancy at Mispredict: 112.8
Branch type MPKI
BRANCH_DIRECT_JUMP: 0.000118
BRANCH_INDIRECT: 3.81e-06
BRANCH_CONDITIONAL: 7.96
BRANCH_DIRECT_CALL: 0
BRANCH_INDIRECT_CALL: 0
BRANCH_RETURN: 5.53


CPU 1 cumulative IPC: 1.175 instructions: 150000004 cycles: 127609844
CPU 1 Branch Prediction Accuracy: 99.98% MPKI: 0.00438 Average ROB Occupancy at Mispredict: 352
Branch type MPKI
BRANCH_DIRECT_JUMP: 0
BRANCH_INDIRECT: 0
BRANCH_CONDITIONAL: 0.00438
BRANCH_DIRECT_CALL: 0
BRANCH_INDIRECT_CALL: 0
BRANCH_RETURN: 0


CPU 2 cumulative IPC: 1.568 instructions: 200057476 cycles: 127609844
CPU 2 Branch Prediction Accuracy: 96.85% MPKI: 8.73 Average ROB Occupancy at Mispredict: 40.23
Branch type MPKI
BRANCH_DIRECT_JUMP: 0.125
BRANCH_INDIRECT: 0.383
BRANCH_CONDITIONAL: 6.16
BRANCH_DIRECT_CALL: 0.00063
BRANCH_INDIRECT_CALL: 0.425
BRANCH_RETURN: 1.63


CPU 3 cumulative IPC: 2.135 instructions: 272482757 cycles: 127609844
CPU 3 Branch Prediction Accuracy: 95.01% MPKI: 6.674 Average ROB Occupancy at Mispredict: 80.08
Branch type MPKI
BRANCH_DIRECT_JUMP: 0.000228
BRANCH_INDIRECT: 3.67e-06
BRANCH_CONDITIONAL: 6.64
BRANCH_DIRECT_CALL: 0.000584
BRANCH_INDIRECT_CALL: 0
BRANCH_RETURN: 0.0313

LLC TOTAL        ACCESS:      54156 HIT:        440 MISS:      53716
LLC LOAD         ACCESS:      51670 HIT:        317 MISS:      51353
LLC RFO          ACCESS:        109 HIT:         34 MISS:         75
LLC PREFETCH     ACCESS:          0 HIT:          0 MISS:          0
LLC WRITE        ACCESS:       1713 HIT:         87 MISS:       1626
LLC TRANSLATION  ACCESS:        664 HIT:          2 MISS:        662
LLC PREFETCH REQUESTED:          0 ISSUED:          0 USEFUL:          0 USELESS:          0
LLC AVERAGE MISS LATENCY: 305.9 cycles
LLC TOTAL        ACCESS:    2797103 HIT:    1481266 MISS:    1315837
LLC LOAD         ACCESS:    1481898 HIT:     166186 MISS:    1315712
LLC RFO          ACCESS:         16 HIT:         16 MISS:          0
LLC PREFETCH     ACCESS:          0 HIT:          0 MISS:          0
LLC WRITE        ACCESS:    1314870 HIT:    1314860 MISS:         10
LLC TRANSLATION  ACCESS:        319 HIT:        204 MISS:        115
LLC PREFETCH REQUESTED:          0 ISSUED:          0 USEFUL:          0 USELESS:          0
LLC AVERAGE MISS LATENCY: 305.9 cycles
LLC TOTAL        ACCESS:    1165811 HIT:     858444 MISS:     307367
LLC LOAD         ACCESS:     544545 HIT:     482510 MISS:      62035
LLC RFO          ACCESS:     260900 HIT:      29437 MISS:     231463
LLC PREFETCH     ACCESS:          0 HIT:          0 MISS:          0
LLC WRITE        ACCESS:     319710 HIT:     317227 MISS:       2483
LLC TRANSLATION  ACCESS:      40656 HIT:      29270 MISS:      11386
LLC PREFETCH REQUESTED:          0 ISSUED:          0 USEFUL:          0 USELESS:          0
LLC AVERAGE MISS LATENCY: 305.9 cycles
LLC TOTAL        ACCESS:      25347 HIT:       1968 MISS:      23379
LLC LOAD         ACCESS:       9453 HIT:        382 MISS:       9071
LLC RFO          ACCESS:       7799 HIT:         22 MISS:       7777
LLC PREFETCH     ACCESS:          0 HIT:          0 MISS:          0
LLC WRITE        ACCESS:       7678 HIT:       1564 MISS:       6114
LLC TRANSLATION  ACCESS:        417 HIT:          0 MISS:        417
LLC PREFETCH REQUESTED:          0 ISSUED:          0 USEFUL:          0 USELESS:          0
LLC AVERAGE MISS LATENCY: 305.9 cycles
cpu0_DTLB TOTAL        ACCESS:   52858278 HIT:   52771450 MISS:      86828
cpu0_DTLB LOAD         ACCESS:   52858278 HIT:   52771450 MISS:      86828
cpu0_DTLB RFO          ACCESS:          0 HIT:          0 MISS:          0
cpu0_DTLB PREFETCH     ACCESS:          0 HIT:          0 MISS:          0
cpu0_DTLB WRITE        ACCESS:          0 HIT:          0 MISS:          0
cpu0_DTLB TRANSLATION  ACCESS:          0 HIT:          0 MISS:          0
cpu0_DTLB PREFETCH REQUESTED:          0 ISSUED:          0 USEFUL:          0 USELESS:          0
cpu0_DTLB AVERAGE MISS LATENCY: 14.62 cycles
cpu0_DTLB TOTAL        ACCESS:          0 HIT:          0 MISS:          0
cpu0_DTLB LOAD         ACCESS:          0 HIT:          0 MISS:          0
cpu0_DTLB RFO          ACCESS:          0 HIT:          0 MISS:          0
cpu0_DTLB PREFETCH     ACCESS:          0 HIT:          0 MISS:          0
cpu0_DTLB WRITE        ACCESS:          0 HIT:          0 MISS:          0
cpu0_DTLB TRANSLATION  ACCESS:          0 HIT:          0 MISS:          0
cpu0_DTLB PREFETCH REQUESTED:          0 ISSUED:          0 USEFUL:          0 USELESS:          0
cpu0_DTLB AVERAGE MISS LATENCY: 14.62 cycles
cpu0_DTLB TOTAL        ACCESS:          0 HIT:          0 MISS:          0
cpu0_DTLB LOAD         ACCESS:          0 HIT:          0 MISS:          0
cpu0_DTLB RFO          ACCESS:          0 HIT:          0 MISS:          0
cpu0_DTLB PREFETCH     ACCESS:          0 HIT:          0 MISS:          0
cpu0_DTLB WRITE        ACCESS:          0 HIT:          0 MISS:          0
cpu0_DTLB TRANSLATION  ACCESS:          0 HIT:          0 MISS:          0
cpu0_DTLB PREFETCH REQUESTED:          0 ISSUED:          0 USEFUL:          0 USELESS:          0
cpu0_DTLB AVERAGE MISS LATENCY: 14.62 cycles
cpu0_DTLB TOTAL        ACCESS:          0 HIT:          0 MISS:          0
cpu0_DTLB LOAD         ACCESS:          0 HIT:          0 MISS:          0
cpu0_DTLB RFO          ACCESS:          0 HIT:          0 MISS:          0
cpu0_DTLB PREFETCH     ACCESS:          0 HIT:          0 MISS:          0
cpu0_DTLB WRITE        ACCESS:          0 HIT:          0 MISS:          0
cpu0_DTLB TRANSLATION  ACCESS:          0 HIT:          0 MISS:          0
cpu0_DTLB PREFETCH REQUESTED:          0 ISSUED:          0 USEFUL:          0 USELESS:          0
cpu0_DTLB AVERAGE MISS LATENCY: 14.62 cycles
cpu0_ITLB TOTAL        ACCESS:       2412 HIT:       2412 MISS:          0
cpu0_ITLB LOAD         ACCESS:       2412 HIT:       2412 MISS:          0
cpu0_ITLB RFO          ACCESS:          0 HIT:          0 MISS:          0
cpu0_ITLB PREFETCH     ACCESS:          0 HIT:          0 MISS:          0
cpu0_ITLB WRITE        ACCESS:          0 HIT:          0 MISS:          0
cpu0_ITLB TRANSLATION  ACCESS:          0 HIT:          0 MISS:          0
cpu0_ITLB PREFETCH REQUESTED:          0 ISSUED:          0 USEFUL:          0 USELESS:          0
cpu0_ITLB AVERAGE MISS LATENCY: -nan cycles
cpu0_ITLB TOTAL        ACCESS:          0 HIT:          0 MISS:          0
cpu0_ITLB LOAD         ACCESS:          0 HIT:          0 MISS:          0
cpu0_ITLB RFO          ACCESS:          0 HIT:          0 MISS:          0
cpu0_ITLB PREFETCH     ACCESS:          0 HIT:          0 MISS:          0
cpu0_ITLB WRITE        ACCESS:          0 HIT:          0 MISS:          0
cpu0_ITLB TRANSLATION  ACCESS:          0 HIT:          0 MISS:          0
cpu0_ITLB PREFETCH REQUESTED:          0 ISSUED:          0 USEFUL:          0 USELESS:          0
cpu0_ITLB AVERAGE MISS LATENCY: -nan cycles
cpu0_ITLB TOTAL        ACCESS:          0 HIT:          0 MISS:          0
cpu0_ITLB LOAD         ACCESS:          0 HIT:          0 MISS:          0
cpu0_ITLB RFO          ACCESS:          0 HIT:          0 MISS:          0
cpu0_ITLB PREFETCH     ACCESS:          0 HIT:          0 MISS:          0
cpu0_ITLB WRITE        ACCESS:          0 HIT:          0 MISS:          0
cpu0_ITLB TRANSLATION  ACCESS:          0 HIT:          0 MISS:          0
cpu0_ITLB PREFETCH REQUESTED:          0 ISSUED:          0 USEFUL:          0 USELESS:          0
cpu0_ITLB AVERAGE MISS LATENCY: -nan cycles
cpu0_ITLB TOTAL        ACCESS:          0 HIT:          0 MISS:          0
cpu0_ITLB LOAD         ACCESS:          0 HIT:          0 MISS:          0
cpu0_ITLB RFO          ACCESS:          0 HIT:          0 MISS:          0
cpu0_ITLB PREFETCH     ACCESS:          0 HIT:          0 MISS:          0
cpu0_ITLB WRITE        ACCESS:          0 HIT:          0 MISS:          0
cpu0_ITLB TRANSLATION  ACCESS:          0 HIT:          0 MISS:          0
cpu0_ITLB PREFETCH REQUESTED:          0 ISSUED:          0 USEFUL:          0 USELESS:          0
cpu0_ITLB AVERAGE MISS LATENCY: -nan cycles
cpu0_L1D TOTAL        ACCESS:   68958245 HIT:   67900805 MISS:    1057440
cpu0_L1D LOAD         ACCESS:   40317847 HIT:   39269188 MISS:    1048659
cpu0_L1D RFO          ACCESS:          0 HIT:          0 MISS:          0
cpu0_L1D PREFETCH     ACCESS:          0 HIT:          0 MISS:          0
cpu0_L1D WRITE        ACCESS:   28638370 HIT:   28631587 MISS:       6783
cpu0_L1D TRANSLATION  ACCESS:       2028 HIT:         30 MISS:       1998
cpu0_L1D PREFETCH REQUESTED:          0 ISSUED:          0 USEFUL:          0 USELESS:          0
cpu0_L1D AVERAGE MISS LATENCY: 23.74 cycles
cpu0_L1D TOTAL        ACCESS:          0 HIT:          0 MISS:          0
cpu0_L1D LOAD         ACCESS:          0 HIT:          0 MISS:          0
cpu0_L1D RFO          ACCESS:          0 HIT:          0 MISS:          0
cpu0_L1D PREFETCH     ACCESS:          0 HIT:          0 MISS:          0
cpu0_L1D WRITE        ACCESS:          0 HIT:          0 MISS:          0
cpu0_L1D TRANSLATION  ACCESS:          0 HIT:          0 MISS:          0
cpu0_L1D PREFETCH REQUESTED:          0 ISSUED:          0 USEFUL:          0 USELESS:          0
cpu0_L1D AVERAGE MISS LATENCY: 23.74 cycles
cpu0_L1D TOTAL        ACCESS:          0 HIT:          0 MISS:          0
cpu0_L1D LOAD         ACCESS:          0 HIT:          0 MISS:          0
cpu0_L1D RFO          ACCESS:          0 HIT:          0 MISS:          0
cpu0_L1D PREFETCH     ACCESS:          0 HIT:          0 MISS:          0
cpu0_L1D WRITE        ACCESS:          0 HIT:          0 MISS:          0
cpu0_L1D TRANSLATION  ACCESS:          0 HIT:          0 MISS:          0
cpu0_L1D PREFETCH REQUESTED:          0 ISSUED:          0 USEFUL:          0 USELESS:          0
cpu0_L1D AVERAGE MISS LATENCY: 23.74 cycles
cpu0_L1D TOTAL        ACCESS:          0 HIT:          0 MISS:          0
cpu0_L1D LOAD         ACCESS:          0 HIT:          0 MISS:          0
cpu0_L1D RFO          ACCESS:          0 HIT:          0 MISS:          0
cpu0_L1D PREFETCH     ACCESS:          0 HIT:          0 MISS:          0
cpu0_L1D WRITE        ACCESS:          0 HIT:          0 MISS:          0
cpu0_L1D TRANSLATION  ACCESS:          0 HIT:          0 MISS:          0
cpu0_L1D PREFETCH REQUESTED:          0 ISSUED:          0 USEFUL:          0 USELESS:          0
cpu0_L1D AVERAGE MISS LATENCY: 23.74 cycles
cpu0_L1I TOTAL        ACCESS:       2896 HIT:       2895 MISS:          1
cpu0_L1I LOAD         ACCESS:       2896 HIT:       2895 MISS:          1
cpu0_L1I RFO          ACCESS:          0 HIT:          0 MISS:          0
cpu0_L1I PREFETCH     ACCESS:          0 HIT:          0 MISS:          0
cpu0_L1I WRITE        ACCESS:          0 HIT:          0 MISS:          0
cpu0_L1I TRANSLATION  ACCESS:          0 HIT:          0 MISS:          0
cpu0_L1I PREFETCH REQUESTED:          0 ISSUED:          0 USEFUL:          0 USELESS:          0
cpu0_L1I AVERAGE MISS LATENCY: 483 cycles
cpu0_L1I TOTAL        ACCESS:          0 HIT:          0 MISS:          0
cpu0_L1I LOAD         ACCESS:          0 HIT:          0 MISS:          0
cpu0_L1I RFO          ACCESS:          0 HIT:          0 MISS:          0
cpu0_L1I PREFETCH     ACCESS:          0 HIT:          0 MISS:          0
cpu0_L1I WRITE        ACCESS:          0 HIT:          0 MISS:          0
cpu0_L1I TRANSLATION  ACCESS:          0 HIT:          0 MISS:          0
cpu0_L1I PREFETCH REQUESTED:          0 ISSUED:          0 USEFUL:          0 USELESS:          0
cpu0_L1I AVERAGE MISS LATENCY: 483 cycles
cpu0_L1I TOTAL        ACCESS:          0 HIT:          0 MISS:          0
cpu0_L1I LOAD         ACCESS:          0 HIT:          0 MISS:          0
cpu0_L1I RFO          ACCESS:          0 HIT:          0 MISS:          0
cpu0_L1I PREFETCH     ACCESS:          0 HIT:          0 MISS:          0
cpu0_L1I WRITE        ACCESS:          0 HIT:          0 MISS:          0
cpu0_L1I TRANSLATION  ACCESS:          0 HIT:          0 MISS:          0
cpu0_L1I PREFETCH REQUESTED:          0 ISSUED:          0 USEFUL:          0 USELESS:          0
cpu0_L1I AVERAGE MISS LATENCY: 483 cycles
cpu0_L1I TOTAL        ACCESS:          0 HIT:          0 MISS:          0
cpu0_L1I LOAD         ACCESS:          0 HIT:          0 MISS:          0
cpu0_L1I RFO          ACCESS:          0 HIT:          0 MISS:          0
cpu0_L1I PREFETCH     ACCESS:          0 HIT:          0 MISS:          0
cpu0_L1I WRITE        ACCESS:          0 HIT:          0 MISS:          0
cpu0_L1I TRANSLATION  ACCESS:          0 HIT:          0 MISS:          0
cpu0_L1I PREFETCH REQUESTED:          0 ISSUED:          0 USEFUL:          0 USELESS:          0
cpu0_L1I AVERAGE MISS LATENCY: 483 cycles
cpu0_L2C TOTAL        ACCESS:    1399554 HIT:    1347107 MISS:      52447
cpu0_L2C LOAD         ACCESS:    1039266 HIT:     987596 MISS:      51670
cpu0_L2C RFO          ACCESS:       1953 HIT:       1844 MISS:        109
cpu0_L2C PREFETCH     ACCESS:          0 HIT:          0 MISS:          0
cpu0_L2C WRITE        ACCESS:     356337 HIT:     356333 MISS:          4
cpu0_L2C TRANSLATION  ACCESS:       1998 HIT:       1334 MISS:        664
cpu0_L2C PREFETCH REQUESTED:          0 ISSUED:          0 USEFUL:          0 USELESS:          0
cpu0_L2C AVERAGE MISS LATENCY: 279.3 cycles
cpu0_L2C TOTAL        ACCESS:          0 HIT:          0 MISS:          0
cpu0_L2C LOAD         ACCESS:          0 HIT:          0 MISS:          0
cpu0_L2C RFO          ACCESS:          0 HIT:          0 MISS:          0
cpu0_L2C PREFETCH     ACCESS:          0 HIT:          0 MISS:          0
cpu0_L2C WRITE        ACCESS:          0 HIT:          0 MISS:          0
cpu0_L2C TRANSLATION  ACCESS:          0 HIT:          0 MISS:          0
cpu0_L2C PREFETCH REQUESTED:          0 ISSUED:          0 USEFUL:          0 USELESS:          0
cpu0_L2C AVERAGE MISS LATENCY: 279.3 cycles
cpu0_L2C TOTAL        ACCESS:          0 HIT:          0 MISS:          0
cpu0_L2C LOAD         ACCESS:          0 HIT:          0 MISS:          0
cpu0_L2C RFO          ACCESS:          0 HIT:          0 MISS:          0
cpu0_L2C PREFETCH     ACCESS:          0 HIT:          0 MISS:          0
cpu0_L2C WRITE        ACCESS:          0 HIT:          0 MISS:          0
cpu0_L2C TRANSLATION  ACCESS:          0 HIT:          0 MISS:          0
cpu0_L2C PREFETCH REQUESTED:          0 ISSUED:          0 USEFUL:          0 USELESS:          0
cpu0_L2C AVERAGE MISS LATENCY: 279.3 cycles
cpu0_L2C TOTAL        ACCESS:          0 HIT:          0 MISS:          0
cpu0_L2C LOAD         ACCESS:          0 HIT:          0 MISS:          0
cpu0_L2C RFO          ACCESS:          0 HIT:          0 MISS:          0
cpu0_L2C PREFETCH     ACCESS:          0 HIT:          0 MISS:          0
cpu0_L2C WRITE        ACCESS:          0 HIT:          0 MISS:          0
cpu0_L2C TRANSLATION  ACCESS:          0 HIT:          0 MISS:          0
cpu0_L2C PREFETCH REQUESTED:          0 ISSUED:          0 USEFUL:          0 USELESS:          0
cpu0_L2C AVERAGE MISS LATENCY: 279.3 cycles
cpu0_STLB TOTAL        ACCESS:      80147 HIT:      78151 MISS:       1996
cpu0_STLB LOAD         ACCESS:      80147 HIT:      78151 MISS:       1996
cpu0_STLB RFO          ACCESS:          0 HIT:          0 MISS:          0
cpu0_STLB PREFETCH     ACCESS:          0 HIT:          0 MISS:          0
cpu0_STLB WRITE        ACCESS:          0 HIT:          0 MISS:          0
cpu0_STLB TRANSLATION  ACCESS:          0 HIT:          0 MISS:          0
cpu0_STLB PREFETCH REQUESTED:          0 ISSUED:          0 USEFUL:          0 USELESS:          0
cpu0_STLB AVERAGE MISS LATENCY: 336.2 cycles
cpu0_STLB TOTAL        ACCESS:          0 HIT:          0 MISS:          0
cpu0_STLB LOAD         ACCESS:          0 HIT:          0 MISS:          0
cpu0_STLB RFO          ACCESS:          0 HIT:          0 MISS:          0
cpu0_STLB PREFETCH     ACCESS:          0 HIT:          0 MISS:          0
cpu0_STLB WRITE        ACCESS:          0 HIT:          0 MISS:          0
cpu0_STLB TRANSLATION  ACCESS:          0 HIT:          0 MISS:          0
cpu0_STLB PREFETCH REQUESTED:          0 ISSUED:          0 USEFUL:          0 USELESS:          0
cpu0_STLB AVERAGE MISS LATENCY: 336.2 cycles
cpu0_STLB TOTAL        ACCESS:          0 HIT:          0 MISS:          0
cpu0_STLB LOAD         ACCESS:          0 HIT:          0 MISS:          0
cpu0_STLB RFO          ACCESS:          0 HIT:          0 MISS:          0
cpu0_STLB PREFETCH     ACCESS:          0 HIT:          0 MISS:          0
cpu0_STLB WRITE        ACCESS:          0 HIT:          0 MISS:          0
cpu0_STLB TRANSLATION  ACCESS:          0 HIT:          0 MISS:          0
cpu0_STLB PREFETCH REQUESTED:          0 ISSUED:          0 USEFUL:          0 USELESS:          0
cpu0_STLB AVERAGE MISS LATENCY: 336.2 cycles
cpu0_STLB TOTAL        ACCESS:          0 HIT:          0 MISS:          0
cpu0_STLB LOAD         ACCESS:          0 HIT:          0 MISS:          0
cpu0_STLB RFO          ACCESS:          0 HIT:          0 MISS:          0
cpu0_STLB PREFETCH     ACCESS:          0 HIT:          0 MISS:          0
cpu0_STLB WRITE        ACCESS:          0 HIT:          0 MISS:          0
cpu0_STLB TRANSLATION  ACCESS:          0 HIT:          0 MISS:          0
cpu0_STLB PREFETCH REQUESTED:          0 ISSUED:          0 USEFUL:          0 USELESS:          0
cpu0_STLB AVERAGE MISS LATENCY: 336.2 cycles
cpu1_DTLB TOTAL        ACCESS:          0 HIT:          0 MISS:          0
cpu1_DTLB LOAD         ACCESS:          0 HIT:          0 MISS:          0
cpu1_DTLB RFO          ACCESS:          0 HIT:          0 MISS:          0
cpu1_DTLB PREFETCH     ACCESS:          0 HIT:          0 MISS:          0
cpu1_DTLB WRITE        ACCESS:          0 HIT:          0 MISS:          0
cpu1_DTLB TRANSLATION  ACCESS:          0 HIT:          0 MISS:          0
cpu1_DTLB PREFETCH REQUESTED:          0 ISSUED:          0 USEFUL:          0 USELESS:          0
cpu1_DTLB AVERAGE MISS LATENCY: 30.07 cycles
cpu1_DTLB TOTAL        ACCESS:   17127681 HIT:   17022197 MISS:     105484
cpu1_DTLB LOAD         ACCESS:   17127681 HIT:   17022197 MISS:     105484
cpu1_DTLB RFO          ACCESS:          0 HIT:          0 MISS:          0
cpu1_DTLB PREFETCH     ACCESS:          0 HIT:          0 MISS:          0
cpu1_DTLB WRITE        ACCESS:          0 HIT:          0 MISS:          0
cpu1_DTLB TRANSLATION  ACCESS:          0 HIT:          0 MISS:          0
cpu1_DTLB PREFETCH REQUESTED:          0 ISSUED:          0 USEFUL:          0 USELESS:          0
cpu1_DTLB AVERAGE MISS LATENCY: 30.07 cycles
cpu1_DTLB TOTAL        ACCESS:          0 HIT:          0 MISS:          0
cpu1_DTLB LOAD         ACCESS:          0 HIT:          0 MISS:          0
cpu1_DTLB RFO          ACCESS:          0 HIT:          0 MISS:          0
cpu1_DTLB PREFETCH     ACCESS:          0 HIT:          0 MISS:          0
cpu1_DTLB WRITE        ACCESS:          0 HIT:          0 MISS:          0
cpu1_DTLB TRANSLATION  ACCESS:          0 HIT:          0 MISS:          0
cpu1_DTLB PREFETCH REQUESTED:          0 ISSUED:          0 USEFUL:          0 USELESS:          0
cpu1_DTLB AVERAGE MISS LATENCY: 30.07 cycles
cpu1_DTLB TOTAL        ACCESS:          0 HIT:          0 MISS:          0
cpu1_DTLB LOAD         ACCESS:          0 HIT:          0 MISS:          0
cpu1_DTLB RFO          ACCESS:          0 HIT:          0 MISS:          0
cpu1_DTLB PREFETCH     ACCESS:          0 HIT:          0 MISS:          0
cpu1_DTLB WRITE        ACCESS:          0 HIT:          0 MISS:          0
cpu1_DTLB TRANSLATION  ACCESS:          0 HIT:          0 MISS:          0
cpu1_DTLB PREFETCH REQUESTED:          0 ISSUED:          0 USEFUL:          0 USELESS:          0
cpu1_DTLB AVERAGE MISS LATENCY: 30.07 cycles
cpu1_ITLB TOTAL        ACCESS:          0 HIT:          0 MISS:          0
cpu1_ITLB LOAD         ACCESS:          0 HIT:          0 MISS:          0
cpu1_ITLB RFO          ACCESS:          0 HIT:          0 MISS:          0
cpu1_ITLB PREFETCH     ACCESS:          0 HIT:          0 MISS:          0
cpu1_ITLB WRITE        ACCESS:          0 HIT:          0 MISS:          0
cpu1_ITLB TRANSLATION  ACCESS:          0 HIT:          0 MISS:          0
cpu1_ITLB PREFETCH REQUESTED:          0 ISSUED:          0 USEFUL:          0 USELESS:          0
cpu1_ITLB AVERAGE MISS LATENCY: -nan cycles
cpu1_ITLB TOTAL        ACCESS:          0 HIT:          0 MISS:          0
cpu1_ITLB LOAD         ACCESS:          0 HIT:          0 MISS:          0
cpu1_ITLB RFO          ACCESS:          0 HIT:          0 MISS:          0
cpu1_ITLB PREFETCH     ACCESS:          0 HIT:          0 MISS:          0
cpu1_ITLB WRITE        ACCESS:          0 HIT:          0 MISS:          0
cpu1_ITLB TRANSLATION  ACCESS:          0 HIT:          0 MISS:          0
cpu1_ITLB PREFETCH REQUESTED:          0 ISSUED:          0 USEFUL:          0 USELESS:          0
cpu1_ITLB AVERAGE MISS LATENCY: -nan cycles
cpu1_ITLB TOTAL        ACCESS:          0 HIT:          0 MISS:          0
cpu1_ITLB LOAD         ACCESS:          0 HIT:          0 MISS:          0
cpu1_ITLB RFO          ACCESS:          0 HIT:          0 MISS:          0
cpu1_ITLB PREFETCH     ACCESS:          0 HIT:          0 MISS:          0
cpu1_ITLB WRITE        ACCESS:          0 HIT:          0 MISS:          0
cpu1_ITLB TRANSLATION  ACCESS:          0 HIT:          0 MISS:          0
cpu1_ITLB PREFETCH REQUESTED:          0 ISSUED:          0 USEFUL:          0 USELESS:          0
cpu1_ITLB AVERAGE MISS LATENCY: -nan cycles
cpu1_ITLB TOTAL        ACCESS:          0 HIT:          0 MISS:          0
cpu1_ITLB LOAD         ACCESS:          0 HIT:          0 MISS:          0
cpu1_ITLB RFO          ACCESS:          0 HIT:          0 MISS:          0
cpu1_ITLB PREFETCH     ACCESS:          0 HIT:          0 MISS:          0
cpu1_ITLB WRITE        ACCESS:          0 HIT:          0 MISS:          0
cpu1_ITLB TRANSLATION  ACCESS:          0 HIT:          0 MISS:          0
cpu1_ITLB PREFETCH REQUESTED:          0 ISSUED:          0 USEFUL:          0 USELESS:          0
cpu1_ITLB AVERAGE MISS LATENCY: -nan cycles
cpu1_L1D TOTAL        ACCESS:          0 HIT:          0 MISS:          0
cpu1_L1D LOAD         ACCESS:          0 HIT:          0 MISS:          0
cpu1_L1D RFO          ACCESS:          0 HIT:          0 MISS:          0
cpu1_L1D PREFETCH     ACCESS:          0 HIT:          0 MISS:          0
cpu1_L1D WRITE        ACCESS:          0 HIT:          0 MISS:          0
cpu1_L1D TRANSLATION  ACCESS:          0 HIT:          0 MISS:          0
cpu1_L1D PREFETCH REQUESTED:          0 ISSUED:          0 USEFUL:          0 USELESS:          0
cpu1_L1D AVERAGE MISS LATENCY: 87.16 cycles
cpu1_L1D TOTAL        ACCESS:   25384753 HIT:   21633634 MISS:    3751119
cpu1_L1D LOAD         ACCESS:   14833279 HIT:   11090784 MISS:    3742495
cpu1_L1D RFO          ACCESS:          0 HIT:          0 MISS:          0
cpu1_L1D PREFETCH     ACCESS:          0 HIT:          0 MISS:          0
cpu1_L1D WRITE        ACCESS:   10530814 HIT:   10523002 MISS:       7812
cpu1_L1D TRANSLATION  ACCESS:      20660 HIT:      19848 MISS:        812
cpu1_L1D PREFETCH REQUESTED:          0 ISSUED:          0 USEFUL:          0 USELESS:          0
cpu1_L1D AVERAGE MISS LATENCY: 87.16 cycles
cpu1_L1D TOTAL        ACCESS:          0 HIT:          0 MISS:          0
cpu1_L1D LOAD         ACCESS:          0 HIT:          0 MISS:          0
cpu1_L1D RFO          ACCESS:          0 HIT:          0 MISS:          0
cpu1_L1D PREFETCH     ACCESS:          0 HIT:          0 MISS:          0
cpu1_L1D WRITE        ACCESS:          0 HIT:          0 MISS:          0
cpu1_L1D TRANSLATION  ACCESS:          0 HIT:          0 MISS:          0
cpu1_L1D PREFETCH REQUESTED:          0 ISSUED:          0 USEFUL:          0 USELESS:          0
cpu1_L1D AVERAGE MISS LATENCY: 87.16 cycles
cpu1_L1D TOTAL        ACCESS:          0 HIT:          0 MISS:          0
cpu1_L1D LOAD         ACCESS:          0 HIT:          0 MISS:          0
cpu1_L1D RFO          ACCESS:          0 HIT:          0 MISS:          0
cpu1_L1D PREFETCH     ACCESS:          0 HIT:          0 MISS:          0
cpu1_L1D WRITE        ACCESS:          0 HIT:          0 MISS:          0
cpu1_L1D TRANSLATION  ACCESS:          0 HIT:          0 MISS:          0
cpu1_L1D PREFETCH REQUESTED:          0 ISSUED:          0 USEFUL:          0 USELESS:          0
cpu1_L1D AVERAGE MISS LATENCY: 87.16 cycles
cpu1_L1I TOTAL        ACCESS:          0 HIT:          0 MISS:          0
cpu1_L1I LOAD         ACCESS:          0 HIT:          0 MISS:          0
cpu1_L1I RFO          ACCESS:          0 HIT:          0 MISS:          0
cpu1_L1I PREFETCH     ACCESS:          0 HIT:          0 MISS:          0
cpu1_L1I WRITE        ACCESS:          0 HIT:          0 MISS:          0
cpu1_L1I TRANSLATION  ACCESS:          0 HIT:          0 MISS:          0
cpu1_L1I PREFETCH REQUESTED:          0 ISSUED:          0 USEFUL:          0 USELESS:          0
cpu1_L1I AVERAGE MISS LATENCY: -nan cycles
cpu1_L1I TOTAL        ACCESS:          0 HIT:          0 MISS:          0
cpu1_L1I LOAD         ACCESS:          0 HIT:          0 MISS:          0
cpu1_L1I RFO          ACCESS:          0 HIT:          0 MISS:          0
cpu1_L1I PREFETCH     ACCESS:          0 HIT:          0 MISS:          0
cpu1_L1I WRITE        ACCESS:          0 HIT:          0 MISS:          0
cpu1_L1I TRANSLATION  ACCESS:          0 HIT:          0 MISS:          0
cpu1_L1I PREFETCH REQUESTED:          0 ISSUED:          0 USEFUL:          0 USELESS:          0
cpu1_L1I AVERAGE MISS LATENCY: -nan cycles
cpu1_L1I TOTAL        ACCESS:          0 HIT:          0 MISS:          0
cpu1_L1I LOAD         ACCESS:          0 HIT:          0 MISS:          0
cpu1_L1I RFO          ACCESS:          0 HIT:          0 MISS:          0
cpu1_L1I PREFETCH     ACCESS:          0 HIT:          0 MISS:          0
cpu1_L1I WRITE        ACCESS:          0 HIT:          0 MISS:          0
cpu1_L1I TRANSLATION  ACCESS:          0 HIT:          0 MISS:          0
cpu1_L1I PREFETCH REQUESTED:          0 ISSUED:          0 USEFUL:          0 USELESS:          0
cpu1_L1I AVERAGE MISS LATENCY: -nan cycles
cpu1_L1I TOTAL        ACCESS:          0 HIT:          0 MISS:          0
cpu1_L1I LOAD         ACCESS:          0 HIT:          0 MISS:          0
cpu1_L1I RFO          ACCESS:          0 HIT:          0 MISS:          0
cpu1_L1I PREFETCH     ACCESS:          0 HIT:          0 MISS:          0
cpu1_L1I WRITE        ACCESS:          0 HIT:          0 MISS:          0
cpu1_L1I TRANSLATION  ACCESS:          0 HIT:          0 MISS:          0
cpu1_L1I PREFETCH REQUESTED:          0 ISSUED:          0 USEFUL:          0 USELESS:          0
cpu1_L1I AVERAGE MISS LATENCY: -nan cycles
cpu1_L2C TOTAL        ACCESS:          0 HIT:          0 MISS:          0
cpu1_L2C LOAD         ACCESS:          0 HIT:          0 MISS:          0
cpu1_L2C RFO          ACCESS:          0 HIT:          0 MISS:          0
cpu1_L2C PREFETCH     ACCESS:          0 HIT:          0 MISS:          0
cpu1_L2C WRITE        ACCESS:          0 HIT:          0 MISS:          0
cpu1_L2C TRANSLATION  ACCESS:          0 HIT:          0 MISS:          0
cpu1_L2C PREFETCH REQUESTED:          0 ISSUED:          0 USEFUL:          0 USELESS:          0
cpu1_L2C AVERAGE MISS LATENCY: 252.4 cycles
cpu1_L2C TOTAL        ACCESS:    3303603 HIT:    1821369 MISS:    1482234
cpu1_L2C LOAD         ACCESS:    1982754 HIT:     500855 MISS:    1481899
cpu1_L2C RFO          ACCESS:       2296 HIT:       2280 MISS:         16
cpu1_L2C PREFETCH     ACCESS:          0 HIT:          0 MISS:          0
cpu1_L2C WRITE        ACCESS:    1317744 HIT:    1317744 MISS:          0
cpu1_L2C TRANSLATION  ACCESS:        809 HIT:        490 MISS:        319
cpu1_L2C PREFETCH REQUESTED:          0 ISSUED:          0 USEFUL:          0 USELESS:          0
cpu1_L2C AVERAGE MISS LATENCY: 252.4 cycles
cpu1_L2C TOTAL        ACCESS:          0 HIT:          0 MISS:          0
cpu1_L2C LOAD         ACCESS:          0 HIT:          0 MISS:          0
cpu1_L2C RFO          ACCESS:          0 HIT:          0 MISS:          0
cpu1_L2C PREFETCH     ACCESS:          0 HIT:          0 MISS:          0
cpu1_L2C WRITE        ACCESS:          0 HIT:          0 MISS:          0
cpu1_L2C TRANSLATION  ACCESS:          0 HIT:          0 MISS:          0
cpu1_L2C PREFETCH REQUESTED:          0 ISSUED:          0 USEFUL:          0 USELESS:          0
cpu1_L2C AVERAGE MISS LATENCY: 252.4 cycles
cpu1_L2C TOTAL        ACCESS:          0 HIT:          0 MISS:          0
cpu1_L2C LOAD         ACCESS:          0 HIT:          0 MISS:          0
cpu1_L2C RFO          ACCESS:          0 HIT:          0 MISS:          0
cpu1_L2C PREFETCH     ACCESS:          0 HIT:          0 MISS:          0
cpu1_L2C WRITE        ACCESS:          0 HIT:          0 MISS:          0
cpu1_L2C TRANSLATION  ACCESS:          0 HIT:          0 MISS:          0
cpu1_L2C PREFETCH REQUESTED:          0 ISSUED:          0 USEFUL:          0 USELESS:          0
cpu1_L2C AVERAGE MISS LATENCY: 252.4 cycles
cpu1_STLB TOTAL        ACCESS:          0 HIT:          0 MISS:          0
cpu1_STLB LOAD         ACCESS:          0 HIT:          0 MISS:          0
cpu1_STLB RFO          ACCESS:          0 HIT:          0 MISS:          0
cpu1_STLB PREFETCH     ACCESS:          0 HIT:          0 MISS:          0
cpu1_STLB WRITE        ACCESS:          0 HIT:          0 MISS:          0
cpu1_STLB TRANSLATION  ACCESS:          0 HIT:          0 MISS:          0
cpu1_STLB PREFETCH REQUESTED:          0 ISSUED:          0 USEFUL:          0 USELESS:          0
cpu1_STLB AVERAGE MISS LATENCY: 209.2 cycles
cpu1_STLB TOTAL        ACCESS:      34987 HIT:      14404 MISS:      20583
cpu1_STLB LOAD         ACCESS:      34987 HIT:      14404 MISS:      20583
cpu1_STLB RFO          ACCESS:          0 HIT:          0 MISS:          0
cpu1_STLB PREFETCH     ACCESS:          0 HIT:          0 MISS:          0
cpu1_STLB WRITE        ACCESS:          0 HIT:          0 MISS:          0
cpu1_STLB TRANSLATION  ACCESS:          0 HIT:          0 MISS:          0
cpu1_STLB PREFETCH REQUESTED:          0 ISSUED:          0 USEFUL:          0 USELESS:          0
cpu1_STLB AVERAGE MISS LATENCY: 209.2 cycles
cpu1_STLB TOTAL        ACCESS:          0 HIT:          0 MISS:          0
cpu1_STLB LOAD         ACCESS:          0 HIT:          0 MISS:          0
cpu1_STLB RFO          ACCESS:          0 HIT:          0 MISS:          0
cpu1_STLB PREFETCH     ACCESS:          0 HIT:          0 MISS:          0
cpu1_STLB WRITE        ACCESS:          0 HIT:          0 MISS:          0
cpu1_STLB TRANSLATION  ACCESS:          0 HIT:          0 MISS:          0
cpu1_STLB PREFETCH REQUESTED:          0 ISSUED:          0 USEFUL:          0 USELESS:          0
cpu1_STLB AVERAGE MISS LATENCY: 209.2 cycles
cpu1_STLB TOTAL        ACCESS:          0 HIT:          0 MISS:          0
cpu1_STLB LOAD         ACCESS:          0 HIT:          0 MISS:          0
cpu1_STLB RFO          ACCESS:          0 HIT:          0 MISS:          0
cpu1_STLB PREFETCH     ACCESS:          0 HIT:          0 MISS:          0
cpu1_STLB WRITE        ACCESS:          0 HIT:          0 MISS:          0
cpu1_STLB TRANSLATION  ACCESS:          0 HIT:          0 MISS:          0
cpu1_STLB PREFETCH REQUESTED:          0 ISSUED:          0 USEFUL:          0 USELESS:          0
cpu1_STLB AVERAGE MISS LATENCY: 209.2 cycles
cpu2_DTLB TOTAL        ACCESS:          0 HIT:          0 MISS:          0
cpu2_DTLB LOAD         ACCESS:          0 HIT:          0 MISS:          0
cpu2_DTLB RFO          ACCESS:          0 HIT:          0 MISS:          0
cpu2_DTLB PREFETCH     ACCESS:          0 HIT:          0 MISS:          0
cpu2_DTLB WRITE        ACCESS:          0 HIT:          0 MISS:          0
cpu2_DTLB TRANSLATION  ACCESS:          0 HIT:          0 MISS:          0
cpu2_DTLB PREFETCH REQUESTED:          0 ISSUED:          0 USEFUL:          0 USELESS:          0
cpu2_DTLB AVERAGE MISS LATENCY: 6.128 cycles
cpu2_DTLB TOTAL        ACCESS:          0 HIT:          0 MISS:          0
cpu2_DTLB LOAD         ACCESS:          0 HIT:          0 MISS:          0
cpu2_DTLB RFO          ACCESS:          0 HIT:          0 MISS:          0
cpu2_DTLB PREFETCH     ACCESS:          0 HIT:          0 MISS:          0
cpu2_DTLB WRITE        ACCESS:          0 HIT:          0 MISS:          0
cpu2_DTLB TRANSLATION  ACCESS:          0 HIT:          0 MISS:          0
cpu2_DTLB PREFETCH REQUESTED:          0 ISSUED:          0 USEFUL:          0 USELESS:          0
cpu2_DTLB AVERAGE MISS LATENCY: 6.128 cycles
cpu2_DTLB TOTAL        ACCESS:   40392747 HIT:   32669264 MISS:    7723483
cpu2_DTLB LOAD         ACCESS:   40392747 HIT:   32669264 MISS:    7723483
cpu2_DTLB RFO          ACCESS:          0 HIT:          0 MISS:          0
cpu2_DTLB PREFETCH     ACCESS:          0 HIT:          0 MISS:          0
cpu2_DTLB WRITE        ACCESS:          0 HIT:          0 MISS:          0
cpu2_DTLB TRANSLATION  ACCESS:          0 HIT:          0 MISS:          0
cpu2_DTLB PREFETCH REQUESTED:          0 ISSUED:          0 USEFUL:          0 USELESS:          0
cpu2_DTLB AVERAGE MISS LATENCY: 6.128 cycles
cpu2_DTLB TOTAL        ACCESS:          0 HIT:          0 MISS:          0
cpu2_DTLB LOAD         ACCESS:          0 HIT:          0 MISS:          0
cpu2_DTLB RFO          ACCESS:          0 HIT:          0 MISS:          0
cpu2_DTLB PREFETCH     ACCESS:          0 HIT:          0 MISS:          0
cpu2_DTLB WRITE        ACCESS:          0 HIT:          0 MISS:          0
cpu2_DTLB TRANSLATION  ACCESS:          0 HIT:          0 MISS:          0
cpu2_DTLB PREFETCH REQUESTED:          0 ISSUED:          0 USEFUL:          0 USELESS:          0
cpu2_DTLB AVERAGE MISS LATENCY: 6.128 cycles
cpu2_ITLB TOTAL        ACCESS:          0 HIT:          0 MISS:          0
cpu2_ITLB LOAD         ACCESS:          0 HIT:          0 MISS:          0
cpu2_ITLB RFO          ACCESS:          0 HIT:          0 MISS:          0
cpu2_ITLB PREFETCH     ACCESS:          0 HIT:          0 MISS:          0
cpu2_ITLB WRITE        ACCESS:          0 HIT:          0 MISS:          0
cpu2_ITLB TRANSLATION  ACCESS:          0 HIT:          0 MISS:          0
cpu2_ITLB PREFETCH REQUESTED:          0 ISSUED:          0 USEFUL:          0 USELESS:          0
cpu2_ITLB AVERAGE MISS LATENCY: 4.175 cycles
cpu2_ITLB TOTAL        ACCESS:          0 HIT:          0 MISS:          0
cpu2_ITLB LOAD         ACCESS:          0 HIT:          0 MISS:          0
cpu2_ITLB RFO          ACCESS:          0 HIT:          0 MISS:          0
cpu2_ITLB PREFETCH     ACCESS:          0 HIT:          0 MISS:          0
cpu2_ITLB WRITE        ACCESS:          0 HIT:          0 MISS:          0
cpu2_ITLB TRANSLATION  ACCESS:          0 HIT:          0 MISS:          0
cpu2_ITLB PREFETCH REQUESTED:          0 ISSUED:          0 USEFUL:          0 USELESS:          0
cpu2_ITLB AVERAGE MISS LATENCY: 4.175 cycles
cpu2_ITLB TOTAL        ACCESS:    7236323 HIT:    7072656 MISS:     163667
cpu2_ITLB LOAD         ACCESS:    7236323 HIT:    7072656 MISS:     163667
cpu2_ITLB RFO          ACCESS:          0 HIT:          0 MISS:          0
cpu2_ITLB PREFETCH     ACCESS:          0 HIT:          0 MISS:          0
cpu2_ITLB WRITE        ACCESS:          0 HIT:          0 MISS:          0
cpu2_ITLB TRANSLATION  ACCESS:          0 HIT:          0 MISS:          0
cpu2_ITLB PREFETCH REQUESTED:          0 ISSUED:          0 USEFUL:          0 USELESS:          0
cpu2_ITLB AVERAGE MISS LATENCY: 4.175 cycles
cpu2_ITLB TOTAL        ACCESS:          0 HIT:          0 MISS:          0
cpu2_ITLB LOAD         ACCESS:          0 HIT:          0 MISS:          0
cpu2_ITLB RFO          ACCESS:          0 HIT:          0 MISS:          0
cpu2_ITLB PREFETCH     ACCESS:          0 HIT:          0 MISS:          0
cpu2_ITLB WRITE        ACCESS:          0 HIT:          0 MISS:          0
cpu2_ITLB TRANSLATION  ACCESS:          0 HIT:          0 MISS:          0
cpu2_ITLB PREFETCH REQUESTED:          0 ISSUED:          0 USEFUL:          0 USELESS:          0
cpu2_ITLB AVERAGE MISS LATENCY: 4.175 cycles
cpu2_L1D TOTAL        ACCESS:          0 HIT:          0 MISS:          0
cpu2_L1D LOAD         ACCESS:          0 HIT:          0 MISS:          0
cpu2_L1D RFO          ACCESS:          0 HIT:          0 MISS:          0
cpu2_L1D PREFETCH     ACCESS:          0 HIT:          0 MISS:          0
cpu2_L1D WRITE        ACCESS:          0 HIT:          0 MISS:          0
cpu2_L1D TRANSLATION  ACCESS:          0 HIT:          0 MISS:          0
cpu2_L1D PREFETCH REQUESTED:          0 ISSUED:          0 USEFUL:          0 USELESS:          0
cpu2_L1D AVERAGE MISS LATENCY: 20.66 cycles
cpu2_L1D TOTAL        ACCESS:          0 HIT:          0 MISS:          0
cpu2_L1D LOAD         ACCESS:          0 HIT:          0 MISS:          0
cpu2_L1D RFO          ACCESS:          0 HIT:          0 MISS:          0
cpu2_L1D PREFETCH     ACCESS:          0 HIT:          0 MISS:          0
cpu2_L1D WRITE        ACCESS:          0 HIT:          0 MISS:          0
cpu2_L1D TRANSLATION  ACCESS:          0 HIT:          0 MISS:          0
cpu2_L1D PREFETCH REQUESTED:          0 ISSUED:          0 USEFUL:          0 USELESS:          0
cpu2_L1D AVERAGE MISS LATENCY: 20.66 cycles
cpu2_L1D TOTAL        ACCESS:   51172188 HIT:   38201842 MISS:   12970346
cpu2_L1D LOAD         ACCESS:   35421570 HIT:   23988726 MISS:   11432844
cpu2_L1D RFO          ACCESS:          0 HIT:          0 MISS:          0
cpu2_L1D PREFETCH     ACCESS:          0 HIT:          0 MISS:          0
cpu2_L1D WRITE        ACCESS:   15411460 HIT:   14197837 MISS:    1213623
cpu2_L1D TRANSLATION  ACCESS:     339158 HIT:      15279 MISS:     323879
cpu2_L1D PREFETCH REQUESTED:          0 ISSUED:          0 USEFUL:          0 USELESS:          0
cpu2_L1D AVERAGE MISS LATENCY: 20.66 cycles
cpu2_L1D TOTAL        ACCESS:          0 HIT:          0 MISS:          0
cpu2_L1D LOAD         ACCESS:          0 HIT:          0 MISS:          0
cpu2_L1D RFO          ACCESS:          0 HIT:          0 MISS:          0
cpu2_L1D PREFETCH     ACCESS:          0 HIT:          0 MISS:          0
cpu2_L1D WRITE        ACCESS:          0 HIT:          0 MISS:          0
cpu2_L1D TRANSLATION  ACCESS:          0 HIT:          0 MISS:          0
cpu2_L1D PREFETCH REQUESTED:          0 ISSUED:          0 USEFUL:          0 USELESS:          0
cpu2_L1D AVERAGE MISS LATENCY: 20.66 cycles
cpu2_L1I TOTAL        ACCESS:          0 HIT:          0 MISS:          0
cpu2_L1I LOAD         ACCESS:          0 HIT:          0 MISS:          0
cpu2_L1I RFO          ACCESS:          0 HIT:          0 MISS:          0
cpu2_L1I PREFETCH     ACCESS:          0 HIT:          0 MISS:          0
cpu2_L1I WRITE        ACCESS:          0 HIT:          0 MISS:          0
cpu2_L1I TRANSLATION  ACCESS:          0 HIT:          0 MISS:          0
cpu2_L1I PREFETCH REQUESTED:          0 ISSUED:          0 USEFUL:          0 USELESS:          0
cpu2_L1I AVERAGE MISS LATENCY: 9.446 cycles
cpu2_L1I TOTAL        ACCESS:          0 HIT:          0 MISS:          0
cpu2_L1I LOAD         ACCESS:          0 HIT:          0 MISS:          0
cpu2_L1I RFO          ACCESS:          0 HIT:          0 MISS:          0
cpu2_L1I PREFETCH     ACCESS:          0 HIT:          0 MISS:          0
cpu2_L1I WRITE        ACCESS:          0 HIT:          0 MISS:          0
cpu2_L1I TRANSLATION  ACCESS:          0 HIT:          0 MISS:          0
cpu2_L1I PREFETCH REQUESTED:          0 ISSUED:          0 USEFUL:          0 USELESS:          0
cpu2_L1I AVERAGE MISS LATENCY: 9.446 cycles
cpu2_L1I TOTAL        ACCESS:    8625888 HIT:    7875802 MISS:     750086
cpu2_L1I LOAD         ACCESS:    8625888 HIT:    7875802 MISS:     750086
cpu2_L1I RFO          ACCESS:          0 HIT:          0 MISS:          0
cpu2_L1I PREFETCH     ACCESS:          0 HIT:          0 MISS:          0
cpu2_L1I WRITE        ACCESS:          0 HIT:          0 MISS:          0
cpu2_L1I TRANSLATION  ACCESS:          0 HIT:          0 MISS:          0
cpu2_L1I PREFETCH REQUESTED:          0 ISSUED:          0 USEFUL:          0 USELESS:          0
cpu2_L1I AVERAGE MISS LATENCY: 9.446 cycles
cpu2_L1I TOTAL        ACCESS:          0 HIT:          0 MISS:          0
cpu2_L1I LOAD         ACCESS:          0 HIT:          0 MISS:          0
cpu2_L1I RFO          ACCESS:          0 HIT:          0 MISS:          0
cpu2_L1I PREFETCH     ACCESS:          0 HIT:          0 MISS:          0
cpu2_L1I WRITE        ACCESS:          0 HIT:          0 MISS:          0
cpu2_L1I TRANSLATION  ACCESS:          0 HIT:          0 MISS:          0
cpu2_L1I PREFETCH REQUESTED:          0 ISSUED:          0 USEFUL:          0 USELESS:          0
cpu2_L1I AVERAGE MISS LATENCY: 9.446 cycles
cpu2_L2C TOTAL        ACCESS:          0 HIT:          0 MISS:          0
cpu2_L2C LOAD         ACCESS:          0 HIT:          0 MISS:          0
cpu2_L2C RFO          ACCESS:          0 HIT:          0 MISS:          0
cpu2_L2C PREFETCH     ACCESS:          0 HIT:          0 MISS:          0
cpu2_L2C WRITE        ACCESS:          0 HIT:          0 MISS:          0
cpu2_L2C TRANSLATION  ACCESS:          0 HIT:          0 MISS:          0
cpu2_L2C PREFETCH REQUESTED:          0 ISSUED:          0 USEFUL:          0 USELESS:          0
cpu2_L2C AVERAGE MISS LATENCY: 203.5 cycles
cpu2_L2C TOTAL        ACCESS:          0 HIT:          0 MISS:          0
cpu2_L2C LOAD         ACCESS:          0 HIT:          0 MISS:          0
cpu2_L2C RFO          ACCESS:          0 HIT:          0 MISS:          0
cpu2_L2C PREFETCH     ACCESS:          0 HIT:          0 MISS:          0
cpu2_L2C WRITE        ACCESS:          0 HIT:          0 MISS:          0
cpu2_L2C TRANSLATION  ACCESS:          0 HIT:          0 MISS:          0
cpu2_L2C PREFETCH REQUESTED:          0 ISSUED:          0 USEFUL:          0 USELESS:          0
cpu2_L2C AVERAGE MISS LATENCY: 203.5 cycles
cpu2_L2C TOTAL        ACCESS:   11156084 HIT:   10309941 MISS:     846143
cpu2_L2C LOAD         ACCESS:   10029590 HIT:    9485043 MISS:     544547
cpu2_L2C RFO          ACCESS:     313994 HIT:      53094 MISS:     260900
cpu2_L2C PREFETCH     ACCESS:          0 HIT:          0 MISS:          0
cpu2_L2C WRITE        ACCESS:     488727 HIT:     488687 MISS:         40
cpu2_L2C TRANSLATION  ACCESS:     323773 HIT:     283117 MISS:      40656
cpu2_L2C PREFETCH REQUESTED:          0 ISSUED:          0 USEFUL:          0 USELESS:          0
cpu2_L2C AVERAGE MISS LATENCY: 203.5 cycles
cpu2_L2C TOTAL        ACCESS:          0 HIT:          0 MISS:          0
cpu2_L2C LOAD         ACCESS:          0 HIT:          0 MISS:          0
cpu2_L2C RFO          ACCESS:          0 HIT:          0 MISS:          0
cpu2_L2C PREFETCH     ACCESS:          0 HIT:          0 MISS:          0
cpu2_L2C WRITE        ACCESS:          0 HIT:          0 MISS:          0
cpu2_L2C TRANSLATION  ACCESS:          0 HIT:          0 MISS:          0
cpu2_L2C PREFETCH REQUESTED:          0 ISSUED:          0 USEFUL:          0 USELESS:          0
cpu2_L2C AVERAGE MISS LATENCY: 203.5 cycles
cpu2_STLB TOTAL        ACCESS:          0 HIT:          0 MISS:          0
cpu2_STLB LOAD         ACCESS:          0 HIT:          0 MISS:          0
cpu2_STLB RFO          ACCESS:          0 HIT:          0 MISS:          0
cpu2_STLB PREFETCH     ACCESS:          0 HIT:          0 MISS:          0
cpu2_STLB WRITE        ACCESS:          0 HIT:          0 MISS:          0
cpu2_STLB TRANSLATION  ACCESS:          0 HIT:          0 MISS:          0
cpu2_STLB PREFETCH REQUESTED:          0 ISSUED:          0 USEFUL:          0 USELESS:          0
cpu2_STLB AVERAGE MISS LATENCY: 35.27 cycles
cpu2_STLB TOTAL        ACCESS:          0 HIT:          0 MISS:          0
cpu2_STLB LOAD         ACCESS:          0 HIT:          0 MISS:          0
cpu2_STLB RFO          ACCESS:          0 HIT:          0 MISS:          0
cpu2_STLB PREFETCH     ACCESS:          0 HIT:          0 MISS:          0
cpu2_STLB WRITE        ACCESS:          0 HIT:          0 MISS:          0
cpu2_STLB TRANSLATION  ACCESS:          0 HIT:          0 MISS:          0
cpu2_STLB PREFETCH REQUESTED:          0 ISSUED:          0 USEFUL:          0 USELESS:          0
cpu2_STLB AVERAGE MISS LATENCY: 35.27 cycles
cpu2_STLB TOTAL        ACCESS:    5757840 HIT:    5419804 MISS:     338036
cpu2_STLB LOAD         ACCESS:    5757840 HIT:    5419804 MISS:     338036
cpu2_STLB RFO          ACCESS:          0 HIT:          0 MISS:          0
cpu2_STLB PREFETCH     ACCESS:          0 HIT:          0 MISS:          0
cpu2_STLB WRITE        ACCESS:          0 HIT:          0 MISS:          0
cpu2_STLB TRANSLATION  ACCESS:          0 HIT:          0 MISS:          0
cpu2_STLB PREFETCH REQUESTED:          0 ISSUED:          0 USEFUL:          0 USELESS:          0
cpu2_STLB AVERAGE MISS LATENCY: 35.27 cycles
cpu2_STLB TOTAL        ACCESS:          0 HIT:          0 MISS:          0
cpu2_STLB LOAD         ACCESS:          0 HIT:          0 MISS:          0
cpu2_STLB RFO          ACCESS:          0 HIT:          0 MISS:          0
cpu2_STLB PREFETCH     ACCESS:          0 HIT:          0 MISS:          0
cpu2_STLB WRITE        ACCESS:          0 HIT:          0 MISS:          0
cpu2_STLB TRANSLATION  ACCESS:          0 HIT:          0 MISS:          0
cpu2_STLB PREFETCH REQUESTED:          0 ISSUED:          0 USEFUL:          0 USELESS:          0
cpu2_STLB AVERAGE MISS LATENCY: 35.27 cycles
cpu3_DTLB TOTAL        ACCESS:          0 HIT:          0 MISS:          0
cpu3_DTLB LOAD         ACCESS:          0 HIT:          0 MISS:          0
cpu3_DTLB RFO          ACCESS:          0 HIT:          0 MISS:          0
cpu3_DTLB PREFETCH     ACCESS:          0 HIT:          0 MISS:          0
cpu3_DTLB WRITE        ACCESS:          0 HIT:          0 MISS:          0
cpu3_DTLB TRANSLATION  ACCESS:          0 HIT:          0 MISS:          0
cpu3_DTLB PREFETCH REQUESTED:          0 ISSUED:          0 USEFUL:          0 USELESS:          0
cpu3_DTLB AVERAGE MISS LATENCY: 9.888 cycles
cpu3_DTLB TOTAL        ACCESS:          0 HIT:          0 MISS:          0
cpu3_DTLB LOAD         ACCESS:          0 HIT:          0 MISS:          0
cpu3_DTLB RFO          ACCESS:          0 HIT:          0 MISS:          0
cpu3_DTLB PREFETCH     ACCESS:          0 HIT:          0 MISS:          0
cpu3_DTLB WRITE        ACCESS:          0 HIT:          0 MISS:          0
cpu3_DTLB TRANSLATION  ACCESS:          0 HIT:          0 MISS:          0
cpu3_DTLB PREFETCH REQUESTED:          0 ISSUED:          0 USEFUL:          0 USELESS:          0
cpu3_DTLB AVERAGE MISS LATENCY: 9.888 cycles
cpu3_DTLB TOTAL        ACCESS:          0 HIT:          0 MISS:          0
cpu3_DTLB LOAD         ACCESS:          0 HIT:          0 MISS:          0
cpu3_DTLB RFO          ACCESS:          0 HIT:          0 MISS:          0
cpu3_DTLB PREFETCH     ACCESS:          0 HIT:          0 MISS:          0
cpu3_DTLB WRITE        ACCESS:          0 HIT:          0 MISS:          0
cpu3_DTLB TRANSLATION  ACCESS:          0 HIT:          0 MISS:          0
cpu3_DTLB PREFETCH REQUESTED:          0 ISSUED:          0 USEFUL:          0 USELESS:          0
cpu3_DTLB AVERAGE MISS LATENCY: 9.888 cycles
cpu3_DTLB TOTAL        ACCESS:   33014354 HIT:   32922005 MISS:      92349
cpu3_DTLB LOAD         ACCESS:   33014354 HIT:   32922005 MISS:      92349
cpu3_DTLB RFO          ACCESS:          0 HIT:          0 MISS:          0
cpu3_DTLB PREFETCH     ACCESS:          0 HIT:          0 MISS:          0
cpu3_DTLB WRITE        ACCESS:          0 HIT:          0 MISS:          0
cpu3_DTLB TRANSLATION  ACCESS:          0 HIT:          0 MISS:          0
cpu3_DTLB PREFETCH REQUESTED:          0 ISSUED:          0 USEFUL:          0 USELESS:          0
cpu3_DTLB AVERAGE MISS LATENCY: 9.888 cycles
cpu3_ITLB TOTAL        ACCESS:          0 HIT:          0 MISS:          0
cpu3_ITLB LOAD         ACCESS:          0 HIT:          0 MISS:          0
cpu3_ITLB RFO          ACCESS:          0 HIT:          0 MISS:          0
cpu3_ITLB PREFETCH     ACCESS:          0 HIT:          0 MISS:          0
cpu3_ITLB WRITE        ACCESS:          0 HIT:          0 MISS:          0
cpu3_ITLB TRANSLATION  ACCESS:          0 HIT:          0 MISS:          0
cpu3_ITLB PREFETCH REQUESTED:          0 ISSUED:          0 USEFUL:          0 USELESS:          0
cpu3_ITLB AVERAGE MISS LATENCY: 479.8 cycles
cpu3_ITLB TOTAL        ACCESS:          0 HIT:          0 MISS:          0
cpu3_ITLB LOAD         ACCESS:          0 HIT:          0 MISS:          0
cpu3_ITLB RFO          ACCESS:          0 HIT:          0 MISS:          0
cpu3_ITLB PREFETCH     ACCESS:          0 HIT:          0 MISS:          0
cpu3_ITLB WRITE        ACCESS:          0 HIT:          0 MISS:          0
cpu3_ITLB TRANSLATION  ACCESS:          0 HIT:          0 MISS:          0
cpu3_ITLB PREFETCH REQUESTED:          0 ISSUED:          0 USEFUL:          0 USELESS:          0
cpu3_ITLB AVERAGE MISS LATENCY: 479.8 cycles
cpu3_ITLB TOTAL        ACCESS:          0 HIT:          0 MISS:          0
cpu3_ITLB LOAD         ACCESS:          0 HIT:          0 MISS:          0
cpu3_ITLB RFO          ACCESS:          0 HIT:          0 MISS:          0
cpu3_ITLB PREFETCH     ACCESS:          0 HIT:          0 MISS:          0
cpu3_ITLB WRITE        ACCESS:          0 HIT:          0 MISS:          0
cpu3_ITLB TRANSLATION  ACCESS:          0 HIT:          0 MISS:          0
cpu3_ITLB PREFETCH REQUESTED:          0 ISSUED:          0 USEFUL:          0 USELESS:          0
cpu3_ITLB AVERAGE MISS LATENCY: 479.8 cycles
cpu3_ITLB TOTAL        ACCESS:    1317200 HIT:    1317159 MISS:         41
cpu3_ITLB LOAD         ACCESS:    1317200 HIT:    1317159 MISS:         41
cpu3_ITLB RFO          ACCESS:          0 HIT:          0 MISS:          0
cpu3_ITLB PREFETCH     ACCESS:          0 HIT:          0 MISS:          0
cpu3_ITLB WRITE        ACCESS:          0 HIT:          0 MISS:          0
cpu3_ITLB TRANSLATION  ACCESS:          0 HIT:          0 MISS:          0
cpu3_ITLB PREFETCH REQUESTED:          0 ISSUED:          0 USEFUL:          0 USELESS:          0
cpu3_ITLB AVERAGE MISS LATENCY: 479.8 cycles
cpu3_L1D TOTAL        ACCESS:          0 HIT:          0 MISS:          0
cpu3_L1D LOAD         ACCESS:          0 HIT:          0 MISS:          0
cpu3_L1D RFO          ACCESS:          0 HIT:          0 MISS:          0
cpu3_L1D PREFETCH     ACCESS:          0 HIT:          0 MISS:          0
cpu3_L1D WRITE        ACCESS:          0 HIT:          0 MISS:          0
cpu3_L1D TRANSLATION  ACCESS:          0 HIT:          0 MISS:          0
cpu3_L1D PREFETCH REQUESTED:          0 ISSUED:          0 USEFUL:          0 USELESS:          0
cpu3_L1D AVERAGE MISS LATENCY: 228.4 cycles
cpu3_L1D TOTAL        ACCESS:          0 HIT:          0 MISS:          0
cpu3_L1D LOAD         ACCESS:          0 HIT:          0 MISS:          0
cpu3_L1D RFO          ACCESS:          0 HIT:          0 MISS:          0
cpu3_L1D PREFETCH     ACCESS:          0 HIT:          0 MISS:          0
cpu3_L1D WRITE        ACCESS:          0 HIT:          0 MISS:          0
cpu3_L1D TRANSLATION  ACCESS:          0 HIT:          0 MISS:          0
cpu3_L1D PREFETCH REQUESTED:          0 ISSUED:          0 USEFUL:          0 USELESS:          0
cpu3_L1D AVERAGE MISS LATENCY: 228.4 cycles
cpu3_L1D TOTAL        ACCESS:          0 HIT:          0 MISS:          0
cpu3_L1D LOAD         ACCESS:          0 HIT:          0 MISS:          0
cpu3_L1D RFO          ACCESS:          0 HIT:          0 MISS:          0
cpu3_L1D PREFETCH     ACCESS:          0 HIT:          0 MISS:          0
cpu3_L1D WRITE        ACCESS:          0 HIT:          0 MISS:          0
cpu3_L1D TRANSLATION  ACCESS:          0 HIT:          0 MISS:          0
cpu3_L1D PREFETCH REQUESTED:          0 ISSUED:          0 USEFUL:          0 USELESS:          0
cpu3_L1D AVERAGE MISS LATENCY: 228.4 cycles
cpu3_L1D TOTAL        ACCESS:   40700276 HIT:   40665894 MISS:      34382
cpu3_L1D LOAD         ACCESS:   29965377 HIT:   29951833 MISS:      13544
cpu3_L1D RFO          ACCESS:          0 HIT:          0 MISS:          0
cpu3_L1D PREFETCH     ACCESS:          0 HIT:          0 MISS:          0
cpu3_L1D WRITE        ACCESS:   10734199 HIT:   10713947 MISS:      20252
cpu3_L1D TRANSLATION  ACCESS:        700 HIT:        114 MISS:        586
cpu3_L1D PREFETCH REQUESTED:          0 ISSUED:          0 USEFUL:          0 USELESS:          0
cpu3_L1D AVERAGE MISS LATENCY: 228.4 cycles
cpu3_L1I TOTAL        ACCESS:          0 HIT:          0 MISS:          0
cpu3_L1I LOAD         ACCESS:          0 HIT:          0 MISS:          0
cpu3_L1I RFO          ACCESS:          0 HIT:          0 MISS:          0
cpu3_L1I PREFETCH     ACCESS:          0 HIT:          0 MISS:          0
cpu3_L1I WRITE        ACCESS:          0 HIT:          0 MISS:          0
cpu3_L1I TRANSLATION  ACCESS:          0 HIT:          0 MISS:          0
cpu3_L1I PREFETCH REQUESTED:          0 ISSUED:          0 USEFUL:          0 USELESS:          0
cpu3_L1I AVERAGE MISS LATENCY: 10.1 cycles
cpu3_L1I TOTAL        ACCESS:          0 HIT:          0 MISS:          0
cpu3_L1I LOAD         ACCESS:          0 HIT:          0 MISS:          0
cpu3_L1I RFO          ACCESS:          0 HIT:          0 MISS:          0
cpu3_L1I PREFETCH     ACCESS:          0 HIT:          0 MISS:          0
cpu3_L1I WRITE        ACCESS:          0 HIT:          0 MISS:          0
cpu3_L1I TRANSLATION  ACCESS:          0 HIT:          0 MISS:          0
cpu3_L1I PREFETCH REQUESTED:          0 ISSUED:          0 USEFUL:          0 USELESS:          0
cpu3_L1I AVERAGE MISS LATENCY: 10.1 cycles
cpu3_L1I TOTAL        ACCESS:          0 HIT:          0 MISS:          0
cpu3_L1I LOAD         ACCESS:          0 HIT:          0 MISS:          0
cpu3_L1I RFO          ACCESS:          0 HIT:          0 MISS:          0
cpu3_L1I PREFETCH     ACCESS:          0 HIT:          0 MISS:          0
cpu3_L1I WRITE        ACCESS:          0 HIT:          0 MISS:          0
cpu3_L1I TRANSLATION  ACCESS:          0 HIT:          0 MISS:          0
cpu3_L1I PREFETCH REQUESTED:          0 ISSUED:          0 USEFUL:          0 USELESS:          0
cpu3_L1I AVERAGE MISS LATENCY: 10.1 cycles
cpu3_L1I TOTAL        ACCESS:    1547079 HIT:    1452948 MISS:      94131
cpu3_L1I LOAD         ACCESS:    1547079 HIT:    1452948 MISS:      94131
cpu3_L1I RFO          ACCESS:          0 HIT:          0 MISS:          0
cpu3_L1I PREFETCH     ACCESS:          0 HIT:          0 MISS:          0
cpu3_L1I WRITE        ACCESS:          0 HIT:          0 MISS:          0
cpu3_L1I TRANSLATION  ACCESS:          0 HIT:          0 MISS:          0
cpu3_L1I PREFETCH REQUESTED:          0 ISSUED:          0 USEFUL:          0 USELESS:          0
cpu3_L1I AVERAGE MISS LATENCY: 10.1 cycles
cpu3_L2C TOTAL        ACCESS:          0 HIT:          0 MISS:          0
cpu3_L2C LOAD         ACCESS:          0 HIT:          0 MISS:          0
cpu3_L2C RFO          ACCESS:          0 HIT:          0 MISS:          0
cpu3_L2C PREFETCH     ACCESS:          0 HIT:          0 MISS:          0
cpu3_L2C WRITE        ACCESS:          0 HIT:          0 MISS:          0
cpu3_L2C TRANSLATION  ACCESS:          0 HIT:          0 MISS:          0
cpu3_L2C PREFETCH REQUESTED:          0 ISSUED:          0 USEFUL:          0 USELESS:          0
cpu3_L2C AVERAGE MISS LATENCY: 509.7 cycles
cpu3_L2C TOTAL        ACCESS:          0 HIT:          0 MISS:          0
cpu3_L2C LOAD         ACCESS:          0 HIT:          0 MISS:          0
cpu3_L2C RFO          ACCESS:          0 HIT:          0 MISS:          0
cpu3_L2C PREFETCH     ACCESS:          0 HIT:          0 MISS:          0
cpu3_L2C WRITE        ACCESS:          0 HIT:          0 MISS:          0
cpu3_L2C TRANSLATION  ACCESS:          0 HIT:          0 MISS:          0
cpu3_L2C PREFETCH REQUESTED:          0 ISSUED:          0 USEFUL:          0 USELESS:          0
cpu3_L2C AVERAGE MISS LATENCY: 509.7 cycles
cpu3_L2C TOTAL        ACCESS:          0 HIT:          0 MISS:          0
cpu3_L2C LOAD         ACCESS:          0 HIT:          0 MISS:          0
cpu3_L2C RFO          ACCESS:          0 HIT:          0 MISS:          0
cpu3_L2C PREFETCH     ACCESS:          0 HIT:          0 MISS:          0
cpu3_L2C WRITE        ACCESS:          0 HIT:          0 MISS:          0
cpu3_L2C TRANSLATION  ACCESS:          0 HIT:          0 MISS:          0
cpu3_L2C PREFETCH REQUESTED:          0 ISSUED:          0 USEFUL:          0 USELESS:          0
cpu3_L2C AVERAGE MISS LATENCY: 509.7 cycles
cpu3_L2C TOTAL        ACCESS:      93432 HIT:      75708 MISS:      17724
cpu3_L2C LOAD         ACCESS:      74383 HIT:      64930 MISS:       9453
cpu3_L2C RFO          ACCESS:       7993 HIT:        194 MISS:       7799
cpu3_L2C PREFETCH     ACCESS:          0 HIT:          0 MISS:          0
cpu3_L2C WRITE        ACCESS:      10471 HIT:      10416 MISS:         55
cpu3_L2C TRANSLATION  ACCESS:        585 HIT:        168 MISS:        417
cpu3_L2C PREFETCH REQUESTED:          0 ISSUED:          0 USEFUL:          0 USELESS:          0
cpu3_L2C AVERAGE MISS LATENCY: 509.7 cycles
cpu3_STLB TOTAL        ACCESS:          0 HIT:          0 MISS:          0
cpu3_STLB LOAD         ACCESS:          0 HIT:          0 MISS:          0
cpu3_STLB RFO          ACCESS:          0 HIT:          0 MISS:          0
cpu3_STLB PREFETCH     ACCESS:          0 HIT:          0 MISS:          0
cpu3_STLB WRITE        ACCESS:          0 HIT:          0 MISS:          0
cpu3_STLB TRANSLATION  ACCESS:          0 HIT:          0 MISS:          0
cpu3_STLB PREFETCH REQUESTED:          0 ISSUED:          0 USEFUL:          0 USELESS:          0
cpu3_STLB AVERAGE MISS LATENCY: 593.8 cycles
cpu3_STLB TOTAL        ACCESS:          0 HIT:          0 MISS:          0
cpu3_STLB LOAD         ACCESS:          0 HIT:          0 MISS:          0
cpu3_STLB RFO          ACCESS:          0 HIT:          0 MISS:          0
cpu3_STLB PREFETCH     ACCESS:          0 HIT:          0 MISS:          0
cpu3_STLB WRITE        ACCESS:          0 HIT:          0 MISS:          0
cpu3_STLB TRANSLATION  ACCESS:          0 HIT:          0 MISS:          0
cpu3_STLB PREFETCH REQUESTED:          0 ISSUED:          0 USEFUL:          0 USELESS:          0
cpu3_STLB AVERAGE MISS LATENCY: 593.8 cycles
cpu3_STLB TOTAL        ACCESS:          0 HIT:          0 MISS:          0
cpu3_STLB LOAD         ACCESS:          0 HIT:          0 MISS:          0
cpu3_STLB RFO          ACCESS:          0 HIT:          0 MISS:          0
cpu3_STLB PREFETCH     ACCESS:          0 HIT:          0 MISS:          0
cpu3_STLB WRITE        ACCESS:          0 HIT:          0 MISS:          0
cpu3_STLB TRANSLATION  ACCESS:          0 HIT:          0 MISS:          0
cpu3_STLB PREFETCH REQUESTED:          0 ISSUED:          0 USEFUL:          0 USELESS:          0
cpu3_STLB AVERAGE MISS LATENCY: 593.8 cycles
cpu3_STLB TOTAL        ACCESS:      81735 HIT:      81044 MISS:        691
cpu3_STLB LOAD         ACCESS:      81735 HIT:      81044 MISS:        691
cpu3_STLB RFO          ACCESS:          0 HIT:          0 MISS:          0
cpu3_STLB PREFETCH     ACCESS:          0 HIT:          0 MISS:          0
cpu3_STLB WRITE        ACCESS:          0 HIT:          0 MISS:          0
cpu3_STLB TRANSLATION  ACCESS:          0 HIT:          0 MISS:          0
cpu3_STLB PREFETCH REQUESTED:          0 ISSUED:          0 USEFUL:          0 USELESS:          0
cpu3_STLB AVERAGE MISS LATENCY: 593.8 cycles

Region of Interest Statistics

CPU 0 cumulative IPC: 2.044 instructions: 150000002 cycles: 73395328
CPU 0 Branch Prediction Accuracy: 85.81% MPKI: 13.74 Average ROB Occupancy at Mispredict: 108
Branch type MPKI
BRANCH_DIRECT_JUMP: 0.00012
BRANCH_INDIRECT: 6.67e-06
BRANCH_CONDITIONAL: 8.21
BRANCH_DIRECT_CALL: 0
BRANCH_INDIRECT_CALL: 0
BRANCH_RETURN: 5.53


CPU 1 cumulative IPC: 1.175 instructions: 150000004 cycles: 127609844
CPU 1 Branch Prediction Accuracy: 99.98% MPKI: 0.00438 Average ROB Occupancy at Mispredict: 352
Branch type MPKI
BRANCH_DIRECT_JUMP: 0
BRANCH_INDIRECT: 0
BRANCH_CONDITIONAL: 0.00438
BRANCH_DIRECT_CALL: 0
BRANCH_INDIRECT_CALL: 0
BRANCH_RETURN: 0


CPU 2 cumulative IPC: 1.59 instructions: 150000000 cycles: 94320019
CPU 2 Branch Prediction Accuracy: 96.96% MPKI: 8.474 Average ROB Occupancy at Mispredict: 39.67
Branch type MPKI
BRANCH_DIRECT_JUMP: 0.12
BRANCH_INDIRECT: 0.36
BRANCH_CONDITIONAL: 6.02
BRANCH_DIRECT_CALL: 0.000787
BRANCH_INDIRECT_CALL: 0.409
BRANCH_RETURN: 1.56


CPU 3 cumulative IPC: 2.152 instructions: 150000000 cycles: 69702899
CPU 3 Branch Prediction Accuracy: 94.91% MPKI: 6.828 Average ROB Occupancy at Mispredict: 78.71
Branch type MPKI
BRANCH_DIRECT_JUMP: 0
[...]
cpu2_L1I PREFETCH REQUESTED:          0 ISSUED:          0 USEFUL:          0 USELESS:          0
cpu2_L1I AVERAGE MISS LATENCY: 9.446 cycles
cpu2_L1I TOTAL        ACCESS:          0 HIT:          0 MISS:          0
cpu2_L1I LOAD         ACCESS:          0 HIT:          0 MISS:          0
cpu2_L1I RFO          ACCESS:          0 HIT:          0 MISS:          0
cpu2_L1I PREFETCH     ACCESS:          0 HIT:          0 MISS:          0
cpu2_L1I WRITE        ACCESS:          0 HIT:          0 MISS:          0
cpu2_L1I TRANSLATION  ACCESS:          0 HIT:          0 MISS:          0
cpu2_L1I PREFETCH REQUESTED:          0 ISSUED:          0 USEFUL:          0 USELESS:          0
cpu2_L1I AVERAGE MISS LATENCY: 9.446 cycles
cpu2_L2C TOTAL        ACCESS:          0 HIT:          0 MISS:          0
cpu2_L2C LOAD         ACCESS:          0 HIT:          0 MISS:          0
cpu2_L2C RFO          ACCESS:          0 HIT:          0 MISS:          0
cpu2_L2C PREFETCH     ACCESS:          0 HIT:          0 MISS:          0
cpu2_L2C WRITE        ACCESS:          0 HIT:          0 MISS:          0
cpu2_L2C TRANSLATION  ACCESS:          0 HIT:          0 MISS:          0
cpu2_L2C PREFETCH REQUESTED:          0 ISSUED:          0 USEFUL:          0 USELESS:          0
cpu2_L2C AVERAGE MISS LATENCY: 203.5 cycles
cpu2_L2C TOTAL        ACCESS:          0 HIT:          0 MISS:          0
cpu2_L2C LOAD         ACCESS:          0 HIT:          0 MISS:          0
cpu2_L2C RFO          ACCESS:          0 HIT:          0 MISS:          0
cpu2_L2C PREFETCH     ACCESS:          0 HIT:          0 MISS:          0
cpu2_L2C WRITE        ACCESS:          0 HIT:          0 MISS:          0
cpu2_L2C TRANSLATION  ACCESS:          0 HIT:          0 MISS:          0
cpu2_L2C PREFETCH REQUESTED:          0 ISSUED:          0 USEFUL:          0 USELESS:          0
cpu2_L2C AVERAGE MISS LATENCY: 203.5 cycles
cpu2_L2C TOTAL        ACCESS:    8476931 HIT:    7885428 MISS:     591503
cpu2_L2C LOAD         ACCESS:    7720018 HIT:    7310960 MISS:     409058
cpu2_L2C RFO          ACCESS:     187543 HIT:      36962 MISS:     150581
cpu2_L2C PREFETCH     ACCESS:          0 HIT:          0 MISS:          0
cpu2_L2C WRITE        ACCESS:     316974 HIT:     316938 MISS:         36
cpu2_L2C TRANSLATION  ACCESS:     252396 HIT:     220568 MISS:      31828
cpu2_L2C PREFETCH REQUESTED:          0 ISSUED:          0 USEFUL:          0 USELESS:          0
cpu2_L2C AVERAGE MISS LATENCY: 203.5 cycles
cpu2_L2C TOTAL        ACCESS:          0 HIT:          0 MISS:          0
cpu2_L2C LOAD         ACCESS:          0 HIT:          0 MISS:          0
cpu2_L2C RFO          ACCESS:          0 HIT:          0 MISS:          0
cpu2_L2C PREFETCH     ACCESS:          0 HIT:          0 MISS:          0
cpu2_L2C WRITE        ACCESS:          0 HIT:          0 MISS:          0
cpu2_L2C TRANSLATION  ACCESS:          0 HIT:          0 MISS:          0
cpu2_L2C PREFETCH REQUESTED:          0 ISSUED:          0 USEFUL:          0 USELESS:          0
cpu2_L2C AVERAGE MISS LATENCY: 203.5 cycles
cpu2_STLB TOTAL        ACCESS:          0 HIT:          0 MISS:          0
cpu2_STLB LOAD         ACCESS:          0 HIT:          0 MISS:          0
cpu2_STLB RFO          ACCESS:          0 HIT:          0 MISS:          0
cpu2_STLB PREFETCH     ACCESS:          0 HIT:          0 MISS:          0
cpu2_STLB WRITE        ACCESS:          0 HIT:          0 MISS:          0
cpu2_STLB TRANSLATION  ACCESS:          0 HIT:          0 MISS:          0
cpu2_STLB PREFETCH REQUESTED:          0 ISSUED:          0 USEFUL:          0 USELESS:          0
cpu2_STLB AVERAGE MISS LATENCY: 35.27 cycles
cpu2_STLB TOTAL        ACCESS:          0 HIT:          0 MISS:          0
cpu2_STLB LOAD         ACCESS:          0 HIT:          0 MISS:          0
cpu2_STLB RFO          ACCESS:          0 HIT:          0 MISS:          0
cpu2_STLB PREFETCH     ACCESS:          0 HIT:          0 MISS:          0
cpu2_STLB WRITE        ACCESS:          0 HIT:          0 MISS:          0
cpu2_STLB TRANSLATION  ACCESS:          0 HIT:          0 MISS:          0
cpu2_STLB PREFETCH REQUESTED:          0 ISSUED:          0 USEFUL:          0 USELESS:          0
cpu2_STLB AVERAGE MISS LATENCY: 35.27 cycles
cpu2_STLB TOTAL        ACCESS:    4468808 HIT:    4205215 MISS:     263593
cpu2_STLB LOAD         ACCESS:    4468808 HIT:    4205215 MISS:     263593
cpu2_STLB RFO          ACCESS:          0 HIT:          0 MISS:          0
cpu2_STLB PREFETCH     ACCESS:          0 HIT:          0 MISS:          0
cpu2_STLB WRITE        ACCESS:          0 HIT:          0 MISS:          0
cpu2_STLB TRANSLATION  ACCESS:          0 HIT:          0 MISS:          0
cpu2_STLB PREFETCH REQUESTED:          0 ISSUED:          0 USEFUL:          0 USELESS:          0
cpu2_STLB AVERAGE MISS LATENCY: 35.27 cycles
cpu2_STLB TOTAL        ACCESS:          0 HIT:          0 MISS:          0
cpu2_STLB LOAD         ACCESS:          0 HIT:          0 MISS:          0
cpu2_STLB RFO          ACCESS:          0 HIT:          0 MISS:          0
cpu2_STLB PREFETCH     ACCESS:          0 HIT:          0 MISS:          0
cpu2_STLB WRITE        ACCESS:          0 HIT:          0 MISS:          0
cpu2_STLB TRANSLATION  ACCESS:          0 HIT:          0 MISS:          0
cpu2_STLB PREFETCH REQUESTED:          0 ISSUED:          0 USEFUL:          0 USELESS:          0
cpu2_STLB AVERAGE MISS LATENCY: 35.27 cycles
cpu3_DTLB TOTAL        ACCESS:          0 HIT:          0 MISS:          0
cpu3_DTLB LOAD         ACCESS:          0 HIT:          0 MISS:          0
cpu3_DTLB RFO          ACCESS:          0 HIT:          0 MISS:          0
cpu3_DTLB PREFETCH     ACCESS:          0 HIT:          0 MISS:          0
cpu3_DTLB WRITE        ACCESS:          0 HIT:          0 MISS:          0
cpu3_DTLB TRANSLATION  ACCESS:          0 HIT:          0 MISS:          0
cpu3_DTLB PREFETCH REQUESTED:          0 ISSUED:          0 USEFUL:          0 USELESS:          0
cpu3_DTLB AVERAGE MISS LATENCY: 9.888 cycles
cpu3_DTLB TOTAL        ACCESS:          0 HIT:          0 MISS:          0
cpu3_DTLB LOAD         ACCESS:          0 HIT:          0 MISS:          0
cpu3_DTLB RFO          ACCESS:          0 HIT:          0 MISS:          0
cpu3_DTLB PREFETCH     ACCESS:          0 HIT:          0 MISS:          0
cpu3_DTLB WRITE        ACCESS:          0 HIT:          0 MISS:          0
cpu3_DTLB TRANSLATION  ACCESS:          0 HIT:          0 MISS:          0
cpu3_DTLB PREFETCH REQUESTED:          0 ISSUED:          0 USEFUL:          0 USELESS:          0
cpu3_DTLB AVERAGE MISS LATENCY: 9.888 cycles
cpu3_DTLB TOTAL        ACCESS:          0 HIT:          0 MISS:          0
cpu3_DTLB LOAD         ACCESS:          0 HIT:          0 MISS:          0
cpu3_DTLB RFO          ACCESS:          0 HIT:          0 MISS:          0
cpu3_DTLB PREFETCH     ACCESS:          0 HIT:          0 MISS:          0
cpu3_DTLB WRITE        ACCESS:          0 HIT:          0 MISS:          0
cpu3_DTLB TRANSLATION  ACCESS:          0 HIT:          0 MISS:          0
cpu3_DTLB PREFETCH REQUESTED:          0 ISSUED:          0 USEFUL:          0 USELESS:          0
cpu3_DTLB AVERAGE MISS LATENCY: 9.888 cycles
cpu3_DTLB TOTAL        ACCESS:   18015925 HIT:   18004087 MISS:      11838
cpu3_DTLB LOAD         ACCESS:   18015925 HIT:   18004087 MISS:      11838
cpu3_DTLB RFO          ACCESS:          0 HIT:          0 MISS:          0
cpu3_DTLB PREFETCH     ACCESS:          0 HIT:          0 MISS:          0
cpu3_DTLB WRITE        ACCESS:          0 HIT:          0 MISS:          0
cpu3_DTLB TRANSLATION  ACCESS:          0 HIT:          0 MISS:          0
cpu3_DTLB PREFETCH REQUESTED:          0 ISSUED:          0 USEFUL:          0 USELESS:          0
cpu3_DTLB AVERAGE MISS LATENCY: 9.888 cycles
cpu3_ITLB TOTAL        ACCESS:          0 HIT:          0 MISS:          0
cpu3_ITLB LOAD         ACCESS:          0 HIT:          0 MISS:          0
cpu3_ITLB RFO          ACCESS:          0 HIT:          0 MISS:          0
cpu3_ITLB PREFETCH     ACCESS:          0 HIT:          0 MISS:          0
cpu3_ITLB WRITE        ACCESS:          0 HIT:          0 MISS:          0
cpu3_ITLB TRANSLATION  ACCESS:          0 HIT:          0 MISS:          0
cpu3_ITLB PREFETCH REQUESTED:          0 ISSUED:          0 USEFUL:          0 USELESS:          0
cpu3_ITLB AVERAGE MISS LATENCY: 479.8 cycles
cpu3_ITLB TOTAL        ACCESS:          0 HIT:          0 MISS:          0
cpu3_ITLB LOAD         ACCESS:          0 HIT:          0 MISS:          0
cpu3_ITLB RFO          ACCESS:          0 HIT:          0 MISS:          0
cpu3_ITLB PREFETCH     ACCESS:          0 HIT:          0 MISS:          0
cpu3_ITLB WRITE        ACCESS:          0 HIT:          0 MISS:          0
cpu3_ITLB TRANSLATION  ACCESS:          0 HIT:          0 MISS:          0
cpu3_ITLB PREFETCH REQUESTED:          0 ISSUED:          0 USEFUL:          0 USELESS:          0
cpu3_ITLB AVERAGE MISS LATENCY: 479.8 cycles
cpu3_ITLB TOTAL        ACCESS:          0 HIT:          0 MISS:          0
cpu3_ITLB LOAD         ACCESS:          0 HIT:          0 MISS:          0
cpu3_ITLB RFO          ACCESS:          0 HIT:          0 MISS:          0
cpu3_ITLB PREFETCH     ACCESS:          0 HIT:          0 MISS:          0
cpu3_ITLB WRITE        ACCESS:          0 HIT:          0 MISS:          0
cpu3_ITLB TRANSLATION  ACCESS:          0 HIT:          0 MISS:          0
cpu3_ITLB PREFETCH REQUESTED:          0 ISSUED:          0 USEFUL:          0 USELESS:          0
cpu3_ITLB AVERAGE MISS LATENCY: 479.8 cycles
cpu3_ITLB TOTAL        ACCESS:     522715 HIT:     522715 MISS:          0
cpu3_ITLB LOAD         ACCESS:     522715 HIT:     522715 MISS:          0
cpu3_ITLB RFO          ACCESS:          0 HIT:          0 MISS:          0
cpu3_ITLB PREFETCH     ACCESS:          0 HIT:          0 MISS:          0
cpu3_ITLB WRITE        ACCESS:          0 HIT:          0 MISS:          0
cpu3_ITLB TRANSLATION  ACCESS:          0 HIT:          0 MISS:          0
cpu3_ITLB PREFETCH REQUESTED:          0 ISSUED:          0 USEFUL:          0 USELESS:          0
cpu3_ITLB AVERAGE MISS LATENCY: 479.8 cycles
cpu3_L1D TOTAL        ACCESS:          0 HIT:          0 MISS:          0
cpu3_L1D LOAD         ACCESS:          0 HIT:          0 MISS:          0
cpu3_L1D RFO          ACCESS:          0 HIT:          0 MISS:          0
cpu3_L1D PREFETCH     ACCESS:          0 HIT:          0 MISS:          0
cpu3_L1D WRITE        ACCESS:          0 HIT:          0 MISS:          0
cpu3_L1D TRANSLATION  ACCESS:          0 HIT:          0 MISS:          0
cpu3_L1D PREFETCH REQUESTED:          0 ISSUED:          0 USEFUL:          0 USELESS:          0
cpu3_L1D AVERAGE MISS LATENCY: 228.4 cycles
cpu3_L1D TOTAL        ACCESS:          0 HIT:          0 MISS:          0
cpu3_L1D LOAD         ACCESS:          0 HIT:          0 MISS:          0
cpu3_L1D RFO          ACCESS:          0 HIT:          0 MISS:          0
cpu3_L1D PREFETCH     ACCESS:          0 HIT:          0 MISS:          0
cpu3_L1D WRITE        ACCESS:          0 HIT:          0 MISS:          0
cpu3_L1D TRANSLATION  ACCESS:          0 HIT:          0 MISS:          0
cpu3_L1D PREFETCH REQUESTED:          0 ISSUED:          0 USEFUL:          0 USELESS:          0
cpu3_L1D AVERAGE MISS LATENCY: 228.4 cycles
cpu3_L1D TOTAL        ACCESS:          0 HIT:          0 MISS:          0
cpu3_L1D LOAD         ACCESS:          0 HIT:          0 MISS:          0
cpu3_L1D RFO          ACCESS:          0 HIT:          0 MISS:          0
cpu3_L1D PREFETCH     ACCESS:          0 HIT:          0 MISS:          0
cpu3_L1D WRITE        ACCESS:          0 HIT:          0 MISS:          0
cpu3_L1D TRANSLATION  ACCESS:          0 HIT:          0 MISS:          0
cpu3_L1D PREFETCH REQUESTED:          0 ISSUED:          0 USEFUL:          0 USELESS:          0
cpu3_L1D AVERAGE MISS LATENCY: 228.4 cycles
cpu3_L1D TOTAL        ACCESS:   22093087 HIT:   22083366 MISS:       9721
cpu3_L1D LOAD         ACCESS:   16491009 HIT:   16487898 MISS:       3111
cpu3_L1D RFO          ACCESS:          0 HIT:          0 MISS:          0
cpu3_L1D PREFETCH     ACCESS:          0 HIT:          0 MISS:          0
cpu3_L1D WRITE        ACCESS:    5601903 HIT:    5595450 MISS:       6453
cpu3_L1D TRANSLATION  ACCESS:        175 HIT:         18 MISS:        157
cpu3_L1D PREFETCH REQUESTED:          0 ISSUED:          0 USEFUL:          0 USELESS:          0
cpu3_L1D AVERAGE MISS LATENCY: 228.4 cycles
cpu3_L1I TOTAL        ACCESS:          0 HIT:          0 MISS:          0
cpu3_L1I LOAD         ACCESS:          0 HIT:          0 MISS:          0
cpu3_L1I RFO          ACCESS:          0 HIT:          0 MISS:          0
cpu3_L1I PREFETCH     ACCESS:          0 HIT:          0 MISS:          0
cpu3_L1I WRITE        ACCESS:          0 HIT:          0 MISS:          0
cpu3_L1I TRANSLATION  ACCESS:          0 HIT:          0 MISS:          0
cpu3_L1I PREFETCH REQUESTED:          0 ISSUED:          0 USEFUL:          0 USELESS:          0
cpu3_L1I AVERAGE MISS LATENCY: 10.1 cycles
cpu3_L1I TOTAL        ACCESS:          0 HIT:          0 MISS:          0
cpu3_L1I LOAD         ACCESS:          0 HIT:          0 MISS:          0
cpu3_L1I RFO          ACCESS:          0 HIT:          0 MISS:          0
cpu3_L1I PREFETCH     ACCESS:          0 HIT:          0 MISS:          0
cpu3_L1I WRITE        ACCESS:          0 HIT:          0 MISS:          0
cpu3_L1I TRANSLATION  ACCESS:          0 HIT:          0 MISS:          0
cpu3_L1I PREFETCH REQUESTED:          0 ISSUED:          0 USEFUL:          0 USELESS:          0
cpu3_L1I AVERAGE MISS LATENCY: 10.1 cycles
cpu3_L1I TOTAL        ACCESS:          0 HIT:          0 MISS:          0
cpu3_L1I LOAD         ACCESS:          0 HIT:          0 MISS:          0
cpu3_L1I RFO          ACCESS:          0 HIT:          0 MISS:          0
cpu3_L1I PREFETCH     ACCESS:          0 HIT:          0 MISS:          0
cpu3_L1I WRITE        ACCESS:          0 HIT:          0 MISS:          0
cpu3_L1I TRANSLATION  ACCESS:          0 HIT:          0 MISS:          0
cpu3_L1I PREFETCH REQUESTED:          0 ISSUED:          0 USEFUL:          0 USELESS:          0
cpu3_L1I AVERAGE MISS LATENCY: 10.1 cycles
cpu3_L1I TOTAL        ACCESS:     579018 HIT:     577531 MISS:       1487
cpu3_L1I LOAD         ACCESS:     579018 HIT:     577531 MISS:       1487
cpu3_L1I RFO          ACCESS:          0 HIT:          0 MISS:          0
cpu3_L1I PREFETCH     ACCESS:          0 HIT:          0 MISS:          0
cpu3_L1I WRITE        ACCESS:          0 HIT:          0 MISS:          0
cpu3_L1I TRANSLATION  ACCESS:          0 HIT:          0 MISS:          0
cpu3_L1I PREFETCH REQUESTED:          0 ISSUED:          0 USEFUL:          0 USELESS:          0
cpu3_L1I AVERAGE MISS LATENCY: 10.1 cycles
cpu3_L2C TOTAL        ACCESS:          0 HIT:          0 MISS:          0
cpu3_L2C LOAD         ACCESS:          0 HIT:          0 MISS:          0
cpu3_L2C RFO          ACCESS:          0 HIT:          0 MISS:          0
cpu3_L2C PREFETCH     ACCESS:          0 HIT:          0 MISS:          0
cpu3_L2C WRITE        ACCESS:          0 HIT:          0 MISS:          0
cpu3_L2C TRANSLATION  ACCESS:          0 HIT:          0 MISS:          0
cpu3_L2C PREFETCH REQUESTED:          0 ISSUED:          0 USEFUL:          0 USELESS:          0
cpu3_L2C AVERAGE MISS LATENCY: 509.7 cycles
cpu3_L2C TOTAL        ACCESS:          0 HIT:          0 MISS:          0
cpu3_L2C LOAD         ACCESS:          0 HIT:          0 MISS:          0
cpu3_L2C RFO          ACCESS:          0 HIT:          0 MISS:          0
cpu3_L2C PREFETCH     ACCESS:          0 HIT:          0 MISS:          0
cpu3_L2C WRITE        ACCESS:          0 HIT:          0 MISS:          0
cpu3_L2C TRANSLATION  ACCESS:          0 HIT:          0 MISS:          0
cpu3_L2C PREFETCH REQUESTED:          0 ISSUED:          0 USEFUL:          0 USELESS:          0
cpu3_L2C AVERAGE MISS LATENCY: 509.7 cycles
cpu3_L2C TOTAL        ACCESS:          0 HIT:          0 MISS:          0
cpu3_L2C LOAD         ACCESS:          0 HIT:          0 MISS:          0
cpu3_L2C RFO          ACCESS:          0 HIT:          0 MISS:          0
cpu3_L2C PREFETCH     ACCESS:          0 HIT:          0 MISS:          0
cpu3_L2C WRITE        ACCESS:          0 HIT:          0 MISS:          0
cpu3_L2C TRANSLATION  ACCESS:          0 HIT:          0 MISS:          0
cpu3_L2C PREFETCH REQUESTED:          0 ISSUED:          0 USEFUL:          0 USELESS:          0
cpu3_L2C AVERAGE MISS LATENCY: 509.7 cycles
cpu3_L2C TOTAL        ACCESS:       8995 HIT:       4612 MISS:       4383
cpu3_L2C LOAD         ACCESS:       2935 HIT:       1274 MISS:       1661
cpu3_L2C RFO          ACCESS:       2692 HIT:         70 MISS:       2622
cpu3_L2C PREFETCH     ACCESS:          0 HIT:          0 MISS:          0
cpu3_L2C WRITE        ACCESS:       3211 HIT:       3211 MISS:          0
cpu3_L2C TRANSLATION  ACCESS:        157 HIT:         57 MISS:        100
cpu3_L2C PREFETCH REQUESTED:          0 ISSUED:          0 USEFUL:          0 USELESS:          0
cpu3_L2C AVERAGE MISS LATENCY: 509.7 cycles
cpu3_STLB TOTAL        ACCESS:          0 HIT:          0 MISS:          0
cpu3_STLB LOAD         ACCESS:          0 HIT:          0 MISS:          0
cpu3_STLB RFO          ACCESS:          0 HIT:          0 MISS:          0
cpu3_STLB PREFETCH     ACCESS:          0 HIT:          0 MISS:          0
cpu3_STLB WRITE        ACCESS:          0 HIT:          0 MISS:          0
cpu3_STLB TRANSLATION  ACCESS:          0 HIT:          0 MISS:          0
cpu3_STLB PREFETCH REQUESTED:          0 ISSUED:          0 USEFUL:          0 USELESS:          0
cpu3_STLB AVERAGE MISS LATENCY: 593.8 cycles
cpu3_STLB TOTAL        ACCESS:          0 HIT:          0 MISS:          0
cpu3_STLB LOAD         ACCESS:          0 HIT:          0 MISS:          0
cpu3_STLB RFO          ACCESS:          0 HIT:          0 MISS:          0
cpu3_STLB PREFETCH     ACCESS:          0 HIT:          0 MISS:          0
cpu3_STLB WRITE        ACCESS:          0 HIT:          0 MISS:          0
cpu3_STLB TRANSLATION  ACCESS:          0 HIT:          0 MISS:          0
cpu3_STLB PREFETCH REQUESTED:          0 ISSUED:          0 USEFUL:          0 USELESS:          0
cpu3_STLB AVERAGE MISS LATENCY: 593.8 cycles
cpu3_STLB TOTAL        ACCESS:          0 HIT:          0 MISS:          0
cpu3_STLB LOAD         ACCESS:          0 HIT:          0 MISS:          0
cpu3_STLB RFO          ACCESS:          0 HIT:          0 MISS:          0
cpu3_STLB PREFETCH     ACCESS:          0 HIT:          0 MISS:          0
cpu3_STLB WRITE        ACCESS:          0 HIT:          0 MISS:          0
cpu3_STLB TRANSLATION  ACCESS:          0 HIT:          0 MISS:          0
cpu3_STLB PREFETCH REQUESTED:          0 ISSUED:          0 USEFUL:          0 USELESS:          0
cpu3_STLB AVERAGE MISS LATENCY: 593.8 cycles
cpu3_STLB TOTAL        ACCESS:      10576 HIT:      10401 MISS:        175
cpu3_STLB LOAD         ACCESS:      10576 HIT:      10401 MISS:        175
cpu3_STLB RFO          ACCESS:          0 HIT:          0 MISS:          0
cpu3_STLB PREFETCH     ACCESS:          0 HIT:          0 MISS:          0
cpu3_STLB WRITE        ACCESS:          0 HIT:          0 MISS:          0
cpu3_STLB TRANSLATION  ACCESS:          0 HIT:          0 MISS:          0
cpu3_STLB PREFETCH REQUESTED:          0 ISSUED:          0 USEFUL:          0 USELESS:          0
cpu3_STLB AVERAGE MISS LATENCY: 593.8 cycles

DRAM Statistics

Channel 0 RQ ROW_BUFFER_HIT:      46678
  ROW_BUFFER_MISS:     798561
 AVG DBUS CONGESTED CYCLE: 3.98
WQ ROW_BUFFER_HIT: Channel 0 
  ROW_BUFFER_MISS:      52233
  FULL:     746420

Channel 1 RQ ROW_BUFFER_HIT:      45640
  ROW_BUFFER_MISS:     799150
 AVG DBUS CONGESTED CYCLE: 3.982
WQ ROW_BUFFER_HIT: Channel 1 
  ROW_BUFFER_MISS:      51174
  FULL:     747352
