Original cmd-> /home/grads/r/rdas40/ECEN676/ChampSim/bin/multi_core/nopref_2ch --warmup_instructions=50000000 --simulation_instructions=150000000  /home/grads/r/rdas40/dpc3_traces/644.nab_s-5853B.champsimtrace.xz /home/grads/r/rdas40/dpc3_traces/620.omnetpp_s-874B.champsimtrace.xz /home/grads/r/rdas40/dpc3_traces/649.fotonik3d_s-1176B.champsimtrace.xz /home/grads/r/rdas40/dpc3_traces/605.mcf_s-665B.champsimtrace.xz
WARNING: physical memory size is smaller than virtual memory size.
WARNING: option --warmup_instructions is deprecated. Use --warmup-instructions instead.
WARNING: option --simulation_instructions is deprecated. Use --simulation-instructions instead.

*** ChampSim Multicore Out-of-Order Simulator ***
Warmup Instructions: 50000000
Simulation Instructions: 150000000
Number of CPUs: 4
Page size: 4096

Off-chip DRAM Size: 8 GiB Channels: 2 Width: 64-bit Data Race: 3200 MT/s
Heartbeat CPU 2 instructions: 10000001 cycles: 2500049 heartbeat IPC: 4 cumulative IPC: 4 (Simulation time: 00 hr 03 min 07 sec)
Heartbeat CPU 3 instructions: 10000004 cycles: 3099106 heartbeat IPC: 3.227 cumulative IPC: 3.227 (Simulation time: 00 hr 03 min 53 sec)
Heartbeat CPU 0 instructions: 10000001 cycles: 3450165 heartbeat IPC: 2.898 cumulative IPC: 2.898 (Simulation time: 00 hr 04 min 20 sec)
Heartbeat CPU 1 instructions: 10000001 cycles: 3913136 heartbeat IPC: 2.555 cumulative IPC: 2.555 (Simulation time: 00 hr 04 min 55 sec)
Heartbeat CPU 2 instructions: 20000001 cycles: 5000049 heartbeat IPC: 4 cumulative IPC: 4 (Simulation time: 00 hr 06 min 18 sec)
Heartbeat CPU 3 instructions: 20000003 cycles: 6205596 heartbeat IPC: 3.219 cumulative IPC: 3.223 (Simulation time: 00 hr 07 min 50 sec)
Heartbeat CPU 0 instructions: 20000001 cycles: 6905872 heartbeat IPC: 2.894 cumulative IPC: 2.896 (Simulation time: 00 hr 08 min 43 sec)
Heartbeat CPU 2 instructions: 30000001 cycles: 7500049 heartbeat IPC: 4 cumulative IPC: 4 (Simulation time: 00 hr 09 min 29 sec)
Heartbeat CPU 1 instructions: 20000004 cycles: 7828885 heartbeat IPC: 2.554 cumulative IPC: 2.555 (Simulation time: 00 hr 09 min 55 sec)
Heartbeat CPU 3 instructions: 30000004 cycles: 9305008 heartbeat IPC: 3.226 cumulative IPC: 3.224 (Simulation time: 00 hr 11 min 48 sec)
Heartbeat CPU 2 instructions: 40000001 cycles: 10000049 heartbeat IPC: 4 cumulative IPC: 4 (Simulation time: 00 hr 12 min 42 sec)
Heartbeat CPU 0 instructions: 30000003 cycles: 10358020 heartbeat IPC: 2.897 cumulative IPC: 2.896 (Simulation time: 00 hr 13 min 09 sec)
Heartbeat CPU 1 instructions: 30000001 cycles: 11745859 heartbeat IPC: 2.553 cumulative IPC: 2.554 (Simulation time: 00 hr 14 min 56 sec)
Heartbeat CPU 3 instructions: 40000004 cycles: 12401602 heartbeat IPC: 3.229 cumulative IPC: 3.225 (Simulation time: 00 hr 15 min 45 sec)
Heartbeat CPU 2 instructions: 50000001 cycles: 12500049 heartbeat IPC: 4 cumulative IPC: 4 (Simulation time: 00 hr 15 min 53 sec)
Warmup finished CPU 2 instructions: 50000001 cycles: 12500050 cumulative IPC: 4 (Simulation time: 00 hr 15 min 53 sec)
Heartbeat CPU 0 instructions: 40000004 cycles: 13781057 heartbeat IPC: 2.921 cumulative IPC: 2.903 (Simulation time: 00 hr 17 min 31 sec)
Heartbeat CPU 2 instructions: 60000001 cycles: 15000049 heartbeat IPC: 4 cumulative IPC: 4 (Simulation time: 00 hr 19 min 05 sec)
Heartbeat CPU 3 instructions: 50000001 cycles: 15488256 heartbeat IPC: 3.24 cumulative IPC: 3.228 (Simulation time: 00 hr 19 min 42 sec)
Warmup finished CPU 3 instructions: 50000001 cycles: 15488257 cumulative IPC: 3.228 (Simulation time: 00 hr 19 min 42 sec)
Heartbeat CPU 1 instructions: 40000004 cycles: 15673207 heartbeat IPC: 2.546 cumulative IPC: 2.552 (Simulation time: 00 hr 19 min 57 sec)
Heartbeat CPU 0 instructions: 50000002 cycles: 17212654 heartbeat IPC: 2.914 cumulative IPC: 2.905 (Simulation time: 00 hr 21 min 55 sec)
Warmup finished CPU 0 instructions: 50000002 cycles: 17212655 cumulative IPC: 2.905 (Simulation time: 00 hr 21 min 55 sec)
Heartbeat CPU 2 instructions: 70000001 cycles: 17500049 heartbeat IPC: 4 cumulative IPC: 4 (Simulation time: 00 hr 22 min 16 sec)
Heartbeat CPU 3 instructions: 60000004 cycles: 18586584 heartbeat IPC: 3.228 cumulative IPC: 3.228 (Simulation time: 00 hr 23 min 37 sec)
Heartbeat CPU 1 instructions: 50000002 cycles: 19582150 heartbeat IPC: 2.558 cumulative IPC: 2.553 (Simulation time: 00 hr 24 min 53 sec)
Warmup finished CPU 1 instructions: 50000002 cycles: 19582151 cumulative IPC: 2.553 (Simulation time: 00 hr 24 min 53 sec)
Warmup complete CPU 0 instructions: 56896541 cycles: 19582151 cumulative IPC: 2.906 (Simulation time: 00 hr 24 min 53 sec)
Warmup complete CPU 1 instructions: 50000002 cycles: 19582151 cumulative IPC: 2.553 (Simulation time: 00 hr 24 min 53 sec)
Warmup complete CPU 2 instructions: 78328405 cycles: 19582151 cumulative IPC: 4 (Simulation time: 00 hr 24 min 53 sec)
Warmup complete CPU 3 instructions: 63211541 cycles: 19582151 cumulative IPC: 3.228 (Simulation time: 00 hr 24 min 53 sec)
Heartbeat CPU 0 instructions: 60000001 cycles: 20807205 heartbeat IPC: 2.782 cumulative IPC: 2.533 (Simulation time: 00 hr 25 min 49 sec)
Heartbeat CPU 2 instructions: 80000004 cycles: 21023309 heartbeat IPC: 2.838 cumulative IPC: 1.16 (Simulation time: 00 hr 26 min 00 sec)
Heartbeat CPU 0 instructions: 70000000 cycles: 24784448 heartbeat IPC: 2.514 cumulative IPC: 2.519 (Simulation time: 00 hr 28 min 54 sec)
Heartbeat CPU 0 instructions: 80000003 cycles: 29715014 heartbeat IPC: 2.028 cumulative IPC: 2.28 (Simulation time: 00 hr 32 min 30 sec)
Heartbeat CPU 2 instructions: 90000000 cycles: 30263385 heartbeat IPC: 1.082 cumulative IPC: 1.093 (Simulation time: 00 hr 32 min 54 sec)
Heartbeat CPU 0 instructions: 90000002 cycles: 34962522 heartbeat IPC: 1.906 cumulative IPC: 2.152 (Simulation time: 00 hr 36 min 13 sec)
Heartbeat CPU 2 instructions: 100000003 cycles: 40022254 heartbeat IPC: 1.025 cumulative IPC: 1.06 (Simulation time: 00 hr 39 min 41 sec)
Heartbeat CPU 0 instructions: 100000000 cycles: 40613370 heartbeat IPC: 1.77 cumulative IPC: 2.049 (Simulation time: 00 hr 40 min 05 sec)
Heartbeat CPU 1 instructions: 60000003 cycles: 41526321 heartbeat IPC: 0.4557 cumulative IPC: 0.4557 (Simulation time: 00 hr 40 min 41 sec)
Heartbeat CPU 3 instructions: 70000000 cycles: 42090315 heartbeat IPC: 0.4255 cumulative IPC: 0.3016 (Simulation time: 00 hr 41 min 05 sec)
Heartbeat CPU 0 instructions: 110000003 cycles: 46081158 heartbeat IPC: 1.829 cumulative IPC: 2.004 (Simulation time: 00 hr 43 min 49 sec)
Heartbeat CPU 2 instructions: 110000003 cycles: 49672289 heartbeat IPC: 1.036 cumulative IPC: 1.053 (Simulation time: 00 hr 46 min 19 sec)
Heartbeat CPU 0 instructions: 120000003 cycles: 51064536 heartbeat IPC: 2.007 cumulative IPC: 2.004 (Simulation time: 00 hr 47 min 18 sec)
Heartbeat CPU 0 instructions: 130000003 cycles: 56071006 heartbeat IPC: 1.997 cumulative IPC: 2.003 (Simulation time: 00 hr 50 min 47 sec)
Heartbeat CPU 2 instructions: 120000003 cycles: 59362287 heartbeat IPC: 1.032 cumulative IPC: 1.048 (Simulation time: 00 hr 53 min 06 sec)
Heartbeat CPU 0 instructions: 140000000 cycles: 61161573 heartbeat IPC: 1.964 cumulative IPC: 1.999 (Simulation time: 00 hr 54 min 21 sec)
Heartbeat CPU 1 instructions: 70000002 cycles: 63786622 heartbeat IPC: 0.4492 cumulative IPC: 0.4524 (Simulation time: 00 hr 56 min 11 sec)
Heartbeat CPU 0 instructions: 150000003 cycles: 66262758 heartbeat IPC: 1.96 cumulative IPC: 1.994 (Simulation time: 00 hr 57 min 54 sec)
Heartbeat CPU 2 instructions: 130000000 cycles: 69035402 heartbeat IPC: 1.034 cumulative IPC: 1.045 (Simulation time: 00 hr 59 min 51 sec)
Heartbeat CPU 0 instructions: 160000000 cycles: 71370535 heartbeat IPC: 1.958 cumulative IPC: 1.991 (Simulation time: 01 hr 01 min 27 sec)
Heartbeat CPU 0 instructions: 170000003 cycles: 76492079 heartbeat IPC: 1.953 cumulative IPC: 1.987 (Simulation time: 01 hr 05 min 05 sec)
Heartbeat CPU 3 instructions: 80000000 cycles: 76728909 heartbeat IPC: 0.2887 cumulative IPC: 0.2938 (Simulation time: 01 hr 05 min 15 sec)
Heartbeat CPU 2 instructions: 140000002 cycles: 78702569 heartbeat IPC: 1.034 cumulative IPC: 1.043 (Simulation time: 01 hr 06 min 40 sec)
Heartbeat CPU 0 instructions: 180000002 cycles: 81604354 heartbeat IPC: 1.956 cumulative IPC: 1.985 (Simulation time: 01 hr 08 min 40 sec)
Heartbeat CPU 1 instructions: 80000002 cycles: 86457119 heartbeat IPC: 0.4411 cumulative IPC: 0.4486 (Simulation time: 01 hr 12 min 04 sec)
Heartbeat CPU 0 instructions: 190000000 cycles: 86712955 heartbeat IPC: 1.957 cumulative IPC: 1.983 (Simulation time: 01 hr 12 min 15 sec)
Heartbeat CPU 2 instructions: 150000000 cycles: 88433558 heartbeat IPC: 1.028 cumulative IPC: 1.041 (Simulation time: 01 hr 13 min 28 sec)
Heartbeat CPU 0 instructions: 200000004 cycles: 91825606 heartbeat IPC: 1.956 cumulative IPC: 1.981 (Simulation time: 01 hr 15 min 51 sec)
Simulation finished CPU 0 instructions: 150000001 cycles: 75781606 cumulative IPC: 1.979 (Simulation time: 01 hr 18 min 18 sec)
Heartbeat CPU 0 instructions: 210000002 cycles: 96944006 heartbeat IPC: 1.954 cumulative IPC: 1.979 (Simulation time: 01 hr 19 min 25 sec)
Heartbeat CPU 2 instructions: 160000003 cycles: 98089121 heartbeat IPC: 1.036 cumulative IPC: 1.04 (Simulation time: 01 hr 20 min 14 sec)
Heartbeat CPU 0 instructions: 220000000 cycles: 101953379 heartbeat IPC: 1.996 cumulative IPC: 1.98 (Simulation time: 01 hr 22 min 56 sec)
Heartbeat CPU 0 instructions: 230000002 cycles: 106974513 heartbeat IPC: 1.992 cumulative IPC: 1.981 (Simulation time: 01 hr 26 min 24 sec)
Heartbeat CPU 2 instructions: 170000002 cycles: 107835181 heartbeat IPC: 1.026 cumulative IPC: 1.039 (Simulation time: 01 hr 27 min 00 sec)
Heartbeat CPU 1 instructions: 90000003 cycles: 108369255 heartbeat IPC: 0.4564 cumulative IPC: 0.4505 (Simulation time: 01 hr 27 min 22 sec)
Heartbeat CPU 3 instructions: 90000003 cycles: 110470677 heartbeat IPC: 0.2964 cumulative IPC: 0.2947 (Simulation time: 01 hr 28 min 51 sec)
Heartbeat CPU 0 instructions: 240000001 cycles: 112007836 heartbeat IPC: 1.987 cumulative IPC: 1.981 (Simulation time: 01 hr 29 min 56 sec)
Heartbeat CPU 0 instructions: 250000000 cycles: 116953914 heartbeat IPC: 2.022 cumulative IPC: 1.983 (Simulation time: 01 hr 33 min 24 sec)
Heartbeat CPU 2 instructions: 180000003 cycles: 117644953 heartbeat IPC: 1.019 cumulative IPC: 1.037 (Simulation time: 01 hr 33 min 52 sec)
Heartbeat CPU 0 instructions: 260000003 cycles: 121940831 heartbeat IPC: 2.005 cumulative IPC: 1.984 (Simulation time: 01 hr 36 min 54 sec)
Heartbeat CPU 0 instructions: 270000001 cycles: 126980020 heartbeat IPC: 1.984 cumulative IPC: 1.984 (Simulation time: 01 hr 40 min 24 sec)
Heartbeat CPU 2 instructions: 190000002 cycles: 127268443 heartbeat IPC: 1.039 cumulative IPC: 1.037 (Simulation time: 01 hr 40 min 37 sec)
Heartbeat CPU 1 instructions: 100000000 cycles: 131438756 heartbeat IPC: 0.4335 cumulative IPC: 0.447 (Simulation time: 01 hr 43 min 33 sec)
Heartbeat CPU 0 instructions: 280000001 cycles: 131886978 heartbeat IPC: 2.038 cumulative IPC: 1.987 (Simulation time: 01 hr 43 min 51 sec)
Heartbeat CPU 0 instructions: 290000000 cycles: 136748331 heartbeat IPC: 2.057 cumulative IPC: 1.99 (Simulation time: 01 hr 47 min 20 sec)
Heartbeat CPU 2 instructions: 200000002 cycles: 136924270 heartbeat IPC: 1.036 cumulative IPC: 1.037 (Simulation time: 01 hr 47 min 28 sec)
Heartbeat CPU 3 instructions: 100000000 cycles: 137910802 heartbeat IPC: 0.3644 cumulative IPC: 0.3109 (Simulation time: 01 hr 48 min 12 sec)
Heartbeat CPU 0 instructions: 300000004 cycles: 140729741 heartbeat IPC: 2.512 cumulative IPC: 2.007 (Simulation time: 01 hr 50 min 24 sec)
Heartbeat CPU 0 instructions: 310000000 cycles: 144798087 heartbeat IPC: 2.458 cumulative IPC: 2.021 (Simulation time: 01 hr 53 min 29 sec)
Heartbeat CPU 2 instructions: 210000001 cycles: 146795048 heartbeat IPC: 1.013 cumulative IPC: 1.035 (Simulation time: 01 hr 54 min 51 sec)
Heartbeat CPU 0 instructions: 320000000 cycles: 149955877 heartbeat IPC: 1.939 cumulative IPC: 2.018 (Simulation time: 01 hr 57 min 06 sec)
Heartbeat CPU 1 instructions: 110000004 cycles: 153310428 heartbeat IPC: 0.4572 cumulative IPC: 0.4487 (Simulation time: 01 hr 59 min 27 sec)
Heartbeat CPU 0 instructions: 330000001 cycles: 155404216 heartbeat IPC: 1.835 cumulative IPC: 2.011 (Simulation time: 02 hr 00 min 51 sec)
Heartbeat CPU 2 instructions: 220000004 cycles: 156385182 heartbeat IPC: 1.043 cumulative IPC: 1.036 (Simulation time: 02 hr 01 min 31 sec)
Heartbeat CPU 0 instructions: 340000002 cycles: 160546386 heartbeat IPC: 1.945 cumulative IPC: 2.008 (Simulation time: 02 hr 04 min 26 sec)
Simulation finished CPU 2 instructions: 150000003 cycles: 144803196 cumulative IPC: 1.036 (Simulation time: 02 hr 07 min 17 sec)
Heartbeat CPU 0 instructions: 350000000 cycles: 164787548 heartbeat IPC: 2.358 cumulative IPC: 2.019 (Simulation time: 02 hr 07 min 35 sec)
Heartbeat CPU 3 instructions: 110000000 cycles: 165311578 heartbeat IPC: 0.365 cumulative IPC: 0.3211 (Simulation time: 02 hr 07 min 58 sec)
Heartbeat CPU 2 instructions: 230000004 cycles: 165967967 heartbeat IPC: 1.044 cumulative IPC: 1.036 (Simulation time: 02 hr 08 min 30 sec)
Heartbeat CPU 0 instructions: 360000002 cycles: 168776934 heartbeat IPC: 2.507 cumulative IPC: 2.032 (Simulation time: 02 hr 10 min 38 sec)
Heartbeat CPU 0 instructions: 370000000 cycles: 172783584 heartbeat IPC: 2.496 cumulative IPC: 2.044 (Simulation time: 02 hr 13 min 46 sec)
Heartbeat CPU 2 instructions: 240000003 cycles: 175671083 heartbeat IPC: 1.031 cumulative IPC: 1.036 (Simulation time: 02 hr 16 min 02 sec)
Heartbeat CPU 1 instructions: 120000004 cycles: 175779458 heartbeat IPC: 0.4451 cumulative IPC: 0.4482 (Simulation time: 02 hr 16 min 06 sec)
Heartbeat CPU 0 instructions: 380000004 cycles: 176764007 heartbeat IPC: 2.512 cumulative IPC: 2.056 (Simulation time: 02 hr 16 min 54 sec)
Heartbeat CPU 0 instructions: 390000003 cycles: 180771455 heartbeat IPC: 2.495 cumulative IPC: 2.067 (Simulation time: 02 hr 19 min 58 sec)
Heartbeat CPU 0 instructions: 400000004 cycles: 184756948 heartbeat IPC: 2.509 cumulative IPC: 2.077 (Simulation time: 02 hr 23 min 02 sec)
Heartbeat CPU 2 instructions: 250000004 cycles: 185335659 heartbeat IPC: 1.035 cumulative IPC: 1.036 (Simulation time: 02 hr 23 min 28 sec)
Heartbeat CPU 0 instructions: 410000002 cycles: 188753262 heartbeat IPC: 2.502 cumulative IPC: 2.087 (Simulation time: 02 hr 26 min 04 sec)
Heartbeat CPU 3 instructions: 120000003 cycles: 192565189 heartbeat IPC: 0.3669 cumulative IPC: 0.3283 (Simulation time: 02 hr 29 min 00 sec)
Heartbeat CPU 0 instructions: 420000004 cycles: 192774744 heartbeat IPC: 2.487 cumulative IPC: 2.097 (Simulation time: 02 hr 29 min 10 sec)
Heartbeat CPU 2 instructions: 260000002 cycles: 194924429 heartbeat IPC: 1.043 cumulative IPC: 1.036 (Simulation time: 02 hr 30 min 50 sec)
Heartbeat CPU 0 instructions: 430000001 cycles: 196784635 heartbeat IPC: 2.494 cumulative IPC: 2.106 (Simulation time: 02 hr 32 min 15 sec)
Heartbeat CPU 1 instructions: 130000002 cycles: 198500402 heartbeat IPC: 0.4401 cumulative IPC: 0.4471 (Simulation time: 02 hr 33 min 34 sec)
Heartbeat CPU 0 instructions: 440000000 cycles: 200795723 heartbeat IPC: 2.493 cumulative IPC: 2.114 (Simulation time: 02 hr 35 min 20 sec)
Heartbeat CPU 2 instructions: 270000003 cycles: 203948388 heartbeat IPC: 1.108 cumulative IPC: 1.04 (Simulation time: 02 hr 37 min 48 sec)
Heartbeat CPU 0 instructions: 450000003 cycles: 204750308 heartbeat IPC: 2.529 cumulative IPC: 2.123 (Simulation time: 02 hr 38 min 25 sec)
Heartbeat CPU 0 instructions: 460000003 cycles: 208785744 heartbeat IPC: 2.478 cumulative IPC: 2.131 (Simulation time: 02 hr 41 min 34 sec)
Heartbeat CPU 2 instructions: 280000001 cycles: 212219650 heartbeat IPC: 1.209 cumulative IPC: 1.047 (Simulation time: 02 hr 44 min 15 sec)
Heartbeat CPU 0 instructions: 470000002 cycles: 212726359 heartbeat IPC: 2.538 cumulative IPC: 2.139 (Simulation time: 02 hr 44 min 40 sec)
Heartbeat CPU 0 instructions: 480000001 cycles: 216715044 heartbeat IPC: 2.507 cumulative IPC: 2.146 (Simulation time: 02 hr 47 min 44 sec)
Heartbeat CPU 3 instructions: 130000000 cycles: 219023578 heartbeat IPC: 0.378 cumulative IPC: 0.3349 (Simulation time: 02 hr 49 min 29 sec)
Heartbeat CPU 1 instructions: 140000001 cycles: 220029820 heartbeat IPC: 0.4645 cumulative IPC: 0.449 (Simulation time: 02 hr 50 min 18 sec)
Heartbeat CPU 0 instructions: 490000001 cycles: 220666611 heartbeat IPC: 2.531 cumulative IPC: 2.154 (Simulation time: 02 hr 50 min 47 sec)
Heartbeat CPU 2 instructions: 290000004 cycles: 221798151 heartbeat IPC: 1.044 cumulative IPC: 1.047 (Simulation time: 02 hr 51 min 40 sec)
Heartbeat CPU 0 instructions: 500000002 cycles: 224643361 heartbeat IPC: 2.515 cumulative IPC: 2.161 (Simulation time: 02 hr 53 min 49 sec)
Heartbeat CPU 0 instructions: 510000004 cycles: 228616980 heartbeat IPC: 2.517 cumulative IPC: 2.168 (Simulation time: 02 hr 56 min 54 sec)
Heartbeat CPU 2 instructions: 300000000 cycles: 231445665 heartbeat IPC: 1.037 cumulative IPC: 1.046 (Simulation time: 02 hr 59 min 04 sec)
Heartbeat CPU 0 instructions: 520000004 cycles: 232634416 heartbeat IPC: 2.489 cumulative IPC: 2.174 (Simulation time: 03 hr 00 min 00 sec)
Heartbeat CPU 0 instructions: 530000002 cycles: 236609707 heartbeat IPC: 2.516 cumulative IPC: 2.18 (Simulation time: 03 hr 03 min 00 sec)
Heartbeat CPU 0 instructions: 540000002 cycles: 240614841 heartbeat IPC: 2.497 cumulative IPC: 2.186 (Simulation time: 03 hr 06 min 03 sec)
Heartbeat CPU 2 instructions: 310000002 cycles: 241082035 heartbeat IPC: 1.038 cumulative IPC: 1.046 (Simulation time: 03 hr 06 min 24 sec)
Heartbeat CPU 1 instructions: 150000003 cycles: 242623695 heartbeat IPC: 0.4426 cumulative IPC: 0.4483 (Simulation time: 03 hr 07 min 35 sec)
Heartbeat CPU 0 instructions: 550000001 cycles: 244651648 heartbeat IPC: 2.477 cumulative IPC: 2.191 (Simulation time: 03 hr 09 min 07 sec)
Heartbeat CPU 3 instructions: 140000002 cycles: 246601616 heartbeat IPC: 0.3626 cumulative IPC: 0.3382 (Simulation time: 03 hr 10 min 37 sec)
Heartbeat CPU 0 instructions: 560000002 cycles: 248721266 heartbeat IPC: 2.457 cumulative IPC: 2.196 (Simulation time: 03 hr 12 min 15 sec)
Heartbeat CPU 2 instructions: 320000002 cycles: 250894229 heartbeat IPC: 1.019 cumulative IPC: 1.045 (Simulation time: 03 hr 13 min 56 sec)
Heartbeat CPU 0 instructions: 570000001 cycles: 252727908 heartbeat IPC: 2.496 cumulative IPC: 2.201 (Simulation time: 03 hr 15 min 22 sec)
Heartbeat CPU 0 instructions: 580000004 cycles: 256737695 heartbeat IPC: 2.494 cumulative IPC: 2.206 (Simulation time: 03 hr 18 min 33 sec)
Heartbeat CPU 2 instructions: 330000001 cycles: 260554328 heartbeat IPC: 1.035 cumulative IPC: 1.044 (Simulation time: 03 hr 21 min 33 sec)
Heartbeat CPU 0 instructions: 590000000 cycles: 260775983 heartbeat IPC: 2.476 cumulative IPC: 2.21 (Simulation time: 03 hr 21 min 44 sec)
Heartbeat CPU 0 instructions: 600000002 cycles: 264799886 heartbeat IPC: 2.485 cumulative IPC: 2.215 (Simulation time: 03 hr 24 min 52 sec)
Heartbeat CPU 1 instructions: 160000002 cycles: 265166703 heartbeat IPC: 0.4436 cumulative IPC: 0.4479 (Simulation time: 03 hr 25 min 08 sec)
Heartbeat CPU 0 instructions: 610000000 cycles: 268826918 heartbeat IPC: 2.483 cumulative IPC: 2.219 (Simulation time: 03 hr 27 min 56 sec)
Heartbeat CPU 2 instructions: 340000002 cycles: 270209079 heartbeat IPC: 1.036 cumulative IPC: 1.044 (Simulation time: 03 hr 29 min 01 sec)
Heartbeat CPU 0 instructions: 620000002 cycles: 272799450 heartbeat IPC: 2.517 cumulative IPC: 2.224 (Simulation time: 03 hr 31 min 00 sec)
Heartbeat CPU 3 instructions: 150000000 cycles: 273468500 heartbeat IPC: 0.3722 cumulative IPC: 0.3418 (Simulation time: 03 hr 31 min 32 sec)
Heartbeat CPU 0 instructions: 630000002 cycles: 276790341 heartbeat IPC: 2.506 cumulative IPC: 2.228 (Simulation time: 03 hr 34 min 03 sec)
Heartbeat CPU 2 instructions: 350000000 cycles: 279934934 heartbeat IPC: 1.028 cumulative IPC: 1.043 (Simulation time: 03 hr 36 min 28 sec)
Heartbeat CPU 0 instructions: 640000004 cycles: 280773034 heartbeat IPC: 2.511 cumulative IPC: 2.232 (Simulation time: 03 hr 37 min 06 sec)
Heartbeat CPU 0 instructions: 650000002 cycles: 284799057 heartbeat IPC: 2.484 cumulative IPC: 2.236 (Simulation time: 03 hr 40 min 12 sec)
Heartbeat CPU 1 instructions: 170000001 cycles: 286860147 heartbeat IPC: 0.461 cumulative IPC: 0.449 (Simulation time: 03 hr 41 min 49 sec)
Heartbeat CPU 0 instructions: 660000000 cycles: 288777691 heartbeat IPC: 2.513 cumulative IPC: 2.24 (Simulation time: 03 hr 43 min 17 sec)
Heartbeat CPU 2 instructions: 360000000 cycles: 289659778 heartbeat IPC: 1.028 cumulative IPC: 1.043 (Simulation time: 03 hr 43 min 56 sec)
Heartbeat CPU 0 instructions: 670000003 cycles: 292808346 heartbeat IPC: 2.481 cumulative IPC: 2.244 (Simulation time: 03 hr 46 min 23 sec)
Heartbeat CPU 0 instructions: 680000002 cycles: 296798827 heartbeat IPC: 2.506 cumulative IPC: 2.248 (Simulation time: 03 hr 49 min 29 sec)
Heartbeat CPU 2 instructions: 370000004 cycles: 299303488 heartbeat IPC: 1.037 cumulative IPC: 1.043 (Simulation time: 03 hr 51 min 25 sec)
Heartbeat CPU 3 instructions: 160000002 cycles: 299757204 heartbeat IPC: 0.3804 cumulative IPC: 0.3455 (Simulation time: 03 hr 51 min 48 sec)
Heartbeat CPU 0 instructions: 690000002 cycles: 300804446 heartbeat IPC: 2.496 cumulative IPC: 2.251 (Simulation time: 03 hr 52 min 35 sec)
Heartbeat CPU 0 instructions: 700000004 cycles: 304809578 heartbeat IPC: 2.497 cumulative IPC: 2.255 (Simulation time: 03 hr 55 min 43 sec)
Heartbeat CPU 2 instructions: 380000003 cycles: 309025028 heartbeat IPC: 1.029 cumulative IPC: 1.042 (Simulation time: 03 hr 58 min 57 sec)
Heartbeat CPU 0 instructions: 710000001 cycles: 309105020 heartbeat IPC: 2.328 cumulative IPC: 2.256 (Simulation time: 03 hr 59 min 01 sec)
Heartbeat CPU 1 instructions: 180000001 cycles: 309120591 heartbeat IPC: 0.4492 cumulative IPC: 0.449 (Simulation time: 03 hr 59 min 02 sec)
Heartbeat CPU 0 instructions: 720000002 cycles: 313158921 heartbeat IPC: 2.467 cumulative IPC: 2.259 (Simulation time: 04 hr 02 min 11 sec)
Heartbeat CPU 0 instructions: 730000000 cycles: 317158268 heartbeat IPC: 2.5 cumulative IPC: 2.262 (Simulation time: 04 hr 05 min 15 sec)
Heartbeat CPU 2 instructions: 390000003 cycles: 318655494 heartbeat IPC: 1.038 cumulative IPC: 1.042 (Simulation time: 04 hr 06 min 24 sec)
Heartbeat CPU 0 instructions: 740000001 cycles: 321160717 heartbeat IPC: 2.498 cumulative IPC: 2.265 (Simulation time: 04 hr 08 min 20 sec)
Heartbeat CPU 0 instructions: 750000002 cycles: 325184448 heartbeat IPC: 2.485 cumulative IPC: 2.268 (Simulation time: 04 hr 11 min 28 sec)
Heartbeat CPU 3 instructions: 170000000 cycles: 327402284 heartbeat IPC: 0.3617 cumulative IPC: 0.3469 (Simulation time: 04 hr 13 min 10 sec)
Heartbeat CPU 2 instructions: 400000001 cycles: 328303791 heartbeat IPC: 1.036 cumulative IPC: 1.042 (Simulation time: 04 hr 13 min 53 sec)
Heartbeat CPU 0 instructions: 760000002 cycles: 329187077 heartbeat IPC: 2.498 cumulative IPC: 2.271 (Simulation time: 04 hr 14 min 33 sec)
Heartbeat CPU 1 instructions: 190000003 cycles: 331776353 heartbeat IPC: 0.4414 cumulative IPC: 0.4484 (Simulation time: 04 hr 16 min 35 sec)
Heartbeat CPU 0 instructions: 770000000 cycles: 333207295 heartbeat IPC: 2.487 cumulative IPC: 2.274 (Simulation time: 04 hr 17 min 41 sec)
Heartbeat CPU 0 instructions: 780000002 cycles: 337182015 heartbeat IPC: 2.516 cumulative IPC: 2.277 (Simulation time: 04 hr 20 min 46 sec)
Heartbeat CPU 2 instructions: 410000001 cycles: 338007894 heartbeat IPC: 1.03 cumulative IPC: 1.042 (Simulation time: 04 hr 21 min 24 sec)
Heartbeat CPU 0 instructions: 790000000 cycles: 341148239 heartbeat IPC: 2.521 cumulative IPC: 2.28 (Simulation time: 04 hr 23 min 53 sec)
Heartbeat CPU 0 instructions: 800000000 cycles: 345144242 heartbeat IPC: 2.503 cumulative IPC: 2.283 (Simulation time: 04 hr 26 min 59 sec)
Heartbeat CPU 2 instructions: 420000001 cycles: 347623919 heartbeat IPC: 1.04 cumulative IPC: 1.042 (Simulation time: 04 hr 28 min 55 sec)
Heartbeat CPU 0 instructions: 810000003 cycles: 349135723 heartbeat IPC: 2.505 cumulative IPC: 2.285 (Simulation time: 04 hr 30 min 05 sec)
Heartbeat CPU 0 instructions: 820000003 cycles: 353145907 heartbeat IPC: 2.494 cumulative IPC: 2.288 (Simulation time: 04 hr 33 min 12 sec)
Heartbeat CPU 3 instructions: 180000004 cycles: 353913400 heartbeat IPC: 0.3772 cumulative IPC: 0.3493 (Simulation time: 04 hr 33 min 50 sec)
Heartbeat CPU 1 instructions: 200000001 cycles: 354010531 heartbeat IPC: 0.4498 cumulative IPC: 0.4485 (Simulation time: 04 hr 33 min 54 sec)
Simulation finished CPU 1 instructions: 150000004 cycles: 334428382 cumulative IPC: 0.4485 (Simulation time: 04 hr 33 min 54 sec)
Heartbeat CPU 0 instructions: 830000001 cycles: 357153975 heartbeat IPC: 2.495 cumulative IPC: 2.29 (Simulation time: 04 hr 36 min 19 sec)
Heartbeat CPU 2 instructions: 430000000 cycles: 357304699 heartbeat IPC: 1.033 cumulative IPC: 1.041 (Simulation time: 04 hr 36 min 26 sec)
Heartbeat CPU 0 instructions: 840000000 cycles: 361144311 heartbeat IPC: 2.506 cumulative IPC: 2.293 (Simulation time: 04 hr 39 min 25 sec)
Heartbeat CPU 0 instructions: 850000002 cycles: 365121873 heartbeat IPC: 2.514 cumulative IPC: 2.295 (Simulation time: 04 hr 42 min 31 sec)
Heartbeat CPU 2 instructions: 440000004 cycles: 366962689 heartbeat IPC: 1.035 cumulative IPC: 1.041 (Simulation time: 04 hr 43 min 56 sec)
Heartbeat CPU 0 instructions: 860000004 cycles: 369131424 heartbeat IPC: 2.494 cumulative IPC: 2.298 (Simulation time: 04 hr 45 min 36 sec)
Heartbeat CPU 0 instructions: 870000003 cycles: 373139108 heartbeat IPC: 2.495 cumulative IPC: 2.3 (Simulation time: 04 hr 48 min 41 sec)
Heartbeat CPU 1 instructions: 210000004 cycles: 376232895 heartbeat IPC: 0.45 cumulative IPC: 0.4486 (Simulation time: 04 hr 51 min 05 sec)
Heartbeat CPU 2 instructions: 450000001 cycles: 376699809 heartbeat IPC: 1.027 cumulative IPC: 1.041 (Simulation time: 04 hr 51 min 26 sec)
Heartbeat CPU 0 instructions: 880000000 cycles: 377150655 heartbeat IPC: 2.493 cumulative IPC: 2.302 (Simulation time: 04 hr 51 min 46 sec)
Heartbeat CPU 0 instructions: 890000003 cycles: 381121223 heartbeat IPC: 2.519 cumulative IPC: 2.304 (Simulation time: 04 hr 54 min 52 sec)
Heartbeat CPU 3 instructions: 190000003 cycles: 381422412 heartbeat IPC: 0.3635 cumulative IPC: 0.3504 (Simulation time: 04 hr 55 min 08 sec)
Heartbeat CPU 0 instructions: 900000000 cycles: 385084130 heartbeat IPC: 2.523 cumulative IPC: 2.307 (Simulation time: 04 hr 57 min 58 sec)
Heartbeat CPU 2 instructions: 460000004 cycles: 386332699 heartbeat IPC: 1.038 cumulative IPC: 1.041 (Simulation time: 04 hr 58 min 54 sec)
Heartbeat CPU 0 instructions: 910000000 cycles: 389120095 heartbeat IPC: 2.478 cumulative IPC: 2.309 (Simulation time: 05 hr 01 min 05 sec)
Heartbeat CPU 0 instructions: 920000004 cycles: 393214815 heartbeat IPC: 2.442 cumulative IPC: 2.31 (Simulation time: 05 hr 04 min 14 sec)
Heartbeat CPU 2 instructions: 470000003 cycles: 396019850 heartbeat IPC: 1.032 cumulative IPC: 1.04 (Simulation time: 05 hr 06 min 24 sec)
Heartbeat CPU 0 instructions: 930000002 cycles: 397294231 heartbeat IPC: 2.451 cumulative IPC: 2.312 (Simulation time: 05 hr 07 min 22 sec)
Heartbeat CPU 1 instructions: 220000004 cycles: 398197123 heartbeat IPC: 0.4553 cumulative IPC: 0.449 (Simulation time: 05 hr 08 min 05 sec)
Heartbeat CPU 0 instructions: 940000000 cycles: 401358523 heartbeat IPC: 2.46 cumulative IPC: 2.313 (Simulation time: 05 hr 10 min 29 sec)
Heartbeat CPU 0 instructions: 950000000 cycles: 405347699 heartbeat IPC: 2.507 cumulative IPC: 2.315 (Simulation time: 05 hr 13 min 37 sec)
Heartbeat CPU 2 instructions: 480000001 cycles: 405664188 heartbeat IPC: 1.037 cumulative IPC: 1.04 (Simulation time: 05 hr 13 min 52 sec)
Heartbeat CPU 3 instructions: 200000000 cycles: 408910792 heartbeat IPC: 0.3638 cumulative IPC: 0.3513 (Simulation time: 05 hr 16 min 23 sec)
Heartbeat CPU 0 instructions: 960000000 cycles: 409369227 heartbeat IPC: 2.487 cumulative IPC: 2.317 (Simulation time: 05 hr 16 min 46 sec)
Heartbeat CPU 0 instructions: 970000002 cycles: 413392365 heartbeat IPC: 2.486 cumulative IPC: 2.319 (Simulation time: 05 hr 19 min 51 sec)
Heartbeat CPU 2 instructions: 490000004 cycles: 415275039 heartbeat IPC: 1.04 cumulative IPC: 1.04 (Simulation time: 05 hr 21 min 19 sec)
Heartbeat CPU 0 instructions: 980000001 cycles: 417437513 heartbeat IPC: 2.472 cumulative IPC: 2.32 (Simulation time: 05 hr 22 min 59 sec)
Heartbeat CPU 1 instructions: 230000004 cycles: 420429269 heartbeat IPC: 0.4498 cumulative IPC: 0.449 (Simulation time: 05 hr 25 min 21 sec)
Heartbeat CPU 0 instructions: 990000003 cycles: 421476957 heartbeat IPC: 2.476 cumulative IPC: 2.322 (Simulation time: 05 hr 26 min 09 sec)
Heartbeat CPU 2 instructions: 500000001 cycles: 424987382 heartbeat IPC: 1.03 cumulative IPC: 1.04 (Simulation time: 05 hr 28 min 56 sec)
Heartbeat CPU 0 instructions: 1000000004 cycles: 425504247 heartbeat IPC: 2.483 cumulative IPC: 2.323 (Simulation time: 05 hr 29 min 21 sec)
Heartbeat CPU 0 instructions: 1010000001 cycles: 429556800 heartbeat IPC: 2.468 cumulative IPC: 2.325 (Simulation time: 05 hr 32 min 27 sec)
Heartbeat CPU 0 instructions: 1020000003 cycles: 433615591 heartbeat IPC: 2.464 cumulative IPC: 2.326 (Simulation time: 05 hr 35 min 33 sec)
Heartbeat CPU 2 instructions: 510000001 cycles: 434681154 heartbeat IPC: 1.032 cumulative IPC: 1.04 (Simulation time: 05 hr 36 min 21 sec)
Heartbeat CPU 3 instructions: 210000000 cycles: 436374388 heartbeat IPC: 0.3641 cumulative IPC: 0.3522 (Simulation time: 05 hr 37 min 38 sec)
Heartbeat CPU 0 instructions: 1030000001 cycles: 437675209 heartbeat IPC: 2.463 cumulative IPC: 2.327 (Simulation time: 05 hr 38 min 38 sec)
Heartbeat CPU 0 instructions: 1040000001 cycles: 441717830 heartbeat IPC: 2.474 cumulative IPC: 2.329 (Simulation time: 05 hr 41 min 43 sec)
Heartbeat CPU 1 instructions: 240000001 cycles: 442657614 heartbeat IPC: 0.4499 cumulative IPC: 0.4491 (Simulation time: 05 hr 42 min 28 sec)
Simulation finished CPU 3 instructions: 150000000 cycles: 424510565 cumulative IPC: 0.3533 (Simulation time: 05 hr 43 min 34 sec)
Simulation complete CPU 0 instructions: 988908913 cycles: 424510565 cumulative IPC: 2.33 (Simulation time: 05 hr 43 min 34 sec)
Simulation complete CPU 1 instructions: 190647979 cycles: 424510565 cumulative IPC: 0.4491 (Simulation time: 05 hr 43 min 34 sec)
Simulation complete CPU 2 instructions: 441454217 cycles: 424510565 cumulative IPC: 1.04 (Simulation time: 05 hr 43 min 34 sec)
Simulation complete CPU 3 instructions: 150000000 cycles: 424510565 cumulative IPC: 0.3533 (Simulation time: 05 hr 43 min 34 sec)

ChampSim completed all CPUs

=== Simulation ===
CPU 0 runs /home/grads/r/rdas40/dpc3_traces/644.nab_s-5853B.champsimtrace.xzCPU 1 runs /home/grads/r/rdas40/dpc3_traces/620.omnetpp_s-874B.champsimtrace.xzCPU 2 runs /home/grads/r/rdas40/dpc3_traces/649.fotonik3d_s-1176B.champsimtrace.xzCPU 3 runs /home/grads/r/rdas40/dpc3_traces/605.mcf_s-665B.champsimtrace.xz
Total Simulation Statistics (not including warmup)

CPU 0 cumulative IPC: 2.33 instructions: 988908913 cycles: 424510565
CPU 0 Branch Prediction Accuracy: 87.8% MPKI: 11.81 Average ROB Occupancy at Mispredict: 188
Branch type MPKI
BRANCH_DIRECT_JUMP: 0.000111
BRANCH_INDIRECT: 1.01e-06
BRANCH_CONDITIONAL: 6.28
BRANCH_DIRECT_CALL: 1.01e-06
BRANCH_INDIRECT_CALL: 0
BRANCH_RETURN: 5.53


CPU 1 cumulative IPC: 0.4491 instructions: 190647979 cycles: 424510565
CPU 1 Branch Prediction Accuracy: 94.91% MPKI: 10.6 Average ROB Occupancy at Mispredict: 83.09
Branch type MPKI
BRANCH_DIRECT_JUMP: 0.924
BRANCH_INDIRECT: 0.127
BRANCH_CONDITIONAL: 8.42
BRANCH_DIRECT_CALL: 0.000131
BRANCH_INDIRECT_CALL: 0.733
BRANCH_RETURN: 0.397


CPU 2 cumulative IPC: 1.04 instructions: 441454217 cycles: 424510565
CPU 2 Branch Prediction Accuracy: 99.59% MPKI: 0.07653 Average ROB Occupancy at Mispredict: 83.48
Branch type MPKI
BRANCH_DIRECT_JUMP: 0.000202
BRANCH_INDIRECT: 0
BRANCH_CONDITIONAL: 0.0581
BRANCH_DIRECT_CALL: 3.62e-05
BRANCH_INDIRECT_CALL: 0
BRANCH_RETURN: 0.0182


CPU 3 cumulative IPC: 0.3533 instructions: 150000000 cycles: 424510565
CPU 3 Branch Prediction Accuracy: 90.34% MPKI: 23.89 Average ROB Occupancy at Mispredict: 18.43
Branch type MPKI
BRANCH_DIRECT_JUMP: 0.254
BRANCH_INDIRECT: 0
BRANCH_CONDITIONAL: 23.6
BRANCH_DIRECT_CALL: 0
BRANCH_INDIRECT_CALL: 0.00066
BRANCH_RETURN: 0

LLC TOTAL        ACCESS:     207750 HIT:       1428 MISS:     206322
LLC LOAD         ACCESS:     197082 HIT:       1134 MISS:     195948
LLC RFO          ACCESS:        462 HIT:        139 MISS:        323
LLC PREFETCH     ACCESS:          0 HIT:          0 MISS:          0
LLC WRITE        ACCESS:       7394 HIT:        149 MISS:       7245
LLC TRANSLATION  ACCESS:       2812 HIT:          6 MISS:       2806
LLC PREFETCH REQUESTED:          0 ISSUED:          0 USEFUL:          0 USELESS:          0
LLC AVERAGE MISS LATENCY: 301.8 cycles
LLC TOTAL        ACCESS:    4453430 HIT:    2042800 MISS:    2410630
LLC LOAD         ACCESS:    2145238 HIT:     555180 MISS:    1590058
LLC RFO          ACCESS:     323910 HIT:     165411 MISS:     158499
LLC PREFETCH     ACCESS:          0 HIT:          0 MISS:          0
LLC WRITE        ACCESS:    1229233 HIT:    1225526 MISS:       3707
LLC TRANSLATION  ACCESS:     755049 HIT:      96683 MISS:     658366
LLC PREFETCH REQUESTED:          0 ISSUED:          0 USEFUL:          0 USELESS:          0
LLC AVERAGE MISS LATENCY: 301.8 cycles
LLC TOTAL        ACCESS:    8171992 HIT:    4306205 MISS:    3865787
LLC LOAD         ACCESS:    4319820 HIT:     455738 MISS:    3864082
LLC RFO          ACCESS:       5179 HIT:       5144 MISS:         35
LLC PREFETCH     ACCESS:          0 HIT:          0 MISS:          0
LLC WRITE        ACCESS:    3846090 HIT:    3844882 MISS:       1208
LLC TRANSLATION  ACCESS:        903 HIT:        441 MISS:        462
LLC PREFETCH REQUESTED:          0 ISSUED:          0 USEFUL:          0 USELESS:          0
LLC AVERAGE MISS LATENCY: 301.8 cycles
LLC TOTAL        ACCESS:    3644419 HIT:    2099171 MISS:    1545248
LLC LOAD         ACCESS:    3021677 HIT:    1495094 MISS:    1526583
LLC RFO          ACCESS:     234768 HIT:     232293 MISS:       2475
LLC PREFETCH     ACCESS:          0 HIT:          0 MISS:          0
LLC WRITE        ACCESS:     373523 HIT:     362688 MISS:      10835
LLC TRANSLATION  ACCESS:      14451 HIT:       9096 MISS:       5355
LLC PREFETCH REQUESTED:          0 ISSUED:          0 USEFUL:          0 USELESS:          0
LLC AVERAGE MISS LATENCY: 301.8 cycles
cpu0_DTLB TOTAL        ACCESS:  177631365 HIT:  176238416 MISS:    1392949
cpu0_DTLB LOAD         ACCESS:  177631365 HIT:  176238416 MISS:    1392949
cpu0_DTLB RFO          ACCESS:          0 HIT:          0 MISS:          0
cpu0_DTLB PREFETCH     ACCESS:          0 HIT:          0 MISS:          0
cpu0_DTLB WRITE        ACCESS:          0 HIT:          0 MISS:          0
cpu0_DTLB TRANSLATION  ACCESS:          0 HIT:          0 MISS:          0
cpu0_DTLB PREFETCH REQUESTED:          0 ISSUED:          0 USEFUL:          0 USELESS:          0
cpu0_DTLB AVERAGE MISS LATENCY: 9.312 cycles
cpu0_DTLB TOTAL        ACCESS:          0 HIT:          0 MISS:          0
cpu0_DTLB LOAD         ACCESS:          0 HIT:          0 MISS:          0
cpu0_DTLB RFO          ACCESS:          0 HIT:          0 MISS:          0
cpu0_DTLB PREFETCH     ACCESS:          0 HIT:          0 MISS:          0
cpu0_DTLB WRITE        ACCESS:          0 HIT:          0 MISS:          0
cpu0_DTLB TRANSLATION  ACCESS:          0 HIT:          0 MISS:          0
cpu0_DTLB PREFETCH REQUESTED:          0 ISSUED:          0 USEFUL:          0 USELESS:          0
cpu0_DTLB AVERAGE MISS LATENCY: 9.312 cycles
cpu0_DTLB TOTAL        ACCESS:          0 HIT:          0 MISS:          0
cpu0_DTLB LOAD         ACCESS:          0 HIT:          0 MISS:          0
cpu0_DTLB RFO          ACCESS:          0 HIT:          0 MISS:          0
cpu0_DTLB PREFETCH     ACCESS:          0 HIT:          0 MISS:          0
cpu0_DTLB WRITE        ACCESS:          0 HIT:          0 MISS:          0
cpu0_DTLB TRANSLATION  ACCESS:          0 HIT:          0 MISS:          0
cpu0_DTLB PREFETCH REQUESTED:          0 ISSUED:          0 USEFUL:          0 USELESS:          0
cpu0_DTLB AVERAGE MISS LATENCY: 9.312 cycles
cpu0_DTLB TOTAL        ACCESS:          0 HIT:          0 MISS:          0
cpu0_DTLB LOAD         ACCESS:          0 HIT:          0 MISS:          0
cpu0_DTLB RFO          ACCESS:          0 HIT:          0 MISS:          0
cpu0_DTLB PREFETCH     ACCESS:          0 HIT:          0 MISS:          0
cpu0_DTLB WRITE        ACCESS:          0 HIT:          0 MISS:          0
cpu0_DTLB TRANSLATION  ACCESS:          0 HIT:          0 MISS:          0
cpu0_DTLB PREFETCH REQUESTED:          0 ISSUED:          0 USEFUL:          0 USELESS:          0
cpu0_DTLB AVERAGE MISS LATENCY: 9.312 cycles
cpu0_ITLB TOTAL        ACCESS:       8571 HIT:       8571 MISS:          0
cpu0_ITLB LOAD         ACCESS:       8571 HIT:       8571 MISS:          0
cpu0_ITLB RFO          ACCESS:          0 HIT:          0 MISS:          0
cpu0_ITLB PREFETCH     ACCESS:          0 HIT:          0 MISS:          0
cpu0_ITLB WRITE        ACCESS:          0 HIT:          0 MISS:          0
cpu0_ITLB TRANSLATION  ACCESS:          0 HIT:          0 MISS:          0
cpu0_ITLB PREFETCH REQUESTED:          0 ISSUED:          0 USEFUL:          0 USELESS:          0
cpu0_ITLB AVERAGE MISS LATENCY: -nan cycles
cpu0_ITLB TOTAL        ACCESS:          0 HIT:          0 MISS:          0
cpu0_ITLB LOAD         ACCESS:          0 HIT:          0 MISS:          0
cpu0_ITLB RFO          ACCESS:          0 HIT:          0 MISS:          0
cpu0_ITLB PREFETCH     ACCESS:          0 HIT:          0 MISS:          0
cpu0_ITLB WRITE        ACCESS:          0 HIT:          0 MISS:          0
cpu0_ITLB TRANSLATION  ACCESS:          0 HIT:          0 MISS:          0
cpu0_ITLB PREFETCH REQUESTED:          0 ISSUED:          0 USEFUL:          0 USELESS:          0
cpu0_ITLB AVERAGE MISS LATENCY: -nan cycles
cpu0_ITLB TOTAL        ACCESS:          0 HIT:          0 MISS:          0
cpu0_ITLB LOAD         ACCESS:          0 HIT:          0 MISS:          0
cpu0_ITLB RFO          ACCESS:          0 HIT:          0 MISS:          0
cpu0_ITLB PREFETCH     ACCESS:          0 HIT:          0 MISS:          0
cpu0_ITLB WRITE        ACCESS:          0 HIT:          0 MISS:          0
cpu0_ITLB TRANSLATION  ACCESS:          0 HIT:          0 MISS:          0
cpu0_ITLB PREFETCH REQUESTED:          0 ISSUED:          0 USEFUL:          0 USELESS:          0
cpu0_ITLB AVERAGE MISS LATENCY: -nan cycles
cpu0_ITLB TOTAL        ACCESS:          0 HIT:          0 MISS:          0
cpu0_ITLB LOAD         ACCESS:          0 HIT:          0 MISS:          0
cpu0_ITLB RFO          ACCESS:          0 HIT:          0 MISS:          0
cpu0_ITLB PREFETCH     ACCESS:          0 HIT:          0 MISS:          0
cpu0_ITLB WRITE        ACCESS:          0 HIT:          0 MISS:          0
cpu0_ITLB TRANSLATION  ACCESS:          0 HIT:          0 MISS:          0
cpu0_ITLB PREFETCH REQUESTED:          0 ISSUED:          0 USEFUL:          0 USELESS:          0
cpu0_ITLB AVERAGE MISS LATENCY: -nan cycles
cpu0_L1D TOTAL        ACCESS:  236597825 HIT:  232510782 MISS:    4087043
cpu0_L1D LOAD         ACCESS:  130028801 HIT:  125997063 MISS:    4031738
cpu0_L1D RFO          ACCESS:          0 HIT:          0 MISS:          0
cpu0_L1D PREFETCH     ACCESS:          0 HIT:          0 MISS:          0
cpu0_L1D WRITE        ACCESS:  106561597 HIT:  106513543 MISS:      48054
cpu0_L1D TRANSLATION  ACCESS:       7427 HIT:        176 MISS:       7251
cpu0_L1D PREFETCH REQUESTED:          0 ISSUED:          0 USEFUL:          0 USELESS:          0
cpu0_L1D AVERAGE MISS LATENCY: 25.29 cycles
cpu0_L1D TOTAL        ACCESS:          0 HIT:          0 MISS:          0
cpu0_L1D LOAD         ACCESS:          0 HIT:          0 MISS:          0
cpu0_L1D RFO          ACCESS:          0 HIT:          0 MISS:          0
cpu0_L1D PREFETCH     ACCESS:          0 HIT:          0 MISS:          0
cpu0_L1D WRITE        ACCESS:          0 HIT:          0 MISS:          0
cpu0_L1D TRANSLATION  ACCESS:          0 HIT:          0 MISS:          0
cpu0_L1D PREFETCH REQUESTED:          0 ISSUED:          0 USEFUL:          0 USELESS:          0
cpu0_L1D AVERAGE MISS LATENCY: 25.29 cycles
cpu0_L1D TOTAL        ACCESS:          0 HIT:          0 MISS:          0
cpu0_L1D LOAD         ACCESS:          0 HIT:          0 MISS:          0
cpu0_L1D RFO          ACCESS:          0 HIT:          0 MISS:          0
cpu0_L1D PREFETCH     ACCESS:          0 HIT:          0 MISS:          0
cpu0_L1D WRITE        ACCESS:          0 HIT:          0 MISS:          0
cpu0_L1D TRANSLATION  ACCESS:          0 HIT:          0 MISS:          0
cpu0_L1D PREFETCH REQUESTED:          0 ISSUED:          0 USEFUL:          0 USELESS:          0
cpu0_L1D AVERAGE MISS LATENCY: 25.29 cycles
cpu0_L1D TOTAL        ACCESS:          0 HIT:          0 MISS:          0
cpu0_L1D LOAD         ACCESS:          0 HIT:          0 MISS:          0
cpu0_L1D RFO          ACCESS:          0 HIT:          0 MISS:          0
cpu0_L1D PREFETCH     ACCESS:          0 HIT:          0 MISS:          0
cpu0_L1D WRITE        ACCESS:          0 HIT:          0 MISS:          0
cpu0_L1D TRANSLATION  ACCESS:          0 HIT:          0 MISS:          0
cpu0_L1D PREFETCH REQUESTED:          0 ISSUED:          0 USEFUL:          0 USELESS:          0
cpu0_L1D AVERAGE MISS LATENCY: 25.29 cycles
cpu0_L1I TOTAL        ACCESS:      10481 HIT:      10479 MISS:          2
cpu0_L1I LOAD         ACCESS:      10481 HIT:      10479 MISS:          2
cpu0_L1I RFO          ACCESS:          0 HIT:          0 MISS:          0
cpu0_L1I PREFETCH     ACCESS:          0 HIT:          0 MISS:          0
cpu0_L1I WRITE        ACCESS:          0 HIT:          0 MISS:          0
cpu0_L1I TRANSLATION  ACCESS:          0 HIT:          0 MISS:          0
cpu0_L1I PREFETCH REQUESTED:          0 ISSUED:          0 USEFUL:          0 USELESS:          0
cpu0_L1I AVERAGE MISS LATENCY: 504.5 cycles
cpu0_L1I TOTAL        ACCESS:          0 HIT:          0 MISS:          0
cpu0_L1I LOAD         ACCESS:          0 HIT:          0 MISS:          0
cpu0_L1I RFO          ACCESS:          0 HIT:          0 MISS:          0
cpu0_L1I PREFETCH     ACCESS:          0 HIT:          0 MISS:          0
cpu0_L1I WRITE        ACCESS:          0 HIT:          0 MISS:          0
cpu0_L1I TRANSLATION  ACCESS:          0 HIT:          0 MISS:          0
cpu0_L1I PREFETCH REQUESTED:          0 ISSUED:          0 USEFUL:          0 USELESS:          0
cpu0_L1I AVERAGE MISS LATENCY: 504.5 cycles
cpu0_L1I TOTAL        ACCESS:          0 HIT:          0 MISS:          0
cpu0_L1I LOAD         ACCESS:          0 HIT:          0 MISS:          0
cpu0_L1I RFO          ACCESS:          0 HIT:          0 MISS:          0
cpu0_L1I PREFETCH     ACCESS:          0 HIT:          0 MISS:          0
cpu0_L1I WRITE        ACCESS:          0 HIT:          0 MISS:          0
cpu0_L1I TRANSLATION  ACCESS:          0 HIT:          0 MISS:          0
cpu0_L1I PREFETCH REQUESTED:          0 ISSUED:          0 USEFUL:          0 USELESS:          0
cpu0_L1I AVERAGE MISS LATENCY: 504.5 cycles
cpu0_L1I TOTAL        ACCESS:          0 HIT:          0 MISS:          0
cpu0_L1I LOAD         ACCESS:          0 HIT:          0 MISS:          0
cpu0_L1I RFO          ACCESS:          0 HIT:          0 MISS:          0
cpu0_L1I PREFETCH     ACCESS:          0 HIT:          0 MISS:          0
cpu0_L1I WRITE        ACCESS:          0 HIT:          0 MISS:          0
cpu0_L1I TRANSLATION  ACCESS:          0 HIT:          0 MISS:          0
cpu0_L1I PREFETCH REQUESTED:          0 ISSUED:          0 USEFUL:          0 USELESS:          0
cpu0_L1I AVERAGE MISS LATENCY: 504.5 cycles
cpu0_L2C TOTAL        ACCESS:    5427298 HIT:    5226933 MISS:     200365
cpu0_L2C LOAD         ACCESS:    4019565 HIT:    3822483 MISS:     197082
cpu0_L2C RFO          ACCESS:      12495 HIT:      12033 MISS:        462
cpu0_L2C PREFETCH     ACCESS:          0 HIT:          0 MISS:          0
cpu0_L2C WRITE        ACCESS:    1387987 HIT:    1387978 MISS:          9
cpu0_L2C TRANSLATION  ACCESS:       7251 HIT:       4439 MISS:       2812
cpu0_L2C PREFETCH REQUESTED:          0 ISSUED:          0 USEFUL:          0 USELESS:          0
cpu0_L2C AVERAGE MISS LATENCY: 313.3 cycles
cpu0_L2C TOTAL        ACCESS:          0 HIT:          0 MISS:          0
cpu0_L2C LOAD         ACCESS:          0 HIT:          0 MISS:          0
cpu0_L2C RFO          ACCESS:          0 HIT:          0 MISS:          0
cpu0_L2C PREFETCH     ACCESS:          0 HIT:          0 MISS:          0
cpu0_L2C WRITE        ACCESS:          0 HIT:          0 MISS:          0
cpu0_L2C TRANSLATION  ACCESS:          0 HIT:          0 MISS:          0
cpu0_L2C PREFETCH REQUESTED:          0 ISSUED:          0 USEFUL:          0 USELESS:          0
cpu0_L2C AVERAGE MISS LATENCY: 313.3 cycles
cpu0_L2C TOTAL        ACCESS:          0 HIT:          0 MISS:          0
cpu0_L2C LOAD         ACCESS:          0 HIT:          0 MISS:          0
cpu0_L2C RFO          ACCESS:          0 HIT:          0 MISS:          0
cpu0_L2C PREFETCH     ACCESS:          0 HIT:          0 MISS:          0
cpu0_L2C WRITE        ACCESS:          0 HIT:          0 MISS:          0
cpu0_L2C TRANSLATION  ACCESS:          0 HIT:          0 MISS:          0
cpu0_L2C PREFETCH REQUESTED:          0 ISSUED:          0 USEFUL:          0 USELESS:          0
cpu0_L2C AVERAGE MISS LATENCY: 313.3 cycles
cpu0_L2C TOTAL        ACCESS:          0 HIT:          0 MISS:          0
cpu0_L2C LOAD         ACCESS:          0 HIT:          0 MISS:          0
cpu0_L2C RFO          ACCESS:          0 HIT:          0 MISS:          0
cpu0_L2C PREFETCH     ACCESS:          0 HIT:          0 MISS:          0
cpu0_L2C WRITE        ACCESS:          0 HIT:          0 MISS:          0
cpu0_L2C TRANSLATION  ACCESS:          0 HIT:          0 MISS:          0
cpu0_L2C PREFETCH REQUESTED:          0 ISSUED:          0 USEFUL:          0 USELESS:          0
cpu0_L2C AVERAGE MISS LATENCY: 313.3 cycles
cpu0_STLB TOTAL        ACCESS:    1341900 HIT:    1334587 MISS:       7313
cpu0_STLB LOAD         ACCESS:    1341900 HIT:    1334587 MISS:       7313
cpu0_STLB RFO          ACCESS:          0 HIT:          0 MISS:          0
cpu0_STLB PREFETCH     ACCESS:          0 HIT:          0 MISS:          0
cpu0_STLB WRITE        ACCESS:          0 HIT:          0 MISS:          0
cpu0_STLB TRANSLATION  ACCESS:          0 HIT:          0 MISS:          0
cpu0_STLB PREFETCH REQUESTED:          0 ISSUED:          0 USEFUL:          0 USELESS:          0
cpu0_STLB AVERAGE MISS LATENCY: 360.9 cycles
cpu0_STLB TOTAL        ACCESS:          0 HIT:          0 MISS:          0
cpu0_STLB LOAD         ACCESS:          0 HIT:          0 MISS:          0
cpu0_STLB RFO          ACCESS:          0 HIT:          0 MISS:          0
cpu0_STLB PREFETCH     ACCESS:          0 HIT:          0 MISS:          0
cpu0_STLB WRITE        ACCESS:          0 HIT:          0 MISS:          0
cpu0_STLB TRANSLATION  ACCESS:          0 HIT:          0 MISS:          0
cpu0_STLB PREFETCH REQUESTED:          0 ISSUED:          0 USEFUL:          0 USELESS:          0
cpu0_STLB AVERAGE MISS LATENCY: 360.9 cycles
cpu0_STLB TOTAL        ACCESS:          0 HIT:          0 MISS:          0
cpu0_STLB LOAD         ACCESS:          0 HIT:          0 MISS:          0
cpu0_STLB RFO          ACCESS:          0 HIT:          0 MISS:          0
cpu0_STLB PREFETCH     ACCESS:          0 HIT:          0 MISS:          0
cpu0_STLB WRITE        ACCESS:          0 HIT:          0 MISS:          0
cpu0_STLB TRANSLATION  ACCESS:          0 HIT:          0 MISS:          0
cpu0_STLB PREFETCH REQUESTED:          0 ISSUED:          0 USEFUL:          0 USELESS:          0
cpu0_STLB AVERAGE MISS LATENCY: 360.9 cycles
cpu0_STLB TOTAL        ACCESS:          0 HIT:          0 MISS:          0
cpu0_STLB LOAD         ACCESS:          0 HIT:          0 MISS:          0
cpu0_STLB RFO          ACCESS:          0 HIT:          0 MISS:          0
cpu0_STLB PREFETCH     ACCESS:          0 HIT:          0 MISS:          0
cpu0_STLB WRITE        ACCESS:          0 HIT:          0 MISS:          0
cpu0_STLB TRANSLATION  ACCESS:          0 HIT:          0 MISS:          0
cpu0_STLB PREFETCH REQUESTED:          0 ISSUED:          0 USEFUL:          0 USELESS:          0
cpu0_STLB AVERAGE MISS LATENCY: 360.9 cycles
cpu1_DTLB TOTAL        ACCESS:          0 HIT:          0 MISS:          0
cpu1_DTLB LOAD         ACCESS:          0 HIT:          0 MISS:          0
cpu1_DTLB RFO          ACCESS:          0 HIT:          0 MISS:          0
cpu1_DTLB PREFETCH     ACCESS:          0 HIT:          0 MISS:          0
cpu1_DTLB WRITE        ACCESS:          0 HIT:          0 MISS:          0
cpu1_DTLB TRANSLATION  ACCESS:          0 HIT:          0 MISS:          0
cpu1_DTLB PREFETCH REQUESTED:          0 ISSUED:          0 USEFUL:          0 USELESS:          0
cpu1_DTLB AVERAGE MISS LATENCY: 64.66 cycles
cpu1_DTLB TOTAL        ACCESS:   48583239 HIT:   44403437 MISS:    4179802
cpu1_DTLB LOAD         ACCESS:   48583239 HIT:   44403437 MISS:    4179802
cpu1_DTLB RFO          ACCESS:          0 HIT:          0 MISS:          0
cpu1_DTLB PREFETCH     ACCESS:          0 HIT:          0 MISS:          0
cpu1_DTLB WRITE        ACCESS:          0 HIT:          0 MISS:          0
cpu1_DTLB TRANSLATION  ACCESS:          0 HIT:          0 MISS:          0
cpu1_DTLB PREFETCH REQUESTED:          0 ISSUED:          0 USEFUL:          0 USELESS:          0
cpu1_DTLB AVERAGE MISS LATENCY: 64.66 cycles
cpu1_DTLB TOTAL        ACCESS:          0 HIT:          0 MISS:          0
cpu1_DTLB LOAD         ACCESS:          0 HIT:          0 MISS:          0
cpu1_DTLB RFO          ACCESS:          0 HIT:          0 MISS:          0
cpu1_DTLB PREFETCH     ACCESS:          0 HIT:          0 MISS:          0
cpu1_DTLB WRITE        ACCESS:          0 HIT:          0 MISS:          0
cpu1_DTLB TRANSLATION  ACCESS:          0 HIT:          0 MISS:          0
cpu1_DTLB PREFETCH REQUESTED:          0 ISSUED:          0 USEFUL:          0 USELESS:          0
cpu1_DTLB AVERAGE MISS LATENCY: 64.66 cycles
cpu1_DTLB TOTAL        ACCESS:          0 HIT:          0 MISS:          0
cpu1_DTLB LOAD         ACCESS:          0 HIT:          0 MISS:          0
cpu1_DTLB RFO          ACCESS:          0 HIT:          0 MISS:          0
cpu1_DTLB PREFETCH     ACCESS:          0 HIT:          0 MISS:          0
cpu1_DTLB WRITE        ACCESS:          0 HIT:          0 MISS:          0
cpu1_DTLB TRANSLATION  ACCESS:          0 HIT:          0 MISS:          0
cpu1_DTLB PREFETCH REQUESTED:          0 ISSUED:          0 USEFUL:          0 USELESS:          0
cpu1_DTLB AVERAGE MISS LATENCY: 64.66 cycles
cpu1_ITLB TOTAL        ACCESS:          0 HIT:          0 MISS:          0
cpu1_ITLB LOAD         ACCESS:          0 HIT:          0 MISS:          0
cpu1_ITLB RFO          ACCESS:          0 HIT:          0 MISS:          0
cpu1_ITLB PREFETCH     ACCESS:          0 HIT:          0 MISS:          0
cpu1_ITLB WRITE        ACCESS:          0 HIT:          0 MISS:          0
cpu1_ITLB TRANSLATION  ACCESS:          0 HIT:          0 MISS:          0
cpu1_ITLB PREFETCH REQUESTED:          0 ISSUED:          0 USEFUL:          0 USELESS:          0
cpu1_ITLB AVERAGE MISS LATENCY: 6.077 cycles
cpu1_ITLB TOTAL        ACCESS:   13471082 HIT:   13120338 MISS:     350744
cpu1_ITLB LOAD         ACCESS:   13471082 HIT:   13120338 MISS:     350744
cpu1_ITLB RFO          ACCESS:          0 HIT:          0 MISS:          0
cpu1_ITLB PREFETCH     ACCESS:          0 HIT:          0 MISS:          0
cpu1_ITLB WRITE        ACCESS:          0 HIT:          0 MISS:          0
cpu1_ITLB TRANSLATION  ACCESS:          0 HIT:          0 MISS:          0
cpu1_ITLB PREFETCH REQUESTED:          0 ISSUED:          0 USEFUL:          0 USELESS:          0
cpu1_ITLB AVERAGE MISS LATENCY: 6.077 cycles
cpu1_ITLB TOTAL        ACCESS:          0 HIT:          0 MISS:          0
cpu1_ITLB LOAD         ACCESS:          0 HIT:          0 MISS:          0
cpu1_ITLB RFO          ACCESS:          0 HIT:          0 MISS:          0
cpu1_ITLB PREFETCH     ACCESS:          0 HIT:          0 MISS:          0
cpu1_ITLB WRITE        ACCESS:          0 HIT:          0 MISS:          0
cpu1_ITLB TRANSLATION  ACCESS:          0 HIT:          0 MISS:          0
cpu1_ITLB PREFETCH REQUESTED:          0 ISSUED:          0 USEFUL:          0 USELESS:          0
cpu1_ITLB AVERAGE MISS LATENCY: 6.077 cycles
cpu1_ITLB TOTAL        ACCESS:          0 HIT:          0 MISS:          0
cpu1_ITLB LOAD         ACCESS:          0 HIT:          0 MISS:          0
cpu1_ITLB RFO          ACCESS:          0 HIT:          0 MISS:          0
cpu1_ITLB PREFETCH     ACCESS:          0 HIT:          0 MISS:          0
cpu1_ITLB WRITE        ACCESS:          0 HIT:          0 MISS:          0
cpu1_ITLB TRANSLATION  ACCESS:          0 HIT:          0 MISS:          0
cpu1_ITLB PREFETCH REQUESTED:          0 ISSUED:          0 USEFUL:          0 USELESS:          0
cpu1_ITLB AVERAGE MISS LATENCY: 6.077 cycles
cpu1_L1D TOTAL        ACCESS:          0 HIT:          0 MISS:          0
cpu1_L1D LOAD         ACCESS:          0 HIT:          0 MISS:          0
cpu1_L1D RFO          ACCESS:          0 HIT:          0 MISS:          0
cpu1_L1D PREFETCH     ACCESS:          0 HIT:          0 MISS:          0
cpu1_L1D WRITE        ACCESS:          0 HIT:          0 MISS:          0
cpu1_L1D TRANSLATION  ACCESS:          0 HIT:          0 MISS:          0
cpu1_L1D PREFETCH REQUESTED:          0 ISSUED:          0 USEFUL:          0 USELESS:          0
cpu1_L1D AVERAGE MISS LATENCY: 143.6 cycles
cpu1_L1D TOTAL        ACCESS:   63134290 HIT:   56939644 MISS:    6194646
cpu1_L1D LOAD         ACCESS:   29022360 HIT:   25150076 MISS:    3872284
cpu1_L1D RFO          ACCESS:          0 HIT:          0 MISS:          0
cpu1_L1D PREFETCH     ACCESS:          0 HIT:          0 MISS:          0
cpu1_L1D WRITE        ACCESS:   32981931 HIT:   31605981 MISS:    1375950
cpu1_L1D TRANSLATION  ACCESS:    1129999 HIT:     183587 MISS:     946412
cpu1_L1D PREFETCH REQUESTED:          0 ISSUED:          0 USEFUL:          0 USELESS:          0
cpu1_L1D AVERAGE MISS LATENCY: 143.6 cycles
cpu1_L1D TOTAL        ACCESS:          0 HIT:          0 MISS:          0
cpu1_L1D LOAD         ACCESS:          0 HIT:          0 MISS:          0
cpu1_L1D RFO          ACCESS:          0 HIT:          0 MISS:          0
cpu1_L1D PREFETCH     ACCESS:          0 HIT:          0 MISS:          0
cpu1_L1D WRITE        ACCESS:          0 HIT:          0 MISS:          0
cpu1_L1D TRANSLATION  ACCESS:          0 HIT:          0 MISS:          0
cpu1_L1D PREFETCH REQUESTED:          0 ISSUED:          0 USEFUL:          0 USELESS:          0
cpu1_L1D AVERAGE MISS LATENCY: 143.6 cycles
cpu1_L1D TOTAL        ACCESS:          0 HIT:          0 MISS:          0
cpu1_L1D LOAD         ACCESS:          0 HIT:          0 MISS:          0
cpu1_L1D RFO          ACCESS:          0 HIT:          0 MISS:          0
cpu1_L1D PREFETCH     ACCESS:          0 HIT:          0 MISS:          0
cpu1_L1D WRITE        ACCESS:          0 HIT:          0 MISS:          0
cpu1_L1D TRANSLATION  ACCESS:          0 HIT:          0 MISS:          0
cpu1_L1D PREFETCH REQUESTED:          0 ISSUED:          0 USEFUL:          0 USELESS:          0
cpu1_L1D AVERAGE MISS LATENCY: 143.6 cycles
cpu1_L1I TOTAL        ACCESS:          0 HIT:          0 MISS:          0
cpu1_L1I LOAD         ACCESS:          0 HIT:          0 MISS:          0
cpu1_L1I RFO          ACCESS:          0 HIT:          0 MISS:          0
cpu1_L1I PREFETCH     ACCESS:          0 HIT:          0 MISS:          0
cpu1_L1I WRITE        ACCESS:          0 HIT:          0 MISS:          0
cpu1_L1I TRANSLATION  ACCESS:          0 HIT:          0 MISS:          0
cpu1_L1I PREFETCH REQUESTED:          0 ISSUED:          0 USEFUL:          0 USELESS:          0
cpu1_L1I AVERAGE MISS LATENCY: 20.12 cycles
cpu1_L1I TOTAL        ACCESS:   16398147 HIT:   16303564 MISS:      94583
cpu1_L1I LOAD         ACCESS:   16398147 HIT:   16303564 MISS:      94583
cpu1_L1I RFO          ACCESS:          0 HIT:          0 MISS:          0
cpu1_L1I PREFETCH     ACCESS:          0 HIT:          0 MISS:          0
cpu1_L1I WRITE        ACCESS:          0 HIT:          0 MISS:          0
cpu1_L1I TRANSLATION  ACCESS:          0 HIT:          0 MISS:          0
cpu1_L1I PREFETCH REQUESTED:          0 ISSUED:          0 USEFUL:          0 USELESS:          0
cpu1_L1I AVERAGE MISS LATENCY: 20.12 cycles
cpu1_L1I TOTAL        ACCESS:          0 HIT:          0 MISS:          0
cpu1_L1I LOAD         ACCESS:          0 HIT:          0 MISS:          0
cpu1_L1I RFO          ACCESS:          0 HIT:          0 MISS:          0
cpu1_L1I PREFETCH     ACCESS:          0 HIT:          0 MISS:          0
cpu1_L1I WRITE        ACCESS:          0 HIT:          0 MISS:          0
cpu1_L1I TRANSLATION  ACCESS:          0 HIT:          0 MISS:          0
cpu1_L1I PREFETCH REQUESTED:          0 ISSUED:          0 USEFUL:          0 USELESS:          0
cpu1_L1I AVERAGE MISS LATENCY: 20.12 cycles
cpu1_L1I TOTAL        ACCESS:          0 HIT:          0 MISS:          0
cpu1_L1I LOAD         ACCESS:          0 HIT:          0 MISS:          0
cpu1_L1I RFO          ACCESS:          0 HIT:          0 MISS:          0
cpu1_L1I PREFETCH     ACCESS:          0 HIT:          0 MISS:          0
cpu1_L1I WRITE        ACCESS:          0 HIT:          0 MISS:          0
cpu1_L1I TRANSLATION  ACCESS:          0 HIT:          0 MISS:          0
cpu1_L1I PREFETCH REQUESTED:          0 ISSUED:          0 USEFUL:          0 USELESS:          0
cpu1_L1I AVERAGE MISS LATENCY: 20.12 cycles
cpu1_L2C TOTAL        ACCESS:          0 HIT:          0 MISS:          0
cpu1_L2C LOAD         ACCESS:          0 HIT:          0 MISS:          0
cpu1_L2C RFO          ACCESS:          0 HIT:          0 MISS:          0
cpu1_L2C PREFETCH     ACCESS:          0 HIT:          0 MISS:          0
cpu1_L2C WRITE        ACCESS:          0 HIT:          0 MISS:          0
cpu1_L2C TRANSLATION  ACCESS:          0 HIT:          0 MISS:          0
cpu1_L2C PREFETCH REQUESTED:          0 ISSUED:          0 USEFUL:          0 USELESS:          0
cpu1_L2C AVERAGE MISS LATENCY: 269.3 cycles
cpu1_L2C TOTAL        ACCESS:    6425579 HIT:    3198355 MISS:    3227224
cpu1_L2C LOAD         ACCESS:    3230945 HIT:    1085707 MISS:    2145238
cpu1_L2C RFO          ACCESS:     466673 HIT:     142764 MISS:     323909
cpu1_L2C PREFETCH     ACCESS:          0 HIT:          0 MISS:          0
cpu1_L2C WRITE        ACCESS:    1782669 HIT:    1779641 MISS:       3028
cpu1_L2C TRANSLATION  ACCESS:     945292 HIT:     190243 MISS:     755049
cpu1_L2C PREFETCH REQUESTED:          0 ISSUED:          0 USEFUL:          0 USELESS:          0
cpu1_L2C AVERAGE MISS LATENCY: 269.3 cycles
cpu1_L2C TOTAL        ACCESS:          0 HIT:          0 MISS:          0
cpu1_L2C LOAD         ACCESS:          0 HIT:          0 MISS:          0
cpu1_L2C RFO          ACCESS:          0 HIT:          0 MISS:          0
cpu1_L2C PREFETCH     ACCESS:          0 HIT:          0 MISS:          0
cpu1_L2C WRITE        ACCESS:          0 HIT:          0 MISS:          0
cpu1_L2C TRANSLATION  ACCESS:          0 HIT:          0 MISS:          0
cpu1_L2C PREFETCH REQUESTED:          0 ISSUED:          0 USEFUL:          0 USELESS:          0
cpu1_L2C AVERAGE MISS LATENCY: 269.3 cycles
cpu1_L2C TOTAL        ACCESS:          0 HIT:          0 MISS:          0
cpu1_L2C LOAD         ACCESS:          0 HIT:          0 MISS:          0
cpu1_L2C RFO          ACCESS:          0 HIT:          0 MISS:          0
cpu1_L2C PREFETCH     ACCESS:          0 HIT:          0 MISS:          0
cpu1_L2C WRITE        ACCESS:          0 HIT:          0 MISS:          0
cpu1_L2C TRANSLATION  ACCESS:          0 HIT:          0 MISS:          0
cpu1_L2C PREFETCH REQUESTED:          0 ISSUED:          0 USEFUL:          0 USELESS:          0
cpu1_L2C AVERAGE MISS LATENCY: 269.3 cycles
cpu1_STLB TOTAL        ACCESS:          0 HIT:          0 MISS:          0
cpu1_STLB LOAD         ACCESS:          0 HIT:          0 MISS:          0
cpu1_STLB RFO          ACCESS:          0 HIT:          0 MISS:          0
cpu1_STLB PREFETCH     ACCESS:          0 HIT:          0 MISS:          0
cpu1_STLB WRITE        ACCESS:          0 HIT:          0 MISS:          0
cpu1_STLB TRANSLATION  ACCESS:          0 HIT:          0 MISS:          0
cpu1_STLB PREFETCH REQUESTED:          0 ISSUED:          0 USEFUL:          0 USELESS:          0
cpu1_STLB AVERAGE MISS LATENCY: 307.3 cycles
cpu1_STLB TOTAL        ACCESS:    3832835 HIT:    3017842 MISS:     814993
cpu1_STLB LOAD         ACCESS:    3832835 HIT:    3017842 MISS:     814993
cpu1_STLB RFO          ACCESS:          0 HIT:          0 MISS:          0
cpu1_STLB PREFETCH     ACCESS:          0 HIT:          0 MISS:          0
cpu1_STLB WRITE        ACCESS:          0 HIT:          0 MISS:          0
cpu1_STLB TRANSLATION  ACCESS:          0 HIT:          0 MISS:          0
cpu1_STLB PREFETCH REQUESTED:          0 ISSUED:          0 USEFUL:          0 USELESS:          0
cpu1_STLB AVERAGE MISS LATENCY: 307.3 cycles
cpu1_STLB TOTAL        ACCESS:          0 HIT:          0 MISS:          0
cpu1_STLB LOAD         ACCESS:          0 HIT:          0 MISS:          0
cpu1_STLB RFO          ACCESS:          0 HIT:          0 MISS:          0
cpu1_STLB PREFETCH     ACCESS:          0 HIT:          0 MISS:          0
cpu1_STLB WRITE        ACCESS:          0 HIT:          0 MISS:          0
cpu1_STLB TRANSLATION  ACCESS:          0 HIT:          0 MISS:          0
cpu1_STLB PREFETCH REQUESTED:          0 ISSUED:          0 USEFUL:          0 USELESS:          0
cpu1_STLB AVERAGE MISS LATENCY: 307.3 cycles
cpu1_STLB TOTAL        ACCESS:          0 HIT:          0 MISS:          0
cpu1_STLB LOAD         ACCESS:          0 HIT:          0 MISS:          0
cpu1_STLB RFO          ACCESS:          0 HIT:          0 MISS:          0
cpu1_STLB PREFETCH     ACCESS:          0 HIT:          0 MISS:          0
cpu1_STLB WRITE        ACCESS:          0 HIT:          0 MISS:          0
cpu1_STLB TRANSLATION  ACCESS:          0 HIT:          0 MISS:          0
cpu1_STLB PREFETCH REQUESTED:          0 ISSUED:          0 USEFUL:          0 USELESS:          0
cpu1_STLB AVERAGE MISS LATENCY: 307.3 cycles
cpu2_DTLB TOTAL        ACCESS:          0 HIT:          0 MISS:          0
cpu2_DTLB LOAD         ACCESS:          0 HIT:          0 MISS:          0
cpu2_DTLB RFO          ACCESS:          0 HIT:          0 MISS:          0
cpu2_DTLB PREFETCH     ACCESS:          0 HIT:          0 MISS:          0
cpu2_DTLB WRITE        ACCESS:          0 HIT:          0 MISS:          0
cpu2_DTLB TRANSLATION  ACCESS:          0 HIT:          0 MISS:          0
cpu2_DTLB PREFETCH REQUESTED:          0 ISSUED:          0 USEFUL:          0 USELESS:          0
cpu2_DTLB AVERAGE MISS LATENCY: 21.29 cycles
cpu2_DTLB TOTAL        ACCESS:          0 HIT:          0 MISS:          0
cpu2_DTLB LOAD         ACCESS:          0 HIT:          0 MISS:          0
cpu2_DTLB RFO          ACCESS:          0 HIT:          0 MISS:          0
cpu2_DTLB PREFETCH     ACCESS:          0 HIT:          0 MISS:          0
cpu2_DTLB WRITE        ACCESS:          0 HIT:          0 MISS:          0
cpu2_DTLB TRANSLATION  ACCESS:          0 HIT:          0 MISS:          0
cpu2_DTLB PREFETCH REQUESTED:          0 ISSUED:          0 USEFUL:          0 USELESS:          0
cpu2_DTLB AVERAGE MISS LATENCY: 21.29 cycles
cpu2_DTLB TOTAL        ACCESS:   51828702 HIT:   51477371 MISS:     351331
cpu2_DTLB LOAD         ACCESS:   51828702 HIT:   51477371 MISS:     351331
cpu2_DTLB RFO          ACCESS:          0 HIT:          0 MISS:          0
cpu2_DTLB PREFETCH     ACCESS:          0 HIT:          0 MISS:          0
cpu2_DTLB WRITE        ACCESS:          0 HIT:          0 MISS:          0
cpu2_DTLB TRANSLATION  ACCESS:          0 HIT:          0 MISS:          0
cpu2_DTLB PREFETCH REQUESTED:          0 ISSUED:          0 USEFUL:          0 USELESS:          0
cpu2_DTLB AVERAGE MISS LATENCY: 21.29 cycles
cpu2_DTLB TOTAL        ACCESS:          0 HIT:          0 MISS:          0
cpu2_DTLB LOAD         ACCESS:          0 HIT:          0 MISS:          0
cpu2_DTLB RFO          ACCESS:          0 HIT:          0 MISS:          0
cpu2_DTLB PREFETCH     ACCESS:          0 HIT:          0 MISS:          0
cpu2_DTLB WRITE        ACCESS:          0 HIT:          0 MISS:          0
cpu2_DTLB TRANSLATION  ACCESS:          0 HIT:          0 MISS:          0
cpu2_DTLB PREFETCH REQUESTED:          0 ISSUED:          0 USEFUL:          0 USELESS:          0
cpu2_DTLB AVERAGE MISS LATENCY: 21.29 cycles
cpu2_ITLB TOTAL        ACCESS:          0 HIT:          0 MISS:          0
cpu2_ITLB LOAD         ACCESS:          0 HIT:          0 MISS:          0
cpu2_ITLB RFO          ACCESS:          0 HIT:          0 MISS:          0
cpu2_ITLB PREFETCH     ACCESS:          0 HIT:          0 MISS:          0
cpu2_ITLB WRITE        ACCESS:          0 HIT:          0 MISS:          0
cpu2_ITLB TRANSLATION  ACCESS:          0 HIT:          0 MISS:          0
cpu2_ITLB PREFETCH REQUESTED:          0 ISSUED:          0 USEFUL:          0 USELESS:          0
cpu2_ITLB AVERAGE MISS LATENCY: 277.7 cycles
cpu2_ITLB TOTAL        ACCESS:          0 HIT:          0 MISS:          0
cpu2_ITLB LOAD         ACCESS:          0 HIT:          0 MISS:          0
cpu2_ITLB RFO          ACCESS:          0 HIT:          0 MISS:          0
cpu2_ITLB PREFETCH     ACCESS:          0 HIT:          0 MISS:          0
cpu2_ITLB WRITE        ACCESS:          0 HIT:          0 MISS:          0
cpu2_ITLB TRANSLATION  ACCESS:          0 HIT:          0 MISS:          0
cpu2_ITLB PREFETCH REQUESTED:          0 ISSUED:          0 USEFUL:          0 USELESS:          0
cpu2_ITLB AVERAGE MISS LATENCY: 277.7 cycles
cpu2_ITLB TOTAL        ACCESS:       2813 HIT:       2792 MISS:         21
cpu2_ITLB LOAD         ACCESS:       2813 HIT:       2792 MISS:         21
cpu2_ITLB RFO          ACCESS:          0 HIT:          0 MISS:          0
cpu2_ITLB PREFETCH     ACCESS:          0 HIT:          0 MISS:          0
cpu2_ITLB WRITE        ACCESS:          0 HIT:          0 MISS:          0
cpu2_ITLB TRANSLATION  ACCESS:          0 HIT:          0 MISS:          0
cpu2_ITLB PREFETCH REQUESTED:          0 ISSUED:          0 USEFUL:          0 USELESS:          0
cpu2_ITLB AVERAGE MISS LATENCY: 277.7 cycles
cpu2_ITLB TOTAL        ACCESS:          0 HIT:          0 MISS:          0
cpu2_ITLB LOAD         ACCESS:          0 HIT:          0 MISS:          0
cpu2_ITLB RFO          ACCESS:          0 HIT:          0 MISS:          0
cpu2_ITLB PREFETCH     ACCESS:          0 HIT:          0 MISS:          0
cpu2_ITLB WRITE        ACCESS:          0 HIT:          0 MISS:          0
cpu2_ITLB TRANSLATION  ACCESS:          0 HIT:          0 MISS:          0
cpu2_ITLB PREFETCH REQUESTED:          0 ISSUED:          0 USEFUL:          0 USELESS:          0
cpu2_ITLB AVERAGE MISS LATENCY: 277.7 cycles
cpu2_L1D TOTAL        ACCESS:          0 HIT:          0 MISS:          0
cpu2_L1D LOAD         ACCESS:          0 HIT:          0 MISS:          0
cpu2_L1D RFO          ACCESS:          0 HIT:          0 MISS:          0
cpu2_L1D PREFETCH     ACCESS:          0 HIT:          0 MISS:          0
cpu2_L1D WRITE        ACCESS:          0 HIT:          0 MISS:          0
cpu2_L1D TRANSLATION  ACCESS:          0 HIT:          0 MISS:          0
cpu2_L1D PREFETCH REQUESTED:          0 ISSUED:          0 USEFUL:          0 USELESS:          0
cpu2_L1D AVERAGE MISS LATENCY: 91.59 cycles
cpu2_L1D TOTAL        ACCESS:          0 HIT:          0 MISS:          0
cpu2_L1D LOAD         ACCESS:          0 HIT:          0 MISS:          0
cpu2_L1D RFO          ACCESS:          0 HIT:          0 MISS:          0
cpu2_L1D PREFETCH     ACCESS:          0 HIT:          0 MISS:          0
cpu2_L1D WRITE        ACCESS:          0 HIT:          0 MISS:          0
cpu2_L1D TRANSLATION  ACCESS:          0 HIT:          0 MISS:          0
cpu2_L1D PREFETCH REQUESTED:          0 ISSUED:          0 USEFUL:          0 USELESS:          0
cpu2_L1D AVERAGE MISS LATENCY: 91.59 cycles
cpu2_L1D TOTAL        ACCESS:   74994128 HIT:   63701162 MISS:   11292966
cpu2_L1D LOAD         ACCESS:   43853148 HIT:   32596986 MISS:   11256162
cpu2_L1D RFO          ACCESS:          0 HIT:          0 MISS:          0
cpu2_L1D PREFETCH     ACCESS:          0 HIT:          0 MISS:          0
cpu2_L1D WRITE        ACCESS:   31080610 HIT:   31046210 MISS:      34400
cpu2_L1D TRANSLATION  ACCESS:      60370 HIT:      57966 MISS:       2404
cpu2_L1D PREFETCH REQUESTED:          0 ISSUED:          0 USEFUL:          0 USELESS:          0
cpu2_L1D AVERAGE MISS LATENCY: 91.59 cycles
cpu2_L1D TOTAL        ACCESS:          0 HIT:          0 MISS:          0
cpu2_L1D LOAD         ACCESS:          0 HIT:          0 MISS:          0
cpu2_L1D RFO          ACCESS:          0 HIT:          0 MISS:          0
cpu2_L1D PREFETCH     ACCESS:          0 HIT:          0 MISS:          0
cpu2_L1D WRITE        ACCESS:          0 HIT:          0 MISS:          0
cpu2_L1D TRANSLATION  ACCESS:          0 HIT:          0 MISS:          0
cpu2_L1D PREFETCH REQUESTED:          0 ISSUED:          0 USEFUL:          0 USELESS:          0
cpu2_L1D AVERAGE MISS LATENCY: 91.59 cycles
cpu2_L1I TOTAL        ACCESS:          0 HIT:          0 MISS:          0
cpu2_L1I LOAD         ACCESS:          0 HIT:          0 MISS:          0
cpu2_L1I RFO          ACCESS:          0 HIT:          0 MISS:          0
cpu2_L1I PREFETCH     ACCESS:          0 HIT:          0 MISS:          0
cpu2_L1I WRITE        ACCESS:          0 HIT:          0 MISS:          0
cpu2_L1I TRANSLATION  ACCESS:          0 HIT:          0 MISS:          0
cpu2_L1I PREFETCH REQUESTED:          0 ISSUED:          0 USEFUL:          0 USELESS:          0
cpu2_L1I AVERAGE MISS LATENCY: 227.2 cycles
cpu2_L1I TOTAL        ACCESS:          0 HIT:          0 MISS:          0
cpu2_L1I LOAD         ACCESS:          0 HIT:          0 MISS:          0
cpu2_L1I RFO          ACCESS:          0 HIT:          0 MISS:          0
cpu2_L1I PREFETCH     ACCESS:          0 HIT:          0 MISS:          0
cpu2_L1I WRITE        ACCESS:          0 HIT:          0 MISS:          0
cpu2_L1I TRANSLATION  ACCESS:          0 HIT:          0 MISS:          0
cpu2_L1I PREFETCH REQUESTED:          0 ISSUED:          0 USEFUL:          0 USELESS:          0
cpu2_L1I AVERAGE MISS LATENCY: 227.2 cycles
cpu2_L1I TOTAL        ACCESS:       3218 HIT:       2871 MISS:        347
cpu2_L1I LOAD         ACCESS:       3218 HIT:       2871 MISS:        347
cpu2_L1I RFO          ACCESS:          0 HIT:          0 MISS:          0
cpu2_L1I PREFETCH     ACCESS:          0 HIT:          0 MISS:          0
cpu2_L1I WRITE        ACCESS:          0 HIT:          0 MISS:          0
cpu2_L1I TRANSLATION  ACCESS:          0 HIT:          0 MISS:          0
cpu2_L1I PREFETCH REQUESTED:          0 ISSUED:          0 USEFUL:          0 USELESS:          0
cpu2_L1I AVERAGE MISS LATENCY: 227.2 cycles
cpu2_L1I TOTAL        ACCESS:          0 HIT:          0 MISS:          0
cpu2_L1I LOAD         ACCESS:          0 HIT:          0 MISS:          0
cpu2_L1I RFO          ACCESS:          0 HIT:          0 MISS:          0
cpu2_L1I PREFETCH     ACCESS:          0 HIT:          0 MISS:          0
cpu2_L1I WRITE        ACCESS:          0 HIT:          0 MISS:          0
cpu2_L1I TRANSLATION  ACCESS:          0 HIT:          0 MISS:          0
cpu2_L1I PREFETCH REQUESTED:          0 ISSUED:          0 USEFUL:          0 USELESS:          0
cpu2_L1I AVERAGE MISS LATENCY: 227.2 cycles
cpu2_L2C TOTAL        ACCESS:          0 HIT:          0 MISS:          0
cpu2_L2C LOAD         ACCESS:          0 HIT:          0 MISS:          0
cpu2_L2C RFO          ACCESS:          0 HIT:          0 MISS:          0
cpu2_L2C PREFETCH     ACCESS:          0 HIT:          0 MISS:          0
cpu2_L2C WRITE        ACCESS:          0 HIT:          0 MISS:          0
cpu2_L2C TRANSLATION  ACCESS:          0 HIT:          0 MISS:          0
cpu2_L2C PREFETCH REQUESTED:          0 ISSUED:          0 USEFUL:          0 USELESS:          0
cpu2_L2C AVERAGE MISS LATENCY: 274 cycles
cpu2_L2C TOTAL        ACCESS:          0 HIT:          0 MISS:          0
cpu2_L2C LOAD         ACCESS:          0 HIT:          0 MISS:          0
cpu2_L2C RFO          ACCESS:          0 HIT:          0 MISS:          0
cpu2_L2C PREFETCH     ACCESS:          0 HIT:          0 MISS:          0
cpu2_L2C WRITE        ACCESS:          0 HIT:          0 MISS:          0
cpu2_L2C TRANSLATION  ACCESS:          0 HIT:          0 MISS:          0
cpu2_L2C PREFETCH REQUESTED:          0 ISSUED:          0 USEFUL:          0 USELESS:          0
cpu2_L2C AVERAGE MISS LATENCY: 274 cycles
cpu2_L2C TOTAL        ACCESS:    9652008 HIT:    5326105 MISS:    4325903
cpu2_L2C LOAD         ACCESS:    5791074 HIT:    1471253 MISS:    4319821
cpu2_L2C RFO          ACCESS:       8726 HIT:       3547 MISS:       5179
cpu2_L2C PREFETCH     ACCESS:          0 HIT:          0 MISS:          0
cpu2_L2C WRITE        ACCESS:    3849818 HIT:    3849818 MISS:          0
cpu2_L2C TRANSLATION  ACCESS:       2390 HIT:       1487 MISS:        903
cpu2_L2C PREFETCH REQUESTED:          0 ISSUED:          0 USEFUL:          0 USELESS:          0
cpu2_L2C AVERAGE MISS LATENCY: 274 cycles
cpu2_L2C TOTAL        ACCESS:          0 HIT:          0 MISS:          0
cpu2_L2C LOAD         ACCESS:          0 HIT:          0 MISS:          0
cpu2_L2C RFO          ACCESS:          0 HIT:          0 MISS:          0
cpu2_L2C PREFETCH     ACCESS:          0 HIT:          0 MISS:          0
cpu2_L2C WRITE        ACCESS:          0 HIT:          0 MISS:          0
cpu2_L2C TRANSLATION  ACCESS:          0 HIT:          0 MISS:          0
cpu2_L2C PREFETCH REQUESTED:          0 ISSUED:          0 USEFUL:          0 USELESS:          0
cpu2_L2C AVERAGE MISS LATENCY: 274 cycles
cpu2_STLB TOTAL        ACCESS:          0 HIT:          0 MISS:          0
cpu2_STLB LOAD         ACCESS:          0 HIT:          0 MISS:          0
cpu2_STLB RFO          ACCESS:          0 HIT:          0 MISS:          0
cpu2_STLB PREFETCH     ACCESS:          0 HIT:          0 MISS:          0
cpu2_STLB WRITE        ACCESS:          0 HIT:          0 MISS:          0
cpu2_STLB TRANSLATION  ACCESS:          0 HIT:          0 MISS:          0
cpu2_STLB PREFETCH REQUESTED:          0 ISSUED:          0 USEFUL:          0 USELESS:          0
cpu2_STLB AVERAGE MISS LATENCY: 210.5 cycles
cpu2_STLB TOTAL        ACCESS:          0 HIT:          0 MISS:          0
cpu2_STLB LOAD         ACCESS:          0 HIT:          0 MISS:          0
cpu2_STLB RFO          ACCESS:          0 HIT:          0 MISS:          0
cpu2_STLB PREFETCH     ACCESS:          0 HIT:          0 MISS:          0
cpu2_STLB WRITE        ACCESS:          0 HIT:          0 MISS:          0
cpu2_STLB TRANSLATION  ACCESS:          0 HIT:          0 MISS:          0
cpu2_STLB PREFETCH REQUESTED:          0 ISSUED:          0 USEFUL:          0 USELESS:          0
cpu2_STLB AVERAGE MISS LATENCY: 210.5 cycles
cpu2_STLB TOTAL        ACCESS:     102476 HIT:      42333 MISS:      60143
cpu2_STLB LOAD         ACCESS:     102476 HIT:      42333 MISS:      60143
cpu2_STLB RFO          ACCESS:          0 HIT:          0 MISS:          0
cpu2_STLB PREFETCH     ACCESS:          0 HIT:          0 MISS:          0
cpu2_STLB WRITE        ACCESS:          0 HIT:          0 MISS:          0
cpu2_STLB TRANSLATION  ACCESS:          0 HIT:          0 MISS:          0
cpu2_STLB PREFETCH REQUESTED:          0 ISSUED:          0 USEFUL:          0 USELESS:          0
cpu2_STLB AVERAGE MISS LATENCY: 210.5 cycles
cpu2_STLB TOTAL        ACCESS:          0 HIT:          0 MISS:          0
cpu2_STLB LOAD         ACCESS:          0 HIT:          0 MISS:          0
cpu2_STLB RFO          ACCESS:          0 HIT:          0 MISS:          0
cpu2_STLB PREFETCH     ACCESS:          0 HIT:          0 MISS:          0
cpu2_STLB WRITE        ACCESS:          0 HIT:          0 MISS:          0
cpu2_STLB TRANSLATION  ACCESS:          0 HIT:          0 MISS:          0
cpu2_STLB PREFETCH REQUESTED:          0 ISSUED:          0 USEFUL:          0 USELESS:          0
cpu2_STLB AVERAGE MISS LATENCY: 210.5 cycles
cpu3_DTLB TOTAL        ACCESS:          0 HIT:          0 MISS:          0
cpu3_DTLB LOAD         ACCESS:          0 HIT:          0 MISS:          0
cpu3_DTLB RFO          ACCESS:          0 HIT:          0 MISS:          0
cpu3_DTLB PREFETCH     ACCESS:          0 HIT:          0 MISS:          0
cpu3_DTLB WRITE        ACCESS:          0 HIT:          0 MISS:          0
cpu3_DTLB TRANSLATION  ACCESS:          0 HIT:          0 MISS:          0
cpu3_DTLB PREFETCH REQUESTED:          0 ISSUED:          0 USEFUL:          0 USELESS:          0
cpu3_DTLB AVERAGE MISS LATENCY: 8.599 cycles
cpu3_DTLB TOTAL        ACCESS:          0 HIT:          0 MISS:          0
cpu3_DTLB LOAD         ACCESS:          0 HIT:          0 MISS:          0
cpu3_DTLB RFO          ACCESS:          0 HIT:          0 MISS:          0
cpu3_DTLB PREFETCH     ACCESS:          0 HIT:          0 MISS:          0
cpu3_DTLB WRITE        ACCESS:          0 HIT:          0 MISS:          0
cpu3_DTLB TRANSLATION  ACCESS:          0 HIT:          0 MISS:          0
cpu3_DTLB PREFETCH REQUESTED:          0 ISSUED:          0 USEFUL:          0 USELESS:          0
cpu3_DTLB AVERAGE MISS LATENCY: 8.599 cycles
cpu3_DTLB TOTAL        ACCESS:          0 HIT:          0 MISS:          0
cpu3_DTLB LOAD         ACCESS:          0 HIT:          0 MISS:          0
cpu3_DTLB RFO          ACCESS:          0 HIT:          0 MISS:          0
cpu3_DTLB PREFETCH     ACCESS:          0 HIT:          0 MISS:          0
cpu3_DTLB WRITE        ACCESS:          0 HIT:          0 MISS:          0
cpu3_DTLB TRANSLATION  ACCESS:          0 HIT:          0 MISS:          0
cpu3_DTLB PREFETCH REQUESTED:          0 ISSUED:          0 USEFUL:          0 USELESS:          0
cpu3_DTLB AVERAGE MISS LATENCY: 8.599 cycles
cpu3_DTLB TOTAL        ACCESS:   41304338 HIT:   38692538 MISS:    2611800
cpu3_DTLB LOAD         ACCESS:   41304338 HIT:   38692538 MISS:    2611800
cpu3_DTLB RFO          ACCESS:          0 HIT:          0 MISS:          0
cpu3_DTLB PREFETCH     ACCESS:          0 HIT:          0 MISS:          0
cpu3_DTLB WRITE        ACCESS:          0 HIT:          0 MISS:          0
cpu3_DTLB TRANSLATION  ACCESS:          0 HIT:          0 MISS:          0
cpu3_DTLB PREFETCH REQUESTED:          0 ISSUED:          0 USEFUL:          0 USELESS:          0
cpu3_DTLB AVERAGE MISS LATENCY: 8.599 cycles
cpu3_ITLB TOTAL        ACCESS:          0 HIT:          0 MISS:          0
cpu3_ITLB LOAD         ACCESS:          0 HIT:          0 MISS:          0
cpu3_ITLB RFO          ACCESS:          0 HIT:          0 MISS:          0
cpu3_ITLB PREFETCH     ACCESS:          0 HIT:          0 MISS:          0
cpu3_ITLB WRITE        ACCESS:          0 HIT:          0 MISS:          0
[...]
cpu2_L1I PREFETCH REQUESTED:          0 ISSUED:          0 USEFUL:          0 USELESS:          0
cpu2_L1I AVERAGE MISS LATENCY: 227.2 cycles
cpu2_L1I TOTAL        ACCESS:          0 HIT:          0 MISS:          0
cpu2_L1I LOAD         ACCESS:          0 HIT:          0 MISS:          0
cpu2_L1I RFO          ACCESS:          0 HIT:          0 MISS:          0
cpu2_L1I PREFETCH     ACCESS:          0 HIT:          0 MISS:          0
cpu2_L1I WRITE        ACCESS:          0 HIT:          0 MISS:          0
cpu2_L1I TRANSLATION  ACCESS:          0 HIT:          0 MISS:          0
cpu2_L1I PREFETCH REQUESTED:          0 ISSUED:          0 USEFUL:          0 USELESS:          0
cpu2_L1I AVERAGE MISS LATENCY: 227.2 cycles
cpu2_L2C TOTAL        ACCESS:          0 HIT:          0 MISS:          0
cpu2_L2C LOAD         ACCESS:          0 HIT:          0 MISS:          0
cpu2_L2C RFO          ACCESS:          0 HIT:          0 MISS:          0
cpu2_L2C PREFETCH     ACCESS:          0 HIT:          0 MISS:          0
cpu2_L2C WRITE        ACCESS:          0 HIT:          0 MISS:          0
cpu2_L2C TRANSLATION  ACCESS:          0 HIT:          0 MISS:          0
cpu2_L2C PREFETCH REQUESTED:          0 ISSUED:          0 USEFUL:          0 USELESS:          0
cpu2_L2C AVERAGE MISS LATENCY: 274 cycles
cpu2_L2C TOTAL        ACCESS:          0 HIT:          0 MISS:          0
cpu2_L2C LOAD         ACCESS:          0 HIT:          0 MISS:          0
cpu2_L2C RFO          ACCESS:          0 HIT:          0 MISS:          0
cpu2_L2C PREFETCH     ACCESS:          0 HIT:          0 MISS:          0
cpu2_L2C WRITE        ACCESS:          0 HIT:          0 MISS:          0
cpu2_L2C TRANSLATION  ACCESS:          0 HIT:          0 MISS:          0
cpu2_L2C PREFETCH REQUESTED:          0 ISSUED:          0 USEFUL:          0 USELESS:          0
cpu2_L2C AVERAGE MISS LATENCY: 274 cycles
cpu2_L2C TOTAL        ACCESS:    3303593 HIT:    1822202 MISS:    1481391
cpu2_L2C LOAD         ACCESS:    1982755 HIT:     503373 MISS:    1479382
cpu2_L2C RFO          ACCESS:       2296 HIT:        577 MISS:       1719
cpu2_L2C PREFETCH     ACCESS:          0 HIT:          0 MISS:          0
cpu2_L2C WRITE        ACCESS:    1317733 HIT:    1317733 MISS:          0
cpu2_L2C TRANSLATION  ACCESS:        809 HIT:        519 MISS:        290
cpu2_L2C PREFETCH REQUESTED:          0 ISSUED:          0 USEFUL:          0 USELESS:          0
cpu2_L2C AVERAGE MISS LATENCY: 274 cycles
cpu2_L2C TOTAL        ACCESS:          0 HIT:          0 MISS:          0
cpu2_L2C LOAD         ACCESS:          0 HIT:          0 MISS:          0
cpu2_L2C RFO          ACCESS:          0 HIT:          0 MISS:          0
cpu2_L2C PREFETCH     ACCESS:          0 HIT:          0 MISS:          0
cpu2_L2C WRITE        ACCESS:          0 HIT:          0 MISS:          0
cpu2_L2C TRANSLATION  ACCESS:          0 HIT:          0 MISS:          0
cpu2_L2C PREFETCH REQUESTED:          0 ISSUED:          0 USEFUL:          0 USELESS:          0
cpu2_L2C AVERAGE MISS LATENCY: 274 cycles
cpu2_STLB TOTAL        ACCESS:          0 HIT:          0 MISS:          0
cpu2_STLB LOAD         ACCESS:          0 HIT:          0 MISS:          0
cpu2_STLB RFO          ACCESS:          0 HIT:          0 MISS:          0
cpu2_STLB PREFETCH     ACCESS:          0 HIT:          0 MISS:          0
cpu2_STLB WRITE        ACCESS:          0 HIT:          0 MISS:          0
cpu2_STLB TRANSLATION  ACCESS:          0 HIT:          0 MISS:          0
cpu2_STLB PREFETCH REQUESTED:          0 ISSUED:          0 USEFUL:          0 USELESS:          0
cpu2_STLB AVERAGE MISS LATENCY: 210.5 cycles
cpu2_STLB TOTAL        ACCESS:          0 HIT:          0 MISS:          0
cpu2_STLB LOAD         ACCESS:          0 HIT:          0 MISS:          0
cpu2_STLB RFO          ACCESS:          0 HIT:          0 MISS:          0
cpu2_STLB PREFETCH     ACCESS:          0 HIT:          0 MISS:          0
cpu2_STLB WRITE        ACCESS:          0 HIT:          0 MISS:          0
cpu2_STLB TRANSLATION  ACCESS:          0 HIT:          0 MISS:          0
cpu2_STLB PREFETCH REQUESTED:          0 ISSUED:          0 USEFUL:          0 USELESS:          0
cpu2_STLB AVERAGE MISS LATENCY: 210.5 cycles
cpu2_STLB TOTAL        ACCESS:      34958 HIT:      14373 MISS:      20585
cpu2_STLB LOAD         ACCESS:      34958 HIT:      14373 MISS:      20585
cpu2_STLB RFO          ACCESS:          0 HIT:          0 MISS:          0
cpu2_STLB PREFETCH     ACCESS:          0 HIT:          0 MISS:          0
cpu2_STLB WRITE        ACCESS:          0 HIT:          0 MISS:          0
cpu2_STLB TRANSLATION  ACCESS:          0 HIT:          0 MISS:          0
cpu2_STLB PREFETCH REQUESTED:          0 ISSUED:          0 USEFUL:          0 USELESS:          0
cpu2_STLB AVERAGE MISS LATENCY: 210.5 cycles
cpu2_STLB TOTAL        ACCESS:          0 HIT:          0 MISS:          0
cpu2_STLB LOAD         ACCESS:          0 HIT:          0 MISS:          0
cpu2_STLB RFO          ACCESS:          0 HIT:          0 MISS:          0
cpu2_STLB PREFETCH     ACCESS:          0 HIT:          0 MISS:          0
cpu2_STLB WRITE        ACCESS:          0 HIT:          0 MISS:          0
cpu2_STLB TRANSLATION  ACCESS:          0 HIT:          0 MISS:          0
cpu2_STLB PREFETCH REQUESTED:          0 ISSUED:          0 USEFUL:          0 USELESS:          0
cpu2_STLB AVERAGE MISS LATENCY: 210.5 cycles
cpu3_DTLB TOTAL        ACCESS:          0 HIT:          0 MISS:          0
cpu3_DTLB LOAD         ACCESS:          0 HIT:          0 MISS:          0
cpu3_DTLB RFO          ACCESS:          0 HIT:          0 MISS:          0
cpu3_DTLB PREFETCH     ACCESS:          0 HIT:          0 MISS:          0
cpu3_DTLB WRITE        ACCESS:          0 HIT:          0 MISS:          0
cpu3_DTLB TRANSLATION  ACCESS:          0 HIT:          0 MISS:          0
cpu3_DTLB PREFETCH REQUESTED:          0 ISSUED:          0 USEFUL:          0 USELESS:          0
cpu3_DTLB AVERAGE MISS LATENCY: 8.599 cycles
cpu3_DTLB TOTAL        ACCESS:          0 HIT:          0 MISS:          0
cpu3_DTLB LOAD         ACCESS:          0 HIT:          0 MISS:          0
cpu3_DTLB RFO          ACCESS:          0 HIT:          0 MISS:          0
cpu3_DTLB PREFETCH     ACCESS:          0 HIT:          0 MISS:          0
cpu3_DTLB WRITE        ACCESS:          0 HIT:          0 MISS:          0
cpu3_DTLB TRANSLATION  ACCESS:          0 HIT:          0 MISS:          0
cpu3_DTLB PREFETCH REQUESTED:          0 ISSUED:          0 USEFUL:          0 USELESS:          0
cpu3_DTLB AVERAGE MISS LATENCY: 8.599 cycles
cpu3_DTLB TOTAL        ACCESS:          0 HIT:          0 MISS:          0
cpu3_DTLB LOAD         ACCESS:          0 HIT:          0 MISS:          0
cpu3_DTLB RFO          ACCESS:          0 HIT:          0 MISS:          0
cpu3_DTLB PREFETCH     ACCESS:          0 HIT:          0 MISS:          0
cpu3_DTLB WRITE        ACCESS:          0 HIT:          0 MISS:          0
cpu3_DTLB TRANSLATION  ACCESS:          0 HIT:          0 MISS:          0
cpu3_DTLB PREFETCH REQUESTED:          0 ISSUED:          0 USEFUL:          0 USELESS:          0
cpu3_DTLB AVERAGE MISS LATENCY: 8.599 cycles
cpu3_DTLB TOTAL        ACCESS:   41304338 HIT:   38692538 MISS:    2611800
cpu3_DTLB LOAD         ACCESS:   41304338 HIT:   38692538 MISS:    2611800
cpu3_DTLB RFO          ACCESS:          0 HIT:          0 MISS:          0
cpu3_DTLB PREFETCH     ACCESS:          0 HIT:          0 MISS:          0
cpu3_DTLB WRITE        ACCESS:          0 HIT:          0 MISS:          0
cpu3_DTLB TRANSLATION  ACCESS:          0 HIT:          0 MISS:          0
cpu3_DTLB PREFETCH REQUESTED:          0 ISSUED:          0 USEFUL:          0 USELESS:          0
cpu3_DTLB AVERAGE MISS LATENCY: 8.599 cycles
cpu3_ITLB TOTAL        ACCESS:          0 HIT:          0 MISS:          0
cpu3_ITLB LOAD         ACCESS:          0 HIT:          0 MISS:          0
cpu3_ITLB RFO          ACCESS:          0 HIT:          0 MISS:          0
cpu3_ITLB PREFETCH     ACCESS:          0 HIT:          0 MISS:          0
cpu3_ITLB WRITE        ACCESS:          0 HIT:          0 MISS:          0
cpu3_ITLB TRANSLATION  ACCESS:          0 HIT:          0 MISS:          0
cpu3_ITLB PREFETCH REQUESTED:          0 ISSUED:          0 USEFUL:          0 USELESS:          0
cpu3_ITLB AVERAGE MISS LATENCY: -nan cycles
cpu3_ITLB TOTAL        ACCESS:          0 HIT:          0 MISS:          0
cpu3_ITLB LOAD         ACCESS:          0 HIT:          0 MISS:          0
cpu3_ITLB RFO          ACCESS:          0 HIT:          0 MISS:          0
cpu3_ITLB PREFETCH     ACCESS:          0 HIT:          0 MISS:          0
cpu3_ITLB WRITE        ACCESS:          0 HIT:          0 MISS:          0
cpu3_ITLB TRANSLATION  ACCESS:          0 HIT:          0 MISS:          0
cpu3_ITLB PREFETCH REQUESTED:          0 ISSUED:          0 USEFUL:          0 USELESS:          0
cpu3_ITLB AVERAGE MISS LATENCY: -nan cycles
cpu3_ITLB TOTAL        ACCESS:          0 HIT:          0 MISS:          0
cpu3_ITLB LOAD         ACCESS:          0 HIT:          0 MISS:          0
cpu3_ITLB RFO          ACCESS:          0 HIT:          0 MISS:          0
cpu3_ITLB PREFETCH     ACCESS:          0 HIT:          0 MISS:          0
cpu3_ITLB WRITE        ACCESS:          0 HIT:          0 MISS:          0
cpu3_ITLB TRANSLATION  ACCESS:          0 HIT:          0 MISS:          0
cpu3_ITLB PREFETCH REQUESTED:          0 ISSUED:          0 USEFUL:          0 USELESS:          0
cpu3_ITLB AVERAGE MISS LATENCY: -nan cycles
cpu3_ITLB TOTAL        ACCESS:      47817 HIT:      47817 MISS:          0
cpu3_ITLB LOAD         ACCESS:      47817 HIT:      47817 MISS:          0
cpu3_ITLB RFO          ACCESS:          0 HIT:          0 MISS:          0
cpu3_ITLB PREFETCH     ACCESS:          0 HIT:          0 MISS:          0
cpu3_ITLB WRITE        ACCESS:          0 HIT:          0 MISS:          0
cpu3_ITLB TRANSLATION  ACCESS:          0 HIT:          0 MISS:          0
cpu3_ITLB PREFETCH REQUESTED:          0 ISSUED:          0 USEFUL:          0 USELESS:          0
cpu3_ITLB AVERAGE MISS LATENCY: -nan cycles
cpu3_L1D TOTAL        ACCESS:          0 HIT:          0 MISS:          0
cpu3_L1D LOAD         ACCESS:          0 HIT:          0 MISS:          0
cpu3_L1D RFO          ACCESS:          0 HIT:          0 MISS:          0
cpu3_L1D PREFETCH     ACCESS:          0 HIT:          0 MISS:          0
cpu3_L1D WRITE        ACCESS:          0 HIT:          0 MISS:          0
cpu3_L1D TRANSLATION  ACCESS:          0 HIT:          0 MISS:          0
cpu3_L1D PREFETCH REQUESTED:          0 ISSUED:          0 USEFUL:          0 USELESS:          0
cpu3_L1D AVERAGE MISS LATENCY: 80.35 cycles
cpu3_L1D TOTAL        ACCESS:          0 HIT:          0 MISS:          0
cpu3_L1D LOAD         ACCESS:          0 HIT:          0 MISS:          0
cpu3_L1D RFO          ACCESS:          0 HIT:          0 MISS:          0
cpu3_L1D PREFETCH     ACCESS:          0 HIT:          0 MISS:          0
cpu3_L1D WRITE        ACCESS:          0 HIT:          0 MISS:          0
cpu3_L1D TRANSLATION  ACCESS:          0 HIT:          0 MISS:          0
cpu3_L1D PREFETCH REQUESTED:          0 ISSUED:          0 USEFUL:          0 USELESS:          0
cpu3_L1D AVERAGE MISS LATENCY: 80.35 cycles
cpu3_L1D TOTAL        ACCESS:          0 HIT:          0 MISS:          0
cpu3_L1D LOAD         ACCESS:          0 HIT:          0 MISS:          0
cpu3_L1D RFO          ACCESS:          0 HIT:          0 MISS:          0
cpu3_L1D PREFETCH     ACCESS:          0 HIT:          0 MISS:          0
cpu3_L1D WRITE        ACCESS:          0 HIT:          0 MISS:          0
cpu3_L1D TRANSLATION  ACCESS:          0 HIT:          0 MISS:          0
cpu3_L1D PREFETCH REQUESTED:          0 ISSUED:          0 USEFUL:          0 USELESS:          0
cpu3_L1D AVERAGE MISS LATENCY: 80.35 cycles
cpu3_L1D TOTAL        ACCESS:   52556683 HIT:   45347294 MISS:    7209389
cpu3_L1D LOAD         ACCESS:   34844063 HIT:   29219238 MISS:    5624825
cpu3_L1D RFO          ACCESS:          0 HIT:          0 MISS:          0
cpu3_L1D PREFETCH     ACCESS:          0 HIT:          0 MISS:          0
cpu3_L1D WRITE        ACCESS:   17680686 HIT:   16113453 MISS:    1567233
cpu3_L1D TRANSLATION  ACCESS:      31934 HIT:      14603 MISS:      17331
cpu3_L1D PREFETCH REQUESTED:          0 ISSUED:          0 USEFUL:          0 USELESS:          0
cpu3_L1D AVERAGE MISS LATENCY: 80.35 cycles
cpu3_L1I TOTAL        ACCESS:          0 HIT:          0 MISS:          0
cpu3_L1I LOAD         ACCESS:          0 HIT:          0 MISS:          0
cpu3_L1I RFO          ACCESS:          0 HIT:          0 MISS:          0
cpu3_L1I PREFETCH     ACCESS:          0 HIT:          0 MISS:          0
cpu3_L1I WRITE        ACCESS:          0 HIT:          0 MISS:          0
cpu3_L1I TRANSLATION  ACCESS:          0 HIT:          0 MISS:          0
cpu3_L1I PREFETCH REQUESTED:          0 ISSUED:          0 USEFUL:          0 USELESS:          0
cpu3_L1I AVERAGE MISS LATENCY: 340 cycles
cpu3_L1I TOTAL        ACCESS:          0 HIT:          0 MISS:          0
cpu3_L1I LOAD         ACCESS:          0 HIT:          0 MISS:          0
cpu3_L1I RFO          ACCESS:          0 HIT:          0 MISS:          0
cpu3_L1I PREFETCH     ACCESS:          0 HIT:          0 MISS:          0
cpu3_L1I WRITE        ACCESS:          0 HIT:          0 MISS:          0
cpu3_L1I TRANSLATION  ACCESS:          0 HIT:          0 MISS:          0
cpu3_L1I PREFETCH REQUESTED:          0 ISSUED:          0 USEFUL:          0 USELESS:          0
cpu3_L1I AVERAGE MISS LATENCY: 340 cycles
cpu3_L1I TOTAL        ACCESS:          0 HIT:          0 MISS:          0
cpu3_L1I LOAD         ACCESS:          0 HIT:          0 MISS:          0
cpu3_L1I RFO          ACCESS:          0 HIT:          0 MISS:          0
cpu3_L1I PREFETCH     ACCESS:          0 HIT:          0 MISS:          0
cpu3_L1I WRITE        ACCESS:          0 HIT:          0 MISS:          0
cpu3_L1I TRANSLATION  ACCESS:          0 HIT:          0 MISS:          0
cpu3_L1I PREFETCH REQUESTED:          0 ISSUED:          0 USEFUL:          0 USELESS:          0
cpu3_L1I AVERAGE MISS LATENCY: 340 cycles
cpu3_L1I TOTAL        ACCESS:      54221 HIT:      54219 MISS:          2
cpu3_L1I LOAD         ACCESS:      54221 HIT:      54219 MISS:          2
cpu3_L1I RFO          ACCESS:          0 HIT:          0 MISS:          0
cpu3_L1I PREFETCH     ACCESS:          0 HIT:          0 MISS:          0
cpu3_L1I WRITE        ACCESS:          0 HIT:          0 MISS:          0
cpu3_L1I TRANSLATION  ACCESS:          0 HIT:          0 MISS:          0
cpu3_L1I PREFETCH REQUESTED:          0 ISSUED:          0 USEFUL:          0 USELESS:          0
cpu3_L1I AVERAGE MISS LATENCY: 340 cycles
cpu3_L2C TOTAL        ACCESS:          0 HIT:          0 MISS:          0
cpu3_L2C LOAD         ACCESS:          0 HIT:          0 MISS:          0
cpu3_L2C RFO          ACCESS:          0 HIT:          0 MISS:          0
cpu3_L2C PREFETCH     ACCESS:          0 HIT:          0 MISS:          0
cpu3_L2C WRITE        ACCESS:          0 HIT:          0 MISS:          0
cpu3_L2C TRANSLATION  ACCESS:          0 HIT:          0 MISS:          0
cpu3_L2C PREFETCH REQUESTED:          0 ISSUED:          0 USEFUL:          0 USELESS:          0
cpu3_L2C AVERAGE MISS LATENCY: 163.7 cycles
cpu3_L2C TOTAL        ACCESS:          0 HIT:          0 MISS:          0
cpu3_L2C LOAD         ACCESS:          0 HIT:          0 MISS:          0
cpu3_L2C RFO          ACCESS:          0 HIT:          0 MISS:          0
cpu3_L2C PREFETCH     ACCESS:          0 HIT:          0 MISS:          0
cpu3_L2C WRITE        ACCESS:          0 HIT:          0 MISS:          0
cpu3_L2C TRANSLATION  ACCESS:          0 HIT:          0 MISS:          0
cpu3_L2C PREFETCH REQUESTED:          0 ISSUED:          0 USEFUL:          0 USELESS:          0
cpu3_L2C AVERAGE MISS LATENCY: 163.7 cycles
cpu3_L2C TOTAL        ACCESS:          0 HIT:          0 MISS:          0
cpu3_L2C LOAD         ACCESS:          0 HIT:          0 MISS:          0
cpu3_L2C RFO          ACCESS:          0 HIT:          0 MISS:          0
cpu3_L2C PREFETCH     ACCESS:          0 HIT:          0 MISS:          0
cpu3_L2C WRITE        ACCESS:          0 HIT:          0 MISS:          0
cpu3_L2C TRANSLATION  ACCESS:          0 HIT:          0 MISS:          0
cpu3_L2C PREFETCH REQUESTED:          0 ISSUED:          0 USEFUL:          0 USELESS:          0
cpu3_L2C AVERAGE MISS LATENCY: 163.7 cycles
cpu3_L2C TOTAL        ACCESS:    6013618 HIT:    2742252 MISS:    3271366
cpu3_L2C LOAD         ACCESS:    4638774 HIT:    1617096 MISS:    3021678
cpu3_L2C RFO          ACCESS:     572782 HIT:     338014 MISS:     234768
cpu3_L2C PREFETCH     ACCESS:          0 HIT:          0 MISS:          0
cpu3_L2C WRITE        ACCESS:     784733 HIT:     784264 MISS:        469
cpu3_L2C TRANSLATION  ACCESS:      17329 HIT:       2878 MISS:      14451
cpu3_L2C PREFETCH REQUESTED:          0 ISSUED:          0 USEFUL:          0 USELESS:          0
cpu3_L2C AVERAGE MISS LATENCY: 163.7 cycles
cpu3_STLB TOTAL        ACCESS:          0 HIT:          0 MISS:          0
cpu3_STLB LOAD         ACCESS:          0 HIT:          0 MISS:          0
cpu3_STLB RFO          ACCESS:          0 HIT:          0 MISS:          0
cpu3_STLB PREFETCH     ACCESS:          0 HIT:          0 MISS:          0
cpu3_STLB WRITE        ACCESS:          0 HIT:          0 MISS:          0
cpu3_STLB TRANSLATION  ACCESS:          0 HIT:          0 MISS:          0
cpu3_STLB PREFETCH REQUESTED:          0 ISSUED:          0 USEFUL:          0 USELESS:          0
cpu3_STLB AVERAGE MISS LATENCY: 188.2 cycles
cpu3_STLB TOTAL        ACCESS:          0 HIT:          0 MISS:          0
cpu3_STLB LOAD         ACCESS:          0 HIT:          0 MISS:          0
cpu3_STLB RFO          ACCESS:          0 HIT:          0 MISS:          0
cpu3_STLB PREFETCH     ACCESS:          0 HIT:          0 MISS:          0
cpu3_STLB WRITE        ACCESS:          0 HIT:          0 MISS:          0
cpu3_STLB TRANSLATION  ACCESS:          0 HIT:          0 MISS:          0
cpu3_STLB PREFETCH REQUESTED:          0 ISSUED:          0 USEFUL:          0 USELESS:          0
cpu3_STLB AVERAGE MISS LATENCY: 188.2 cycles
cpu3_STLB TOTAL        ACCESS:          0 HIT:          0 MISS:          0
cpu3_STLB LOAD         ACCESS:          0 HIT:          0 MISS:          0
cpu3_STLB RFO          ACCESS:          0 HIT:          0 MISS:          0
cpu3_STLB PREFETCH     ACCESS:          0 HIT:          0 MISS:          0
cpu3_STLB WRITE        ACCESS:          0 HIT:          0 MISS:          0
cpu3_STLB TRANSLATION  ACCESS:          0 HIT:          0 MISS:          0
cpu3_STLB PREFETCH REQUESTED:          0 ISSUED:          0 USEFUL:          0 USELESS:          0
cpu3_STLB AVERAGE MISS LATENCY: 188.2 cycles
cpu3_STLB TOTAL        ACCESS:    2240313 HIT:    2208621 MISS:      31692
cpu3_STLB LOAD         ACCESS:    2240313 HIT:    2208621 MISS:      31692
cpu3_STLB RFO          ACCESS:          0 HIT:          0 MISS:          0
cpu3_STLB PREFETCH     ACCESS:          0 HIT:          0 MISS:          0
cpu3_STLB WRITE        ACCESS:          0 HIT:          0 MISS:          0
cpu3_STLB TRANSLATION  ACCESS:          0 HIT:          0 MISS:          0
cpu3_STLB PREFETCH REQUESTED:          0 ISSUED:          0 USEFUL:          0 USELESS:          0
cpu3_STLB AVERAGE MISS LATENCY: 188.2 cycles

DRAM Statistics

Channel 0 RQ ROW_BUFFER_HIT:     481683
  ROW_BUFFER_MISS:    3523631
 AVG DBUS CONGESTED CYCLE: 3.969
WQ ROW_BUFFER_HIT: Channel 0 
  ROW_BUFFER_MISS:      57976
  FULL:    2285323

Channel 1 RQ ROW_BUFFER_HIT:     479744
  ROW_BUFFER_MISS:    3519508
 AVG DBUS CONGESTED CYCLE: 3.969
WQ ROW_BUFFER_HIT: Channel 1 
  ROW_BUFFER_MISS:      58956
  FULL:    2283005
