Original cmd-> /home/grads/r/rdas40/ECEN676/ChampSim/bin/multi_core/nopref_2ch --warmup_instructions=50000000 --simulation_instructions=150000000  /home/grads/r/rdas40/dpc3_traces/620.omnetpp_s-874B.champsimtrace.xz /home/grads/r/rdas40/dpc3_traces/603.bwaves_s-3699B.champsimtrace.xz /home/grads/r/rdas40/dpc3_traces/649.fotonik3d_s-1176B.champsimtrace.xz /home/grads/r/rdas40/dpc3_traces/627.cam4_s-573B.champsimtrace.xz
WARNING: physical memory size is smaller than virtual memory size.
WARNING: option --warmup_instructions is deprecated. Use --warmup-instructions instead.
WARNING: option --simulation_instructions is deprecated. Use --simulation-instructions instead.

*** ChampSim Multicore Out-of-Order Simulator ***
Warmup Instructions: 50000000
Simulation Instructions: 150000000
Number of CPUs: 4
Page size: 4096

Off-chip DRAM Size: 8 GiB Channels: 2 Width: 64-bit Data Race: 3200 MT/s
Heartbeat CPU 2 instructions: 10000003 cycles: 2500048 heartbeat IPC: 4 cumulative IPC: 4 (Simulation time: 00 hr 02 min 50 sec)
Heartbeat CPU 1 instructions: 10000003 cycles: 2521875 heartbeat IPC: 3.965 cumulative IPC: 3.965 (Simulation time: 00 hr 02 min 51 sec)
Heartbeat CPU 3 instructions: 10000003 cycles: 2711645 heartbeat IPC: 3.688 cumulative IPC: 3.688 (Simulation time: 00 hr 03 min 04 sec)
Heartbeat CPU 0 instructions: 10000002 cycles: 4174034 heartbeat IPC: 2.396 cumulative IPC: 2.396 (Simulation time: 00 hr 04 min 46 sec)
Heartbeat CPU 2 instructions: 20000003 cycles: 5000048 heartbeat IPC: 4 cumulative IPC: 4 (Simulation time: 00 hr 05 min 45 sec)
Heartbeat CPU 1 instructions: 20000001 cycles: 5038237 heartbeat IPC: 3.974 cumulative IPC: 3.97 (Simulation time: 00 hr 05 min 47 sec)
Heartbeat CPU 3 instructions: 20000003 cycles: 5231118 heartbeat IPC: 3.969 cumulative IPC: 3.823 (Simulation time: 00 hr 06 min 01 sec)
Heartbeat CPU 2 instructions: 30000003 cycles: 7500048 heartbeat IPC: 4 cumulative IPC: 4 (Simulation time: 00 hr 08 min 41 sec)
Heartbeat CPU 1 instructions: 30000000 cycles: 7553266 heartbeat IPC: 3.976 cumulative IPC: 3.972 (Simulation time: 00 hr 08 min 45 sec)
Heartbeat CPU 3 instructions: 30000000 cycles: 7750354 heartbeat IPC: 3.969 cumulative IPC: 3.871 (Simulation time: 00 hr 08 min 58 sec)
Heartbeat CPU 0 instructions: 20000003 cycles: 8346345 heartbeat IPC: 2.397 cumulative IPC: 2.396 (Simulation time: 00 hr 09 min 40 sec)
Heartbeat CPU 2 instructions: 40000003 cycles: 10000048 heartbeat IPC: 4 cumulative IPC: 4 (Simulation time: 00 hr 11 min 34 sec)
Heartbeat CPU 1 instructions: 40000003 cycles: 10077277 heartbeat IPC: 3.962 cumulative IPC: 3.969 (Simulation time: 00 hr 11 min 40 sec)
Heartbeat CPU 3 instructions: 40000003 cycles: 10280469 heartbeat IPC: 3.952 cumulative IPC: 3.891 (Simulation time: 00 hr 11 min 54 sec)
Heartbeat CPU 2 instructions: 50000003 cycles: 12500048 heartbeat IPC: 4 cumulative IPC: 4 (Simulation time: 00 hr 14 min 32 sec)
Warmup finished CPU 2 instructions: 50000003 cycles: 12500049 cumulative IPC: 4 (Simulation time: 00 hr 14 min 32 sec)
Heartbeat CPU 0 instructions: 30000001 cycles: 12518901 heartbeat IPC: 2.397 cumulative IPC: 2.396 (Simulation time: 00 hr 14 min 33 sec)
Heartbeat CPU 1 instructions: 50000000 cycles: 12599099 heartbeat IPC: 3.965 cumulative IPC: 3.969 (Simulation time: 00 hr 14 min 39 sec)
Warmup finished CPU 1 instructions: 50000000 cycles: 12599100 cumulative IPC: 3.969 (Simulation time: 00 hr 14 min 39 sec)
Heartbeat CPU 3 instructions: 50000003 cycles: 12883312 heartbeat IPC: 3.842 cumulative IPC: 3.881 (Simulation time: 00 hr 14 min 59 sec)
Warmup finished CPU 3 instructions: 50000003 cycles: 12883313 cumulative IPC: 3.881 (Simulation time: 00 hr 14 min 59 sec)
Heartbeat CPU 2 instructions: 60000003 cycles: 15000048 heartbeat IPC: 4 cumulative IPC: 4 (Simulation time: 00 hr 17 min 30 sec)
Heartbeat CPU 1 instructions: 60000002 cycles: 15124094 heartbeat IPC: 3.96 cumulative IPC: 3.967 (Simulation time: 00 hr 17 min 39 sec)
Heartbeat CPU 3 instructions: 60000002 cycles: 15501791 heartbeat IPC: 3.819 cumulative IPC: 3.871 (Simulation time: 00 hr 18 min 06 sec)
Heartbeat CPU 0 instructions: 40000000 cycles: 16704458 heartbeat IPC: 2.389 cumulative IPC: 2.395 (Simulation time: 00 hr 19 min 33 sec)
Heartbeat CPU 2 instructions: 70000003 cycles: 17500048 heartbeat IPC: 4 cumulative IPC: 4 (Simulation time: 00 hr 20 min 29 sec)
Heartbeat CPU 1 instructions: 70000000 cycles: 17648868 heartbeat IPC: 3.961 cumulative IPC: 3.966 (Simulation time: 00 hr 20 min 40 sec)
Heartbeat CPU 3 instructions: 70000000 cycles: 18079791 heartbeat IPC: 3.879 cumulative IPC: 3.872 (Simulation time: 00 hr 21 min 10 sec)
Heartbeat CPU 2 instructions: 80000003 cycles: 20000048 heartbeat IPC: 4 cumulative IPC: 4 (Simulation time: 00 hr 23 min 25 sec)
Heartbeat CPU 1 instructions: 80000001 cycles: 20174084 heartbeat IPC: 3.96 cumulative IPC: 3.965 (Simulation time: 00 hr 23 min 37 sec)
Heartbeat CPU 3 instructions: 80000004 cycles: 20640371 heartbeat IPC: 3.905 cumulative IPC: 3.876 (Simulation time: 00 hr 24 min 10 sec)
Heartbeat CPU 0 instructions: 50000003 cycles: 20870760 heartbeat IPC: 2.4 cumulative IPC: 2.396 (Simulation time: 00 hr 24 min 26 sec)
Warmup finished CPU 0 instructions: 50000003 cycles: 20870761 cumulative IPC: 2.396 (Simulation time: 00 hr 24 min 26 sec)
Warmup complete CPU 0 instructions: 50000003 cycles: 20870761 cumulative IPC: 2.396 (Simulation time: 00 hr 24 min 26 sec)
Warmup complete CPU 1 instructions: 82758236 cycles: 20870761 cumulative IPC: 3.965 (Simulation time: 00 hr 24 min 26 sec)
Warmup complete CPU 2 instructions: 83482851 cycles: 20870761 cumulative IPC: 4 (Simulation time: 00 hr 24 min 26 sec)
Warmup complete CPU 3 instructions: 80839618 cycles: 20870761 cumulative IPC: 3.873 (Simulation time: 00 hr 24 min 26 sec)
Heartbeat CPU 1 instructions: 90000002 cycles: 24015526 heartbeat IPC: 2.603 cumulative IPC: 2.303 (Simulation time: 00 hr 26 min 59 sec)
Heartbeat CPU 3 instructions: 90000003 cycles: 24536194 heartbeat IPC: 2.567 cumulative IPC: 2.499 (Simulation time: 00 hr 27 min 25 sec)
Heartbeat CPU 2 instructions: 90000003 cycles: 27334230 heartbeat IPC: 1.363 cumulative IPC: 1.008 (Simulation time: 00 hr 29 min 27 sec)
Heartbeat CPU 1 instructions: 100000000 cycles: 28341588 heartbeat IPC: 2.312 cumulative IPC: 2.308 (Simulation time: 00 hr 30 min 10 sec)
Heartbeat CPU 1 instructions: 110000002 cycles: 32827395 heartbeat IPC: 2.229 cumulative IPC: 2.278 (Simulation time: 00 hr 33 min 24 sec)
Heartbeat CPU 3 instructions: 100000000 cycles: 33386867 heartbeat IPC: 1.13 cumulative IPC: 1.531 (Simulation time: 00 hr 33 min 46 sec)
Heartbeat CPU 1 instructions: 120000001 cycles: 37206988 heartbeat IPC: 2.283 cumulative IPC: 2.28 (Simulation time: 00 hr 36 min 05 sec)
Heartbeat CPU 1 instructions: 130000000 cycles: 41955661 heartbeat IPC: 2.106 cumulative IPC: 2.241 (Simulation time: 00 hr 38 min 52 sec)
Heartbeat CPU 1 instructions: 140000000 cycles: 46742700 heartbeat IPC: 2.089 cumulative IPC: 2.213 (Simulation time: 00 hr 41 min 39 sec)
Heartbeat CPU 1 instructions: 150000002 cycles: 51402139 heartbeat IPC: 2.146 cumulative IPC: 2.202 (Simulation time: 00 hr 44 min 22 sec)
Heartbeat CPU 2 instructions: 100000002 cycles: 54145663 heartbeat IPC: 0.373 cumulative IPC: 0.4964 (Simulation time: 00 hr 46 min 19 sec)
Heartbeat CPU 3 instructions: 110000001 cycles: 54602915 heartbeat IPC: 0.4713 cumulative IPC: 0.8645 (Simulation time: 00 hr 46 min 42 sec)
Heartbeat CPU 1 instructions: 160000001 cycles: 55938071 heartbeat IPC: 2.205 cumulative IPC: 2.203 (Simulation time: 00 hr 47 min 43 sec)
Heartbeat CPU 3 instructions: 120000003 cycles: 58535225 heartbeat IPC: 2.543 cumulative IPC: 1.04 (Simulation time: 00 hr 49 min 51 sec)
Heartbeat CPU 0 instructions: 60000003 cycles: 59983627 heartbeat IPC: 0.2557 cumulative IPC: 0.2557 (Simulation time: 00 hr 51 min 05 sec)
Heartbeat CPU 1 instructions: 170000000 cycles: 60368394 heartbeat IPC: 2.257 cumulative IPC: 2.209 (Simulation time: 00 hr 51 min 24 sec)
Heartbeat CPU 3 instructions: 130000001 cycles: 61966962 heartbeat IPC: 2.914 cumulative IPC: 1.196 (Simulation time: 00 hr 52 min 45 sec)
Heartbeat CPU 2 instructions: 110000004 cycles: 64493732 heartbeat IPC: 0.9664 cumulative IPC: 0.6079 (Simulation time: 00 hr 54 min 54 sec)
Heartbeat CPU 1 instructions: 180000000 cycles: 64867847 heartbeat IPC: 2.222 cumulative IPC: 2.21 (Simulation time: 00 hr 55 min 13 sec)
Heartbeat CPU 3 instructions: 140000000 cycles: 65357149 heartbeat IPC: 2.95 cumulative IPC: 1.33 (Simulation time: 00 hr 55 min 38 sec)
Heartbeat CPU 1 instructions: 190000000 cycles: 69278691 heartbeat IPC: 2.267 cumulative IPC: 2.215 (Simulation time: 00 hr 58 min 43 sec)
Heartbeat CPU 3 instructions: 150000000 cycles: 69919913 heartbeat IPC: 2.192 cumulative IPC: 1.41 (Simulation time: 00 hr 59 min 13 sec)
Heartbeat CPU 1 instructions: 200000004 cycles: 73668010 heartbeat IPC: 2.278 cumulative IPC: 2.221 (Simulation time: 01 hr 02 min 06 sec)
Heartbeat CPU 2 instructions: 120000002 cycles: 74088742 heartbeat IPC: 1.042 cumulative IPC: 0.6862 (Simulation time: 01 hr 02 min 25 sec)
Heartbeat CPU 3 instructions: 160000000 cycles: 74770764 heartbeat IPC: 2.061 cumulative IPC: 1.469 (Simulation time: 01 hr 02 min 57 sec)
Heartbeat CPU 1 instructions: 210000001 cycles: 78150548 heartbeat IPC: 2.231 cumulative IPC: 2.221 (Simulation time: 01 hr 05 min 39 sec)
Heartbeat CPU 3 instructions: 170000000 cycles: 79729040 heartbeat IPC: 2.017 cumulative IPC: 1.515 (Simulation time: 01 hr 06 min 52 sec)
Heartbeat CPU 0 instructions: 70000002 cycles: 81424106 heartbeat IPC: 0.4664 cumulative IPC: 0.3303 (Simulation time: 01 hr 08 min 16 sec)
Heartbeat CPU 1 instructions: 220000002 cycles: 82698113 heartbeat IPC: 2.199 cumulative IPC: 2.22 (Simulation time: 01 hr 09 min 16 sec)
Heartbeat CPU 2 instructions: 130000000 cycles: 83993114 heartbeat IPC: 1.01 cumulative IPC: 0.7369 (Simulation time: 01 hr 10 min 14 sec)
Heartbeat CPU 3 instructions: 180000001 cycles: 84397915 heartbeat IPC: 2.142 cumulative IPC: 1.561 (Simulation time: 01 hr 10 min 33 sec)
Heartbeat CPU 1 instructions: 230000000 cycles: 87151637 heartbeat IPC: 2.245 cumulative IPC: 2.221 (Simulation time: 01 hr 12 min 40 sec)
Simulation finished CPU 1 instructions: 150000000 cycles: 67527371 cumulative IPC: 2.221 (Simulation time: 01 hr 13 min 40 sec)
Heartbeat CPU 3 instructions: 190000002 cycles: 88749267 heartbeat IPC: 2.298 cumulative IPC: 1.608 (Simulation time: 01 hr 13 min 57 sec)
Heartbeat CPU 1 instructions: 240000001 cycles: 91669022 heartbeat IPC: 2.214 cumulative IPC: 2.221 (Simulation time: 01 hr 16 min 08 sec)
Heartbeat CPU 2 instructions: 140000002 cycles: 93988645 heartbeat IPC: 1 cumulative IPC: 0.773 (Simulation time: 01 hr 17 min 46 sec)
Heartbeat CPU 3 instructions: 200000004 cycles: 95877323 heartbeat IPC: 1.403 cumulative IPC: 1.589 (Simulation time: 01 hr 19 min 07 sec)
Heartbeat CPU 1 instructions: 250000001 cycles: 96134533 heartbeat IPC: 2.239 cumulative IPC: 2.222 (Simulation time: 01 hr 19 min 20 sec)
Heartbeat CPU 1 instructions: 260000000 cycles: 100712504 heartbeat IPC: 2.184 cumulative IPC: 2.22 (Simulation time: 01 hr 22 min 13 sec)
Heartbeat CPU 1 instructions: 270000003 cycles: 105556501 heartbeat IPC: 2.064 cumulative IPC: 2.211 (Simulation time: 01 hr 24 min 56 sec)
Heartbeat CPU 1 instructions: 280000003 cycles: 110283045 heartbeat IPC: 2.116 cumulative IPC: 2.206 (Simulation time: 01 hr 27 min 37 sec)
Heartbeat CPU 1 instructions: 290000001 cycles: 115017936 heartbeat IPC: 2.112 cumulative IPC: 2.201 (Simulation time: 01 hr 30 min 22 sec)
Heartbeat CPU 3 instructions: 210000003 cycles: 118545727 heartbeat IPC: 0.4411 cumulative IPC: 1.322 (Simulation time: 01 hr 32 min 40 sec)
Heartbeat CPU 1 instructions: 300000002 cycles: 119688104 heartbeat IPC: 2.141 cumulative IPC: 2.198 (Simulation time: 01 hr 33 min 36 sec)
Heartbeat CPU 0 instructions: 80000002 cycles: 121216843 heartbeat IPC: 0.2513 cumulative IPC: 0.299 (Simulation time: 01 hr 34 min 44 sec)
Heartbeat CPU 2 instructions: 150000004 cycles: 121427932 heartbeat IPC: 0.3644 cumulative IPC: 0.6615 (Simulation time: 01 hr 34 min 55 sec)
Heartbeat CPU 3 instructions: 220000001 cycles: 122502914 heartbeat IPC: 2.527 cumulative IPC: 1.369 (Simulation time: 01 hr 35 min 47 sec)
Heartbeat CPU 1 instructions: 310000003 cycles: 124120712 heartbeat IPC: 2.256 cumulative IPC: 2.201 (Simulation time: 01 hr 37 min 07 sec)
Heartbeat CPU 3 instructions: 230000001 cycles: 125889724 heartbeat IPC: 2.953 cumulative IPC: 1.42 (Simulation time: 01 hr 38 min 33 sec)
Simulation finished CPU 3 instructions: 150000002 cycles: 105306310 cumulative IPC: 1.424 (Simulation time: 01 hr 38 min 47 sec)
Heartbeat CPU 1 instructions: 320000002 cycles: 128584264 heartbeat IPC: 2.24 cumulative IPC: 2.203 (Simulation time: 01 hr 40 min 43 sec)
Heartbeat CPU 3 instructions: 240000000 cycles: 129291623 heartbeat IPC: 2.94 cumulative IPC: 1.468 (Simulation time: 01 hr 41 min 19 sec)
Heartbeat CPU 2 instructions: 160000004 cycles: 131392416 heartbeat IPC: 1.004 cumulative IPC: 0.6923 (Simulation time: 01 hr 43 min 00 sec)
Heartbeat CPU 1 instructions: 330000004 cycles: 133082793 heartbeat IPC: 2.223 cumulative IPC: 2.203 (Simulation time: 01 hr 44 min 20 sec)
Heartbeat CPU 3 instructions: 250000000 cycles: 133495521 heartbeat IPC: 2.379 cumulative IPC: 1.502 (Simulation time: 01 hr 44 min 39 sec)
Heartbeat CPU 1 instructions: 340000001 cycles: 137561864 heartbeat IPC: 2.233 cumulative IPC: 2.204 (Simulation time: 01 hr 47 min 51 sec)
Heartbeat CPU 3 instructions: 260000000 cycles: 138334737 heartbeat IPC: 2.066 cumulative IPC: 1.525 (Simulation time: 01 hr 48 min 27 sec)
Heartbeat CPU 2 instructions: 170000004 cycles: 140918984 heartbeat IPC: 1.05 cumulative IPC: 0.7207 (Simulation time: 01 hr 50 min 25 sec)
Heartbeat CPU 1 instructions: 350000001 cycles: 142072368 heartbeat IPC: 2.217 cumulative IPC: 2.205 (Simulation time: 01 hr 51 min 17 sec)
Heartbeat CPU 0 instructions: 90000001 cycles: 142543643 heartbeat IPC: 0.4689 cumulative IPC: 0.3288 (Simulation time: 01 hr 51 min 39 sec)
Heartbeat CPU 3 instructions: 270000000 cycles: 143173110 heartbeat IPC: 2.067 cumulative IPC: 1.547 (Simulation time: 01 hr 52 min 09 sec)
Heartbeat CPU 1 instructions: 360000004 cycles: 146627422 heartbeat IPC: 2.195 cumulative IPC: 2.205 (Simulation time: 01 hr 54 min 48 sec)
Heartbeat CPU 3 instructions: 280000001 cycles: 147719698 heartbeat IPC: 2.199 cumulative IPC: 1.57 (Simulation time: 01 hr 55 min 37 sec)
Heartbeat CPU 2 instructions: 180000001 cycles: 150812140 heartbeat IPC: 1.011 cumulative IPC: 0.7428 (Simulation time: 01 hr 58 min 05 sec)
Heartbeat CPU 1 instructions: 370000000 cycles: 151053837 heartbeat IPC: 2.259 cumulative IPC: 2.206 (Simulation time: 01 hr 58 min 16 sec)
Heartbeat CPU 3 instructions: 290000003 cycles: 152560701 heartbeat IPC: 2.066 cumulative IPC: 1.588 (Simulation time: 01 hr 59 min 29 sec)
Heartbeat CPU 1 instructions: 380000000 cycles: 155538526 heartbeat IPC: 2.23 cumulative IPC: 2.207 (Simulation time: 02 hr 01 min 50 sec)
Heartbeat CPU 3 instructions: 300000002 cycles: 158203123 heartbeat IPC: 1.772 cumulative IPC: 1.596 (Simulation time: 02 hr 03 min 37 sec)
Heartbeat CPU 1 instructions: 390000000 cycles: 160011283 heartbeat IPC: 2.236 cumulative IPC: 2.208 (Simulation time: 02 hr 04 min 51 sec)
Heartbeat CPU 2 instructions: 190000001 cycles: 161836529 heartbeat IPC: 0.9071 cumulative IPC: 0.7556 (Simulation time: 02 hr 06 min 07 sec)
Heartbeat CPU 1 instructions: 400000000 cycles: 164585147 heartbeat IPC: 2.186 cumulative IPC: 2.207 (Simulation time: 02 hr 07 min 48 sec)
Heartbeat CPU 1 instructions: 410000000 cycles: 169257177 heartbeat IPC: 2.14 cumulative IPC: 2.205 (Simulation time: 02 hr 10 min 27 sec)
Heartbeat CPU 1 instructions: 420000004 cycles: 173972823 heartbeat IPC: 2.121 cumulative IPC: 2.203 (Simulation time: 02 hr 13 min 06 sec)
Heartbeat CPU 1 instructions: 430000004 cycles: 178838428 heartbeat IPC: 2.055 cumulative IPC: 2.198 (Simulation time: 02 hr 15 min 51 sec)
Heartbeat CPU 0 instructions: 100000000 cycles: 180619534 heartbeat IPC: 0.2626 cumulative IPC: 0.313 (Simulation time: 02 hr 16 min 53 sec)
Heartbeat CPU 3 instructions: 310000000 cycles: 181940532 heartbeat IPC: 0.4213 cumulative IPC: 1.423 (Simulation time: 02 hr 17 min 41 sec)
Heartbeat CPU 1 instructions: 440000003 cycles: 183547729 heartbeat IPC: 2.123 cumulative IPC: 2.196 (Simulation time: 02 hr 18 min 50 sec)
Heartbeat CPU 3 instructions: 320000004 cycles: 186451536 heartbeat IPC: 2.217 cumulative IPC: 1.444 (Simulation time: 02 hr 21 min 03 sec)
Heartbeat CPU 1 instructions: 450000000 cycles: 187990412 heartbeat IPC: 2.251 cumulative IPC: 2.197 (Simulation time: 02 hr 22 min 20 sec)
Heartbeat CPU 2 instructions: 200000000 cycles: 188250685 heartbeat IPC: 0.3786 cumulative IPC: 0.6961 (Simulation time: 02 hr 22 min 32 sec)
Heartbeat CPU 3 instructions: 330000002 cycles: 189894601 heartbeat IPC: 2.904 cumulative IPC: 1.474 (Simulation time: 02 hr 23 min 51 sec)
Heartbeat CPU 1 instructions: 460000003 cycles: 192480886 heartbeat IPC: 2.227 cumulative IPC: 2.198 (Simulation time: 02 hr 25 min 56 sec)
Heartbeat CPU 3 instructions: 340000004 cycles: 193278343 heartbeat IPC: 2.955 cumulative IPC: 1.503 (Simulation time: 02 hr 26 min 37 sec)
Heartbeat CPU 1 instructions: 470000002 cycles: 196831660 heartbeat IPC: 2.298 cumulative IPC: 2.201 (Simulation time: 02 hr 29 min 29 sec)
Heartbeat CPU 3 instructions: 350000004 cycles: 197062419 heartbeat IPC: 2.643 cumulative IPC: 1.528 (Simulation time: 02 hr 29 min 41 sec)
Heartbeat CPU 2 instructions: 210000000 cycles: 198050589 heartbeat IPC: 1.02 cumulative IPC: 0.7141 (Simulation time: 02 hr 30 min 29 sec)
Heartbeat CPU 1 instructions: 480000000 cycles: 201217680 heartbeat IPC: 2.28 cumulative IPC: 2.203 (Simulation time: 02 hr 33 min 03 sec)
Heartbeat CPU 3 instructions: 360000001 cycles: 201481146 heartbeat IPC: 2.263 cumulative IPC: 1.546 (Simulation time: 02 hr 33 min 15 sec)
Heartbeat CPU 0 instructions: 110000004 cycles: 203705678 heartbeat IPC: 0.4332 cumulative IPC: 0.3282 (Simulation time: 02 hr 34 min 57 sec)
Heartbeat CPU 1 instructions: 490000002 cycles: 205540743 heartbeat IPC: 2.313 cumulative IPC: 2.205 (Simulation time: 02 hr 36 min 21 sec)
Heartbeat CPU 3 instructions: 370000001 cycles: 206303849 heartbeat IPC: 2.074 cumulative IPC: 1.559 (Simulation time: 02 hr 36 min 56 sec)
Heartbeat CPU 2 instructions: 220000001 cycles: 207404052 heartbeat IPC: 1.069 cumulative IPC: 0.7319 (Simulation time: 02 hr 37 min 47 sec)
Heartbeat CPU 1 instructions: 500000000 cycles: 209900484 heartbeat IPC: 2.294 cumulative IPC: 2.207 (Simulation time: 02 hr 39 min 40 sec)
Heartbeat CPU 3 instructions: 380000002 cycles: 210930297 heartbeat IPC: 2.161 cumulative IPC: 1.574 (Simulation time: 02 hr 40 min 29 sec)
Heartbeat CPU 1 instructions: 510000004 cycles: 214222815 heartbeat IPC: 2.314 cumulative IPC: 2.21 (Simulation time: 02 hr 43 min 00 sec)
Heartbeat CPU 3 instructions: 390000000 cycles: 215722166 heartbeat IPC: 2.087 cumulative IPC: 1.587 (Simulation time: 02 hr 44 min 10 sec)
Heartbeat CPU 2 instructions: 230000004 cycles: 217061700 heartbeat IPC: 1.035 cumulative IPC: 0.7468 (Simulation time: 02 hr 45 min 11 sec)
Heartbeat CPU 1 instructions: 520000000 cycles: 218565398 heartbeat IPC: 2.303 cumulative IPC: 2.212 (Simulation time: 02 hr 46 min 22 sec)
Heartbeat CPU 3 instructions: 400000001 cycles: 219782064 heartbeat IPC: 2.463 cumulative IPC: 1.605 (Simulation time: 02 hr 47 min 23 sec)
Simulation finished CPU 2 instructions: 150000003 cycles: 199426944 cumulative IPC: 0.7522 (Simulation time: 02 hr 47 min 48 sec)
Heartbeat CPU 1 instructions: 530000002 cycles: 225087309 heartbeat IPC: 1.533 cumulative IPC: 2.19 (Simulation time: 02 hr 50 min 51 sec)
Heartbeat CPU 0 instructions: 120000004 cycles: 229173519 heartbeat IPC: 0.3927 cumulative IPC: 0.336 (Simulation time: 02 hr 53 min 29 sec)
Heartbeat CPU 1 instructions: 540000003 cycles: 231701407 heartbeat IPC: 1.512 cumulative IPC: 2.169 (Simulation time: 02 hr 54 min 58 sec)
Heartbeat CPU 3 instructions: 410000000 cycles: 231816741 heartbeat IPC: 0.8309 cumulative IPC: 1.56 (Simulation time: 02 hr 55 min 02 sec)
Heartbeat CPU 2 instructions: 240000003 cycles: 234586444 heartbeat IPC: 0.5706 cumulative IPC: 0.7324 (Simulation time: 02 hr 56 min 37 sec)
Heartbeat CPU 1 instructions: 550000002 cycles: 236071196 heartbeat IPC: 2.288 cumulative IPC: 2.171 (Simulation time: 02 hr 57 min 29 sec)
Heartbeat CPU 1 instructions: 560000002 cycles: 240645997 heartbeat IPC: 2.186 cumulative IPC: 2.171 (Simulation time: 03 hr 00 min 04 sec)
Heartbeat CPU 1 instructions: 570000001 cycles: 245027834 heartbeat IPC: 2.282 cumulative IPC: 2.174 (Simulation time: 03 hr 02 min 37 sec)
Heartbeat CPU 1 instructions: 580000001 cycles: 249515364 heartbeat IPC: 2.228 cumulative IPC: 2.175 (Simulation time: 03 hr 05 min 27 sec)
Heartbeat CPU 3 instructions: 420000002 cycles: 251076581 heartbeat IPC: 0.5192 cumulative IPC: 1.473 (Simulation time: 03 hr 06 min 44 sec)
Heartbeat CPU 1 instructions: 590000002 cycles: 253803967 heartbeat IPC: 2.332 cumulative IPC: 2.178 (Simulation time: 03 hr 08 min 57 sec)
Heartbeat CPU 3 instructions: 430000000 cycles: 254926277 heartbeat IPC: 2.598 cumulative IPC: 1.492 (Simulation time: 03 hr 09 min 54 sec)
Heartbeat CPU 2 instructions: 250000002 cycles: 256756617 heartbeat IPC: 0.4511 cumulative IPC: 0.7059 (Simulation time: 03 hr 11 min 27 sec)
Heartbeat CPU 1 instructions: 600000000 cycles: 258074546 heartbeat IPC: 2.342 cumulative IPC: 2.181 (Simulation time: 03 hr 12 min 32 sec)
Heartbeat CPU 3 instructions: 440000003 cycles: 258373827 heartbeat IPC: 2.901 cumulative IPC: 1.512 (Simulation time: 03 hr 12 min 47 sec)
Heartbeat CPU 3 instructions: 450000002 cycles: 261885234 heartbeat IPC: 2.848 cumulative IPC: 1.532 (Simulation time: 03 hr 15 min 46 sec)
Heartbeat CPU 1 instructions: 610000000 cycles: 262394623 heartbeat IPC: 2.315 cumulative IPC: 2.183 (Simulation time: 03 hr 16 min 11 sec)
Heartbeat CPU 3 instructions: 460000001 cycles: 266250567 heartbeat IPC: 2.291 cumulative IPC: 1.545 (Simulation time: 03 hr 19 min 17 sec)
Heartbeat CPU 2 instructions: 260000004 cycles: 266446632 heartbeat IPC: 1.032 cumulative IPC: 0.7188 (Simulation time: 03 hr 19 min 26 sec)
Heartbeat CPU 1 instructions: 620000001 cycles: 266762644 heartbeat IPC: 2.289 cumulative IPC: 2.185 (Simulation time: 03 hr 19 min 41 sec)
Heartbeat CPU 0 instructions: 130000003 cycles: 267428871 heartbeat IPC: 0.2614 cumulative IPC: 0.3245 (Simulation time: 03 hr 20 min 13 sec)
Heartbeat CPU 3 instructions: 470000000 cycles: 271021407 heartbeat IPC: 2.096 cumulative IPC: 1.556 (Simulation time: 03 hr 23 min 03 sec)
Heartbeat CPU 1 instructions: 630000001 cycles: 271139116 heartbeat IPC: 2.285 cumulative IPC: 2.187 (Simulation time: 03 hr 23 min 09 sec)
Heartbeat CPU 2 instructions: 270000003 cycles: 275234798 heartbeat IPC: 1.138 cumulative IPC: 0.7333 (Simulation time: 03 hr 26 min 21 sec)
Heartbeat CPU 1 instructions: 640000001 cycles: 275486232 heartbeat IPC: 2.3 cumulative IPC: 2.189 (Simulation time: 03 hr 26 min 33 sec)
Heartbeat CPU 3 instructions: 480000004 cycles: 275728396 heartbeat IPC: 2.125 cumulative IPC: 1.566 (Simulation time: 03 hr 26 min 45 sec)
Heartbeat CPU 1 instructions: 650000000 cycles: 279858221 heartbeat IPC: 2.287 cumulative IPC: 2.19 (Simulation time: 03 hr 29 min 57 sec)
Heartbeat CPU 3 instructions: 490000001 cycles: 280437264 heartbeat IPC: 2.124 cumulative IPC: 1.576 (Simulation time: 03 hr 30 min 23 sec)
Heartbeat CPU 2 instructions: 280000002 cycles: 283556569 heartbeat IPC: 1.202 cumulative IPC: 0.7481 (Simulation time: 03 hr 32 min 52 sec)
Heartbeat CPU 1 instructions: 660000002 cycles: 284249787 heartbeat IPC: 2.277 cumulative IPC: 2.192 (Simulation time: 03 hr 33 min 26 sec)
Heartbeat CPU 3 instructions: 500000000 cycles: 284449390 heartbeat IPC: 2.492 cumulative IPC: 1.59 (Simulation time: 03 hr 33 min 35 sec)
Heartbeat CPU 0 instructions: 140000001 cycles: 288321200 heartbeat IPC: 0.4786 cumulative IPC: 0.3365 (Simulation time: 03 hr 36 min 26 sec)
Heartbeat CPU 1 instructions: 670000001 cycles: 288706168 heartbeat IPC: 2.244 cumulative IPC: 2.193 (Simulation time: 03 hr 36 min 42 sec)
Heartbeat CPU 3 instructions: 510000000 cycles: 292483331 heartbeat IPC: 1.245 cumulative IPC: 1.58 (Simulation time: 03 hr 39 min 24 sec)
Heartbeat CPU 1 instructions: 680000002 cycles: 293249118 heartbeat IPC: 2.201 cumulative IPC: 2.193 (Simulation time: 03 hr 39 min 53 sec)
Heartbeat CPU 1 instructions: 690000001 cycles: 297841838 heartbeat IPC: 2.177 cumulative IPC: 2.192 (Simulation time: 03 hr 42 min 35 sec)
Heartbeat CPU 1 instructions: 700000000 cycles: 302609163 heartbeat IPC: 2.098 cumulative IPC: 2.191 (Simulation time: 03 hr 45 min 19 sec)
Heartbeat CPU 2 instructions: 290000004 cycles: 302686012 heartbeat IPC: 0.5228 cumulative IPC: 0.7328 (Simulation time: 03 hr 45 min 22 sec)
Heartbeat CPU 1 instructions: 710000002 cycles: 307330984 heartbeat IPC: 2.118 cumulative IPC: 2.19 (Simulation time: 03 hr 48 min 04 sec)
Heartbeat CPU 1 instructions: 720000004 cycles: 312115863 heartbeat IPC: 2.09 cumulative IPC: 2.188 (Simulation time: 03 hr 50 min 57 sec)
Heartbeat CPU 3 instructions: 520000003 cycles: 314206980 heartbeat IPC: 0.4603 cumulative IPC: 1.497 (Simulation time: 03 hr 52 min 27 sec)
Heartbeat CPU 1 instructions: 730000002 cycles: 316602321 heartbeat IPC: 2.229 cumulative IPC: 2.189 (Simulation time: 03 hr 54 min 18 sec)
Heartbeat CPU 3 instructions: 530000003 cycles: 318099984 heartbeat IPC: 2.569 cumulative IPC: 1.511 (Simulation time: 03 hr 55 min 30 sec)
Heartbeat CPU 2 instructions: 300000001 cycles: 321065678 heartbeat IPC: 0.5441 cumulative IPC: 0.7213 (Simulation time: 03 hr 57 min 54 sec)
Heartbeat CPU 1 instructions: 740000004 cycles: 321088252 heartbeat IPC: 2.229 cumulative IPC: 2.189 (Simulation time: 03 hr 57 min 55 sec)
Heartbeat CPU 3 instructions: 540000004 cycles: 321527431 heartbeat IPC: 2.918 cumulative IPC: 1.527 (Simulation time: 03 hr 58 min 17 sec)
Heartbeat CPU 3 instructions: 550000001 cycles: 325088575 heartbeat IPC: 2.808 cumulative IPC: 1.542 (Simulation time: 04 hr 01 min 10 sec)
Heartbeat CPU 1 instructions: 750000001 cycles: 325628348 heartbeat IPC: 2.203 cumulative IPC: 2.189 (Simulation time: 04 hr 01 min 35 sec)
Heartbeat CPU 0 instructions: 150000003 cycles: 327482116 heartbeat IPC: 0.2554 cumulative IPC: 0.3261 (Simulation time: 04 hr 03 min 05 sec)
Heartbeat CPU 3 instructions: 560000000 cycles: 329296966 heartbeat IPC: 2.376 cumulative IPC: 1.554 (Simulation time: 04 hr 04 min 28 sec)
Heartbeat CPU 1 instructions: 760000000 cycles: 330110129 heartbeat IPC: 2.231 cumulative IPC: 2.19 (Simulation time: 04 hr 05 min 05 sec)
Heartbeat CPU 2 instructions: 310000002 cycles: 330793257 heartbeat IPC: 1.028 cumulative IPC: 0.7309 (Simulation time: 04 hr 05 min 35 sec)
Heartbeat CPU 3 instructions: 570000002 cycles: 334050694 heartbeat IPC: 2.104 cumulative IPC: 1.562 (Simulation time: 04 hr 08 min 02 sec)
Heartbeat CPU 1 instructions: 770000002 cycles: 334537695 heartbeat IPC: 2.259 cumulative IPC: 2.191 (Simulation time: 04 hr 08 min 25 sec)
Heartbeat CPU 3 instructions: 580000003 cycles: 338890927 heartbeat IPC: 2.066 cumulative IPC: 1.57 (Simulation time: 04 hr 11 min 51 sec)
Heartbeat CPU 1 instructions: 780000002 cycles: 338970485 heartbeat IPC: 2.256 cumulative IPC: 2.192 (Simulation time: 04 hr 11 min 54 sec)
Heartbeat CPU 2 instructions: 320000004 cycles: 340378367 heartbeat IPC: 1.043 cumulative IPC: 0.7403 (Simulation time: 04 hr 13 min 04 sec)
Heartbeat CPU 1 instructions: 790000002 cycles: 343429787 heartbeat IPC: 2.243 cumulative IPC: 2.193 (Simulation time: 04 hr 15 min 27 sec)
Heartbeat CPU 3 instructions: 590000000 cycles: 343490723 heartbeat IPC: 2.174 cumulative IPC: 1.578 (Simulation time: 04 hr 15 min 30 sec)
Heartbeat CPU 3 instructions: 600000000 cycles: 347645969 heartbeat IPC: 2.407 cumulative IPC: 1.589 (Simulation time: 04 hr 18 min 46 sec)
Heartbeat CPU 1 instructions: 800000001 cycles: 347841912 heartbeat IPC: 2.266 cumulative IPC: 2.194 (Simulation time: 04 hr 18 min 55 sec)
Heartbeat CPU 0 instructions: 160000002 cycles: 349549764 heartbeat IPC: 0.4532 cumulative IPC: 0.3347 (Simulation time: 04 hr 20 min 09 sec)
Heartbeat CPU 2 instructions: 330000004 cycles: 350468548 heartbeat IPC: 0.9911 cumulative IPC: 0.7479 (Simulation time: 04 hr 20 min 48 sec)
Heartbeat CPU 1 instructions: 810000000 cycles: 352292479 heartbeat IPC: 2.247 cumulative IPC: 2.194 (Simulation time: 04 hr 21 min 59 sec)
Heartbeat CPU 3 instructions: 610000004 cycles: 355425364 heartbeat IPC: 1.285 cumulative IPC: 1.582 (Simulation time: 04 hr 24 min 09 sec)
Heartbeat CPU 1 instructions: 820000000 cycles: 356719523 heartbeat IPC: 2.259 cumulative IPC: 2.195 (Simulation time: 04 hr 24 min 56 sec)
Heartbeat CPU 1 instructions: 830000004 cycles: 361388761 heartbeat IPC: 2.142 cumulative IPC: 2.194 (Simulation time: 04 hr 27 min 36 sec)
Heartbeat CPU 1 instructions: 840000003 cycles: 366128795 heartbeat IPC: 2.11 cumulative IPC: 2.193 (Simulation time: 04 hr 30 min 16 sec)
Heartbeat CPU 1 instructions: 850000001 cycles: 370820237 heartbeat IPC: 2.132 cumulative IPC: 2.192 (Simulation time: 04 hr 32 min 57 sec)
Heartbeat CPU 1 instructions: 860000003 cycles: 375566030 heartbeat IPC: 2.107 cumulative IPC: 2.191 (Simulation time: 04 hr 35 min 45 sec)
Heartbeat CPU 3 instructions: 620000001 cycles: 377421424 heartbeat IPC: 0.4546 cumulative IPC: 1.512 (Simulation time: 04 hr 37 min 06 sec)
Heartbeat CPU 2 instructions: 340000004 cycles: 377611099 heartbeat IPC: 0.3684 cumulative IPC: 0.7191 (Simulation time: 04 hr 37 min 14 sec)
Heartbeat CPU 1 instructions: 870000003 cycles: 380080121 heartbeat IPC: 2.215 cumulative IPC: 2.192 (Simulation time: 04 hr 39 min 08 sec)
Heartbeat CPU 3 instructions: 630000002 cycles: 381353532 heartbeat IPC: 2.543 cumulative IPC: 1.523 (Simulation time: 04 hr 40 min 11 sec)
Heartbeat CPU 1 instructions: 880000000 cycles: 384531802 heartbeat IPC: 2.246 cumulative IPC: 2.192 (Simulation time: 04 hr 42 min 47 sec)
Heartbeat CPU 3 instructions: 640000004 cycles: 384806149 heartbeat IPC: 2.896 cumulative IPC: 1.536 (Simulation time: 04 hr 43 min 00 sec)
Heartbeat CPU 2 instructions: 350000000 cycles: 387850028 heartbeat IPC: 0.9767 cumulative IPC: 0.7262 (Simulation time: 04 hr 45 min 25 sec)
Heartbeat CPU 0 instructions: 170000001 cycles: 388109941 heartbeat IPC: 0.2593 cumulative IPC: 0.3268 (Simulation time: 04 hr 45 min 36 sec)
Heartbeat CPU 3 instructions: 650000000 cycles: 388703763 heartbeat IPC: 2.566 cumulative IPC: 1.547 (Simulation time: 04 hr 46 min 02 sec)
Heartbeat CPU 1 instructions: 890000004 cycles: 388960427 heartbeat IPC: 2.258 cumulative IPC: 2.193 (Simulation time: 04 hr 46 min 14 sec)
Heartbeat CPU 1 instructions: 900000000 cycles: 393399850 heartbeat IPC: 2.253 cumulative IPC: 2.194 (Simulation time: 04 hr 49 min 32 sec)
Heartbeat CPU 3 instructions: 660000001 cycles: 393531753 heartbeat IPC: 2.071 cumulative IPC: 1.554 (Simulation time: 04 hr 49 min 38 sec)
Heartbeat CPU 2 instructions: 360000004 cycles: 397437118 heartbeat IPC: 1.043 cumulative IPC: 0.7343 (Simulation time: 04 hr 52 min 36 sec)
Heartbeat CPU 1 instructions: 910000003 cycles: 397862556 heartbeat IPC: 2.241 cumulative IPC: 2.194 (Simulation time: 04 hr 52 min 55 sec)
Heartbeat CPU 3 instructions: 670000000 cycles: 398399599 heartbeat IPC: 2.054 cumulative IPC: 1.561 (Simulation time: 04 hr 53 min 18 sec)
Heartbeat CPU 1 instructions: 920000001 cycles: 402268479 heartbeat IPC: 2.27 cumulative IPC: 2.195 (Simulation time: 04 hr 56 min 09 sec)
Heartbeat CPU 3 instructions: 680000000 cycles: 402837362 heartbeat IPC: 2.253 cumulative IPC: 1.569 (Simulation time: 04 hr 56 min 34 sec)
Heartbeat CPU 1 instructions: 930000001 cycles: 406697479 heartbeat IPC: 2.258 cumulative IPC: 2.196 (Simulation time: 04 hr 59 min 26 sec)
Heartbeat CPU 2 instructions: 370000004 cycles: 407136524 heartbeat IPC: 1.031 cumulative IPC: 0.7418 (Simulation time: 04 hr 59 min 46 sec)
Heartbeat CPU 3 instructions: 690000001 cycles: 407156111 heartbeat IPC: 2.315 cumulative IPC: 1.577 (Simulation time: 04 hr 59 min 47 sec)
Heartbeat CPU 0 instructions: 180000001 cycles: 409795615 heartbeat IPC: 0.4611 cumulative IPC: 0.3343 (Simulation time: 05 hr 01 min 44 sec)
Heartbeat CPU 1 instructions: 940000000 cycles: 411188591 heartbeat IPC: 2.227 cumulative IPC: 2.196 (Simulation time: 05 hr 02 min 41 sec)
Heartbeat CPU 3 instructions: 700000000 cycles: 414189535 heartbeat IPC: 1.422 cumulative IPC: 1.574 (Simulation time: 05 hr 04 min 41 sec)
Heartbeat CPU 1 instructions: 950000000 cycles: 415731061 heartbeat IPC: 2.201 cumulative IPC: 2.196 (Simulation time: 05 hr 05 min 44 sec)
Heartbeat CPU 1 instructions: 960000003 cycles: 420504957 heartbeat IPC: 2.095 cumulative IPC: 2.195 (Simulation time: 05 hr 08 min 27 sec)
Heartbeat CPU 1 instructions: 970000001 cycles: 425157780 heartbeat IPC: 2.149 cumulative IPC: 2.195 (Simulation time: 05 hr 11 min 00 sec)
Heartbeat CPU 2 instructions: 380000004 cycles: 428443815 heartbeat IPC: 0.4693 cumulative IPC: 0.7275 (Simulation time: 05 hr 12 min 53 sec)
Heartbeat CPU 1 instructions: 980000000 cycles: 429953711 heartbeat IPC: 2.085 cumulative IPC: 2.193 (Simulation time: 05 hr 13 min 44 sec)
Heartbeat CPU 1 instructions: 990000004 cycles: 434764146 heartbeat IPC: 2.079 cumulative IPC: 2.192 (Simulation time: 05 hr 16 min 24 sec)
Heartbeat CPU 3 instructions: 710000000 cycles: 436620528 heartbeat IPC: 0.4458 cumulative IPC: 1.513 (Simulation time: 05 hr 17 min 38 sec)
Heartbeat CPU 1 instructions: 1000000004 cycles: 439310676 heartbeat IPC: 2.199 cumulative IPC: 2.192 (Simulation time: 05 hr 19 min 36 sec)
Heartbeat CPU 3 instructions: 720000001 cycles: 440629442 heartbeat IPC: 2.494 cumulative IPC: 1.523 (Simulation time: 05 hr 20 min 37 sec)
Heartbeat CPU 1 instructions: 1010000000 cycles: 443817037 heartbeat IPC: 2.219 cumulative IPC: 2.192 (Simulation time: 05 hr 23 min 06 sec)
Heartbeat CPU 3 instructions: 730000003 cycles: 444089708 heartbeat IPC: 2.89 cumulative IPC: 1.534 (Simulation time: 05 hr 23 min 19 sec)
Heartbeat CPU 2 instructions: 390000004 cycles: 444777598 heartbeat IPC: 0.6122 cumulative IPC: 0.7231 (Simulation time: 05 hr 23 min 50 sec)
Heartbeat CPU 3 instructions: 740000002 cycles: 448107982 heartbeat IPC: 2.489 cumulative IPC: 1.543 (Simulation time: 05 hr 26 min 22 sec)
Heartbeat CPU 1 instructions: 1020000002 cycles: 448221441 heartbeat IPC: 2.27 cumulative IPC: 2.193 (Simulation time: 05 hr 26 min 27 sec)
Heartbeat CPU 0 instructions: 190000003 cycles: 449191801 heartbeat IPC: 0.2538 cumulative IPC: 0.3269 (Simulation time: 05 hr 27 min 13 sec)
Heartbeat CPU 1 instructions: 1030000004 cycles: 452607815 heartbeat IPC: 2.28 cumulative IPC: 2.194 (Simulation time: 05 hr 29 min 50 sec)
Heartbeat CPU 3 instructions: 750000003 cycles: 452751202 heartbeat IPC: 2.154 cumulative IPC: 1.549 (Simulation time: 05 hr 29 min 56 sec)
Heartbeat CPU 2 instructions: 400000001 cycles: 454340184 heartbeat IPC: 1.046 cumulative IPC: 0.7302 (Simulation time: 05 hr 31 min 06 sec)
Heartbeat CPU 1 instructions: 1040000001 cycles: 456953022 heartbeat IPC: 2.301 cumulative IPC: 2.195 (Simulation time: 05 hr 33 min 01 sec)
Heartbeat CPU 3 instructions: 760000000 cycles: 457550181 heartbeat IPC: 2.084 cumulative IPC: 1.555 (Simulation time: 05 hr 33 min 28 sec)
Heartbeat CPU 1 instructions: 1050000004 cycles: 461243134 heartbeat IPC: 2.331 cumulative IPC: 2.196 (Simulation time: 05 hr 36 min 13 sec)
Heartbeat CPU 3 instructions: 770000003 cycles: 462104761 heartbeat IPC: 2.196 cumulative IPC: 1.562 (Simulation time: 05 hr 36 min 50 sec)
Heartbeat CPU 2 instructions: 410000001 cycles: 463909627 heartbeat IPC: 1.045 cumulative IPC: 0.737 (Simulation time: 05 hr 38 min 12 sec)
Heartbeat CPU 1 instructions: 1060000001 cycles: 465590689 heartbeat IPC: 2.3 cumulative IPC: 2.197 (Simulation time: 05 hr 39 min 27 sec)
Heartbeat CPU 3 instructions: 780000001 cycles: 466490943 heartbeat IPC: 2.28 cumulative IPC: 1.569 (Simulation time: 05 hr 40 min 08 sec)
Heartbeat CPU 1 instructions: 1070000000 cycles: 469922342 heartbeat IPC: 2.309 cumulative IPC: 2.199 (Simulation time: 05 hr 42 min 38 sec)
Heartbeat CPU 0 instructions: 200000001 cycles: 470932111 heartbeat IPC: 0.46 cumulative IPC: 0.3333 (Simulation time: 05 hr 43 min 20 sec)
Simulation finished CPU 0 instructions: 150000003 cycles: 450061352 cumulative IPC: 0.3333 (Simulation time: 05 hr 43 min 20 sec)
Simulation complete CPU 0 instructions: 150000003 cycles: 450061352 cumulative IPC: 0.3333 (Simulation time: 05 hr 43 min 20 sec)
Simulation complete CPU 1 instructions: 989588610 cycles: 450061352 cumulative IPC: 2.199 (Simulation time: 05 hr 43 min 20 sec)
Simulation complete CPU 2 instructions: 333567372 cycles: 450061352 cumulative IPC: 0.7412 (Simulation time: 05 hr 43 min 20 sec)
Simulation complete CPU 3 instructions: 706760052 cycles: 450061352 cumulative IPC: 1.57 (Simulation time: 05 hr 43 min 20 sec)

ChampSim completed all CPUs

=== Simulation ===
CPU 0 runs /home/grads/r/rdas40/dpc3_traces/620.omnetpp_s-874B.champsimtrace.xzCPU 1 runs /home/grads/r/rdas40/dpc3_traces/603.bwaves_s-3699B.champsimtrace.xzCPU 2 runs /home/grads/r/rdas40/dpc3_traces/649.fotonik3d_s-1176B.champsimtrace.xzCPU 3 runs /home/grads/r/rdas40/dpc3_traces/627.cam4_s-573B.champsimtrace.xz
Total Simulation Statistics (not including warmup)

CPU 0 cumulative IPC: 0.3333 instructions: 150000003 cycles: 450061352
CPU 0 Branch Prediction Accuracy: 94.9% MPKI: 10.6 Average ROB Occupancy at Mispredict: 82.83
Branch type MPKI
BRANCH_DIRECT_JUMP: 0.923
BRANCH_INDIRECT: 0.128
BRANCH_CONDITIONAL: 8.42
BRANCH_DIRECT_CALL: 0.00016
BRANCH_INDIRECT_CALL: 0.734
BRANCH_RETURN: 0.399


CPU 1 cumulative IPC: 2.199 instructions: 989588610 cycles: 450061352
CPU 1 Branch Prediction Accuracy: 90.02% MPKI: 14.54 Average ROB Occupancy at Mispredict: 30.16
Branch type MPKI
BRANCH_DIRECT_JUMP: 0.0596
BRANCH_INDIRECT: 0
BRANCH_CONDITIONAL: 14.4
BRANCH_DIRECT_CALL: 0
BRANCH_INDIRECT_CALL: 0
BRANCH_RETURN: 0.0661


CPU 2 cumulative IPC: 0.7412 instructions: 333567372 cycles: 450061352
CPU 2 Branch Prediction Accuracy: 99.47% MPKI: 0.09987 Average ROB Occupancy at Mispredict: 79.65
Branch type MPKI
BRANCH_DIRECT_JUMP: 0.000267
BRANCH_INDIRECT: 0
BRANCH_CONDITIONAL: 0.0755
BRANCH_DIRECT_CALL: 4.8e-05
BRANCH_INDIRECT_CALL: 0
BRANCH_RETURN: 0.024


CPU 3 cumulative IPC: 1.57 instructions: 706760052 cycles: 450061352
CPU 3 Branch Prediction Accuracy: 94.7% MPKI: 7.114 Average ROB Occupancy at Mispredict: 66.19
Branch type MPKI
BRANCH_DIRECT_JUMP: 0.0054
BRANCH_INDIRECT: 0.00155
BRANCH_CONDITIONAL: 6.46
BRANCH_DIRECT_CALL: 0.0184
BRANCH_INDIRECT_CALL: 0
BRANCH_RETURN: 0.63

LLC TOTAL        ACCESS:    3513399 HIT:    1568594 MISS:    1944805
LLC LOAD         ACCESS:    1689050 HIT:     435927 MISS:    1253123
LLC RFO          ACCESS:     257786 HIT:     128718 MISS:     129068
LLC PREFETCH     ACCESS:          0 HIT:          0 MISS:          0
LLC WRITE        ACCESS:     970414 HIT:     927860 MISS:      42554
LLC TRANSLATION  ACCESS:     596149 HIT:      76089 MISS:     520060
LLC PREFETCH REQUESTED:          0 ISSUED:          0 USEFUL:          0 USELESS:          0
LLC AVERAGE MISS LATENCY: 773.6 cycles
LLC TOTAL        ACCESS:     282376 HIT:      38704 MISS:     243672
LLC LOAD         ACCESS:      25729 HIT:          1 MISS:      25728
LLC RFO          ACCESS:     128367 HIT:         56 MISS:     128311
LLC PREFETCH     ACCESS:          0 HIT:          0 MISS:          0
LLC WRITE        ACCESS:     128261 HIT:      38644 MISS:      89617
LLC TRANSLATION  ACCESS:         19 HIT:          3 MISS:         16
LLC PREFETCH REQUESTED:          0 ISSUED:          0 USEFUL:          0 USELESS:          0
LLC AVERAGE MISS LATENCY: 773.6 cycles
LLC TOTAL        ACCESS:    5848754 HIT:    2897524 MISS:    2951230
LLC LOAD         ACCESS:    2952761 HIT:      44221 MISS:    2908540
LLC RFO          ACCESS:        386 HIT:        360 MISS:         26
LLC PREFETCH     ACCESS:          0 HIT:          0 MISS:          0
LLC WRITE        ACCESS:    2895041 HIT:    2852731 MISS:      42310
LLC TRANSLATION  ACCESS:        566 HIT:        212 MISS:        354
LLC PREFETCH REQUESTED:          0 ISSUED:          0 USEFUL:          0 USELESS:          0
LLC AVERAGE MISS LATENCY: 773.6 cycles
LLC TOTAL        ACCESS:    7417500 HIT:    3635776 MISS:    3781724
LLC LOAD         ACCESS:     500158 HIT:     113363 MISS:     386795
LLC RFO          ACCESS:    3424553 HIT:      81553 MISS:    3343000
LLC PREFETCH     ACCESS:          0 HIT:          0 MISS:          0
LLC WRITE        ACCESS:    3480991 HIT:    3439751 MISS:      41240
LLC TRANSLATION  ACCESS:      11798 HIT:       1109 MISS:      10689
LLC PREFETCH REQUESTED:          0 ISSUED:          0 USEFUL:          0 USELESS:          0
LLC AVERAGE MISS LATENCY: 773.6 cycles
cpu0_DTLB TOTAL        ACCESS:   38224404 HIT:   34931124 MISS:    3293280
cpu0_DTLB LOAD         ACCESS:   38224404 HIT:   34931124 MISS:    3293280
cpu0_DTLB RFO          ACCESS:          0 HIT:          0 MISS:          0
cpu0_DTLB PREFETCH     ACCESS:          0 HIT:          0 MISS:          0
cpu0_DTLB WRITE        ACCESS:          0 HIT:          0 MISS:          0
cpu0_DTLB TRANSLATION  ACCESS:          0 HIT:          0 MISS:          0
cpu0_DTLB PREFETCH REQUESTED:          0 ISSUED:          0 USEFUL:          0 USELESS:          0
cpu0_DTLB AVERAGE MISS LATENCY: 85.71 cycles
cpu0_DTLB TOTAL        ACCESS:          0 HIT:          0 MISS:          0
cpu0_DTLB LOAD         ACCESS:          0 HIT:          0 MISS:          0
cpu0_DTLB RFO          ACCESS:          0 HIT:          0 MISS:          0
cpu0_DTLB PREFETCH     ACCESS:          0 HIT:          0 MISS:          0
cpu0_DTLB WRITE        ACCESS:          0 HIT:          0 MISS:          0
cpu0_DTLB TRANSLATION  ACCESS:          0 HIT:          0 MISS:          0
cpu0_DTLB PREFETCH REQUESTED:          0 ISSUED:          0 USEFUL:          0 USELESS:          0
cpu0_DTLB AVERAGE MISS LATENCY: 85.71 cycles
cpu0_DTLB TOTAL        ACCESS:          0 HIT:          0 MISS:          0
cpu0_DTLB LOAD         ACCESS:          0 HIT:          0 MISS:          0
cpu0_DTLB RFO          ACCESS:          0 HIT:          0 MISS:          0
cpu0_DTLB PREFETCH     ACCESS:          0 HIT:          0 MISS:          0
cpu0_DTLB WRITE        ACCESS:          0 HIT:          0 MISS:          0
cpu0_DTLB TRANSLATION  ACCESS:          0 HIT:          0 MISS:          0
cpu0_DTLB PREFETCH REQUESTED:          0 ISSUED:          0 USEFUL:          0 USELESS:          0
cpu0_DTLB AVERAGE MISS LATENCY: 85.71 cycles
cpu0_DTLB TOTAL        ACCESS:          0 HIT:          0 MISS:          0
cpu0_DTLB LOAD         ACCESS:          0 HIT:          0 MISS:          0
cpu0_DTLB RFO          ACCESS:          0 HIT:          0 MISS:          0
cpu0_DTLB PREFETCH     ACCESS:          0 HIT:          0 MISS:          0
cpu0_DTLB WRITE        ACCESS:          0 HIT:          0 MISS:          0
cpu0_DTLB TRANSLATION  ACCESS:          0 HIT:          0 MISS:          0
cpu0_DTLB PREFETCH REQUESTED:          0 ISSUED:          0 USEFUL:          0 USELESS:          0
cpu0_DTLB AVERAGE MISS LATENCY: 85.71 cycles
cpu0_ITLB TOTAL        ACCESS:   10776898 HIT:   10504555 MISS:     272343
cpu0_ITLB LOAD         ACCESS:   10776898 HIT:   10504555 MISS:     272343
cpu0_ITLB RFO          ACCESS:          0 HIT:          0 MISS:          0
cpu0_ITLB PREFETCH     ACCESS:          0 HIT:          0 MISS:          0
cpu0_ITLB WRITE        ACCESS:          0 HIT:          0 MISS:          0
cpu0_ITLB TRANSLATION  ACCESS:          0 HIT:          0 MISS:          0
cpu0_ITLB PREFETCH REQUESTED:          0 ISSUED:          0 USEFUL:          0 USELESS:          0
cpu0_ITLB AVERAGE MISS LATENCY: 7.609 cycles
cpu0_ITLB TOTAL        ACCESS:          0 HIT:          0 MISS:          0
cpu0_ITLB LOAD         ACCESS:          0 HIT:          0 MISS:          0
cpu0_ITLB RFO          ACCESS:          0 HIT:          0 MISS:          0
cpu0_ITLB PREFETCH     ACCESS:          0 HIT:          0 MISS:          0
cpu0_ITLB WRITE        ACCESS:          0 HIT:          0 MISS:          0
cpu0_ITLB TRANSLATION  ACCESS:          0 HIT:          0 MISS:          0
cpu0_ITLB PREFETCH REQUESTED:          0 ISSUED:          0 USEFUL:          0 USELESS:          0
cpu0_ITLB AVERAGE MISS LATENCY: 7.609 cycles
cpu0_ITLB TOTAL        ACCESS:          0 HIT:          0 MISS:          0
cpu0_ITLB LOAD         ACCESS:          0 HIT:          0 MISS:          0
cpu0_ITLB RFO          ACCESS:          0 HIT:          0 MISS:          0
cpu0_ITLB PREFETCH     ACCESS:          0 HIT:          0 MISS:          0
cpu0_ITLB WRITE        ACCESS:          0 HIT:          0 MISS:          0
cpu0_ITLB TRANSLATION  ACCESS:          0 HIT:          0 MISS:          0
cpu0_ITLB PREFETCH REQUESTED:          0 ISSUED:          0 USEFUL:          0 USELESS:          0
cpu0_ITLB AVERAGE MISS LATENCY: 7.609 cycles
cpu0_ITLB TOTAL        ACCESS:          0 HIT:          0 MISS:          0
cpu0_ITLB LOAD         ACCESS:          0 HIT:          0 MISS:          0
cpu0_ITLB RFO          ACCESS:          0 HIT:          0 MISS:          0
cpu0_ITLB PREFETCH     ACCESS:          0 HIT:          0 MISS:          0
cpu0_ITLB WRITE        ACCESS:          0 HIT:          0 MISS:          0
cpu0_ITLB TRANSLATION  ACCESS:          0 HIT:          0 MISS:          0
cpu0_ITLB PREFETCH REQUESTED:          0 ISSUED:          0 USEFUL:          0 USELESS:          0
cpu0_ITLB AVERAGE MISS LATENCY: 7.609 cycles
cpu0_L1D TOTAL        ACCESS:   49752527 HIT:   44854047 MISS:    4898480
cpu0_L1D LOAD         ACCESS:   22914819 HIT:   19859619 MISS:    3055200
cpu0_L1D RFO          ACCESS:          0 HIT:          0 MISS:          0
cpu0_L1D PREFETCH     ACCESS:          0 HIT:          0 MISS:          0
cpu0_L1D WRITE        ACCESS:   25946582 HIT:   24849260 MISS:    1097322
cpu0_L1D TRANSLATION  ACCESS:     891126 HIT:     145168 MISS:     745958
cpu0_L1D PREFETCH REQUESTED:          0 ISSUED:          0 USEFUL:          0 USELESS:          0
cpu0_L1D AVERAGE MISS LATENCY: 199.6 cycles
cpu0_L1D TOTAL        ACCESS:          0 HIT:          0 MISS:          0
cpu0_L1D LOAD         ACCESS:          0 HIT:          0 MISS:          0
cpu0_L1D RFO          ACCESS:          0 HIT:          0 MISS:          0
cpu0_L1D PREFETCH     ACCESS:          0 HIT:          0 MISS:          0
cpu0_L1D WRITE        ACCESS:          0 HIT:          0 MISS:          0
cpu0_L1D TRANSLATION  ACCESS:          0 HIT:          0 MISS:          0
cpu0_L1D PREFETCH REQUESTED:          0 ISSUED:          0 USEFUL:          0 USELESS:          0
cpu0_L1D AVERAGE MISS LATENCY: 199.6 cycles
cpu0_L1D TOTAL        ACCESS:          0 HIT:          0 MISS:          0
cpu0_L1D LOAD         ACCESS:          0 HIT:          0 MISS:          0
cpu0_L1D RFO          ACCESS:          0 HIT:          0 MISS:          0
cpu0_L1D PREFETCH     ACCESS:          0 HIT:          0 MISS:          0
cpu0_L1D WRITE        ACCESS:          0 HIT:          0 MISS:          0
cpu0_L1D TRANSLATION  ACCESS:          0 HIT:          0 MISS:          0
cpu0_L1D PREFETCH REQUESTED:          0 ISSUED:          0 USEFUL:          0 USELESS:          0
cpu0_L1D AVERAGE MISS LATENCY: 199.6 cycles
cpu0_L1D TOTAL        ACCESS:          0 HIT:          0 MISS:          0
cpu0_L1D LOAD         ACCESS:          0 HIT:          0 MISS:          0
cpu0_L1D RFO          ACCESS:          0 HIT:          0 MISS:          0
cpu0_L1D PREFETCH     ACCESS:          0 HIT:          0 MISS:          0
cpu0_L1D WRITE        ACCESS:          0 HIT:          0 MISS:          0
cpu0_L1D TRANSLATION  ACCESS:          0 HIT:          0 MISS:          0
cpu0_L1D PREFETCH REQUESTED:          0 ISSUED:          0 USEFUL:          0 USELESS:          0
cpu0_L1D AVERAGE MISS LATENCY: 199.6 cycles
cpu0_L1I TOTAL        ACCESS:   12862375 HIT:   12788452 MISS:      73923
cpu0_L1I LOAD         ACCESS:   12862375 HIT:   12788452 MISS:      73923
cpu0_L1I RFO          ACCESS:          0 HIT:          0 MISS:          0
cpu0_L1I PREFETCH     ACCESS:          0 HIT:          0 MISS:          0
cpu0_L1I WRITE        ACCESS:          0 HIT:          0 MISS:          0
cpu0_L1I TRANSLATION  ACCESS:          0 HIT:          0 MISS:          0
cpu0_L1I PREFETCH REQUESTED:          0 ISSUED:          0 USEFUL:          0 USELESS:          0
cpu0_L1I AVERAGE MISS LATENCY: 35.47 cycles
cpu0_L1I TOTAL        ACCESS:          0 HIT:          0 MISS:          0
cpu0_L1I LOAD         ACCESS:          0 HIT:          0 MISS:          0
cpu0_L1I RFO          ACCESS:          0 HIT:          0 MISS:          0
cpu0_L1I PREFETCH     ACCESS:          0 HIT:          0 MISS:          0
cpu0_L1I WRITE        ACCESS:          0 HIT:          0 MISS:          0
cpu0_L1I TRANSLATION  ACCESS:          0 HIT:          0 MISS:          0
cpu0_L1I PREFETCH REQUESTED:          0 ISSUED:          0 USEFUL:          0 USELESS:          0
cpu0_L1I AVERAGE MISS LATENCY: 35.47 cycles
cpu0_L1I TOTAL        ACCESS:          0 HIT:          0 MISS:          0
cpu0_L1I LOAD         ACCESS:          0 HIT:          0 MISS:          0
cpu0_L1I RFO          ACCESS:          0 HIT:          0 MISS:          0
cpu0_L1I PREFETCH     ACCESS:          0 HIT:          0 MISS:          0
cpu0_L1I WRITE        ACCESS:          0 HIT:          0 MISS:          0
cpu0_L1I TRANSLATION  ACCESS:          0 HIT:          0 MISS:          0
cpu0_L1I PREFETCH REQUESTED:          0 ISSUED:          0 USEFUL:          0 USELESS:          0
cpu0_L1I AVERAGE MISS LATENCY: 35.47 cycles
cpu0_L1I TOTAL        ACCESS:          0 HIT:          0 MISS:          0
cpu0_L1I LOAD         ACCESS:          0 HIT:          0 MISS:          0
cpu0_L1I RFO          ACCESS:          0 HIT:          0 MISS:          0
cpu0_L1I PREFETCH     ACCESS:          0 HIT:          0 MISS:          0
cpu0_L1I WRITE        ACCESS:          0 HIT:          0 MISS:          0
cpu0_L1I TRANSLATION  ACCESS:          0 HIT:          0 MISS:          0
cpu0_L1I PREFETCH REQUESTED:          0 ISSUED:          0 USEFUL:          0 USELESS:          0
cpu0_L1I AVERAGE MISS LATENCY: 35.47 cycles
cpu0_L2C TOTAL        ACCESS:    5050770 HIT:    2505323 MISS:    2545447
cpu0_L2C LOAD         ACCESS:    2539337 HIT:     850287 MISS:    1689050
cpu0_L2C RFO          ACCESS:     365513 HIT:     107727 MISS:     257786
cpu0_L2C PREFETCH     ACCESS:          0 HIT:          0 MISS:          0
cpu0_L2C WRITE        ACCESS:    1400733 HIT:    1398271 MISS:       2462
cpu0_L2C TRANSLATION  ACCESS:     745187 HIT:     149038 MISS:     596149
cpu0_L2C PREFETCH REQUESTED:          0 ISSUED:          0 USEFUL:          0 USELESS:          0
cpu0_L2C AVERAGE MISS LATENCY: 380.3 cycles
cpu0_L2C TOTAL        ACCESS:          0 HIT:          0 MISS:          0
cpu0_L2C LOAD         ACCESS:          0 HIT:          0 MISS:          0
cpu0_L2C RFO          ACCESS:          0 HIT:          0 MISS:          0
cpu0_L2C PREFETCH     ACCESS:          0 HIT:          0 MISS:          0
cpu0_L2C WRITE        ACCESS:          0 HIT:          0 MISS:          0
cpu0_L2C TRANSLATION  ACCESS:          0 HIT:          0 MISS:          0
cpu0_L2C PREFETCH REQUESTED:          0 ISSUED:          0 USEFUL:          0 USELESS:          0
cpu0_L2C AVERAGE MISS LATENCY: 380.3 cycles
cpu0_L2C TOTAL        ACCESS:          0 HIT:          0 MISS:          0
cpu0_L2C LOAD         ACCESS:          0 HIT:          0 MISS:          0
cpu0_L2C RFO          ACCESS:          0 HIT:          0 MISS:          0
cpu0_L2C PREFETCH     ACCESS:          0 HIT:          0 MISS:          0
cpu0_L2C WRITE        ACCESS:          0 HIT:          0 MISS:          0
cpu0_L2C TRANSLATION  ACCESS:          0 HIT:          0 MISS:          0
cpu0_L2C PREFETCH REQUESTED:          0 ISSUED:          0 USEFUL:          0 USELESS:          0
cpu0_L2C AVERAGE MISS LATENCY: 380.3 cycles
cpu0_L2C TOTAL        ACCESS:          0 HIT:          0 MISS:          0
cpu0_L2C LOAD         ACCESS:          0 HIT:          0 MISS:          0
cpu0_L2C RFO          ACCESS:          0 HIT:          0 MISS:          0
cpu0_L2C PREFETCH     ACCESS:          0 HIT:          0 MISS:          0
cpu0_L2C WRITE        ACCESS:          0 HIT:          0 MISS:          0
cpu0_L2C TRANSLATION  ACCESS:          0 HIT:          0 MISS:          0
cpu0_L2C PREFETCH REQUESTED:          0 ISSUED:          0 USEFUL:          0 USELESS:          0
cpu0_L2C AVERAGE MISS LATENCY: 380.3 cycles
cpu0_STLB TOTAL        ACCESS:    3014613 HIT:    2372184 MISS:     642429
cpu0_STLB LOAD         ACCESS:    3014613 HIT:    2372184 MISS:     642429
cpu0_STLB RFO          ACCESS:          0 HIT:          0 MISS:          0
cpu0_STLB PREFETCH     ACCESS:          0 HIT:          0 MISS:          0
cpu0_STLB WRITE        ACCESS:          0 HIT:          0 MISS:          0
cpu0_STLB TRANSLATION  ACCESS:          0 HIT:          0 MISS:          0
cpu0_STLB PREFETCH REQUESTED:          0 ISSUED:          0 USEFUL:          0 USELESS:          0
cpu0_STLB AVERAGE MISS LATENCY: 418.5 cycles
cpu0_STLB TOTAL        ACCESS:          0 HIT:          0 MISS:          0
cpu0_STLB LOAD         ACCESS:          0 HIT:          0 MISS:          0
cpu0_STLB RFO          ACCESS:          0 HIT:          0 MISS:          0
cpu0_STLB PREFETCH     ACCESS:          0 HIT:          0 MISS:          0
cpu0_STLB WRITE        ACCESS:          0 HIT:          0 MISS:          0
cpu0_STLB TRANSLATION  ACCESS:          0 HIT:          0 MISS:          0
cpu0_STLB PREFETCH REQUESTED:          0 ISSUED:          0 USEFUL:          0 USELESS:          0
cpu0_STLB AVERAGE MISS LATENCY: 418.5 cycles
cpu0_STLB TOTAL        ACCESS:          0 HIT:          0 MISS:          0
cpu0_STLB LOAD         ACCESS:          0 HIT:          0 MISS:          0
cpu0_STLB RFO          ACCESS:          0 HIT:          0 MISS:          0
cpu0_STLB PREFETCH     ACCESS:          0 HIT:          0 MISS:          0
cpu0_STLB WRITE        ACCESS:          0 HIT:          0 MISS:          0
cpu0_STLB TRANSLATION  ACCESS:          0 HIT:          0 MISS:          0
cpu0_STLB PREFETCH REQUESTED:          0 ISSUED:          0 USEFUL:          0 USELESS:          0
cpu0_STLB AVERAGE MISS LATENCY: 418.5 cycles
cpu0_STLB TOTAL        ACCESS:          0 HIT:          0 MISS:          0
cpu0_STLB LOAD         ACCESS:          0 HIT:          0 MISS:          0
cpu0_STLB RFO          ACCESS:          0 HIT:          0 MISS:          0
cpu0_STLB PREFETCH     ACCESS:          0 HIT:          0 MISS:          0
cpu0_STLB WRITE        ACCESS:          0 HIT:          0 MISS:          0
cpu0_STLB TRANSLATION  ACCESS:          0 HIT:          0 MISS:          0
cpu0_STLB PREFETCH REQUESTED:          0 ISSUED:          0 USEFUL:          0 USELESS:          0
cpu0_STLB AVERAGE MISS LATENCY: 418.5 cycles
cpu1_DTLB TOTAL        ACCESS:          0 HIT:          0 MISS:          0
cpu1_DTLB LOAD         ACCESS:          0 HIT:          0 MISS:          0
cpu1_DTLB RFO          ACCESS:          0 HIT:          0 MISS:          0
cpu1_DTLB PREFETCH     ACCESS:          0 HIT:          0 MISS:          0
cpu1_DTLB WRITE        ACCESS:          0 HIT:          0 MISS:          0
cpu1_DTLB TRANSLATION  ACCESS:          0 HIT:          0 MISS:          0
cpu1_DTLB PREFETCH REQUESTED:          0 ISSUED:          0 USEFUL:          0 USELESS:          0
cpu1_DTLB AVERAGE MISS LATENCY: 23.21 cycles
cpu1_DTLB TOTAL        ACCESS:  122454299 HIT:  122435525 MISS:      18774
cpu1_DTLB LOAD         ACCESS:  122454299 HIT:  122435525 MISS:      18774
cpu1_DTLB RFO          ACCESS:          0 HIT:          0 MISS:          0
cpu1_DTLB PREFETCH     ACCESS:          0 HIT:          0 MISS:          0
cpu1_DTLB WRITE        ACCESS:          0 HIT:          0 MISS:          0
cpu1_DTLB TRANSLATION  ACCESS:          0 HIT:          0 MISS:          0
cpu1_DTLB PREFETCH REQUESTED:          0 ISSUED:          0 USEFUL:          0 USELESS:          0
cpu1_DTLB AVERAGE MISS LATENCY: 23.21 cycles
cpu1_DTLB TOTAL        ACCESS:          0 HIT:          0 MISS:          0
cpu1_DTLB LOAD         ACCESS:          0 HIT:          0 MISS:          0
cpu1_DTLB RFO          ACCESS:          0 HIT:          0 MISS:          0
cpu1_DTLB PREFETCH     ACCESS:          0 HIT:          0 MISS:          0
cpu1_DTLB WRITE        ACCESS:          0 HIT:          0 MISS:          0
cpu1_DTLB TRANSLATION  ACCESS:          0 HIT:          0 MISS:          0
cpu1_DTLB PREFETCH REQUESTED:          0 ISSUED:          0 USEFUL:          0 USELESS:          0
cpu1_DTLB AVERAGE MISS LATENCY: 23.21 cycles
cpu1_DTLB TOTAL        ACCESS:          0 HIT:          0 MISS:          0
cpu1_DTLB LOAD         ACCESS:          0 HIT:          0 MISS:          0
cpu1_DTLB RFO          ACCESS:          0 HIT:          0 MISS:          0
cpu1_DTLB PREFETCH     ACCESS:          0 HIT:          0 MISS:          0
cpu1_DTLB WRITE        ACCESS:          0 HIT:          0 MISS:          0
cpu1_DTLB TRANSLATION  ACCESS:          0 HIT:          0 MISS:          0
cpu1_DTLB PREFETCH REQUESTED:          0 ISSUED:          0 USEFUL:          0 USELESS:          0
cpu1_DTLB AVERAGE MISS LATENCY: 23.21 cycles
cpu1_ITLB TOTAL        ACCESS:          0 HIT:          0 MISS:          0
cpu1_ITLB LOAD         ACCESS:          0 HIT:          0 MISS:          0
cpu1_ITLB RFO          ACCESS:          0 HIT:          0 MISS:          0
cpu1_ITLB PREFETCH     ACCESS:          0 HIT:          0 MISS:          0
cpu1_ITLB WRITE        ACCESS:          0 HIT:          0 MISS:          0
cpu1_ITLB TRANSLATION  ACCESS:          0 HIT:          0 MISS:          0
cpu1_ITLB PREFETCH REQUESTED:          0 ISSUED:          0 USEFUL:          0 USELESS:          0
cpu1_ITLB AVERAGE MISS LATENCY: -nan cycles
cpu1_ITLB TOTAL        ACCESS:    3138944 HIT:    3138944 MISS:          0
cpu1_ITLB LOAD         ACCESS:    3138944 HIT:    3138944 MISS:          0
cpu1_ITLB RFO          ACCESS:          0 HIT:          0 MISS:          0
cpu1_ITLB PREFETCH     ACCESS:          0 HIT:          0 MISS:          0
cpu1_ITLB WRITE        ACCESS:          0 HIT:          0 MISS:          0
cpu1_ITLB TRANSLATION  ACCESS:          0 HIT:          0 MISS:          0
cpu1_ITLB PREFETCH REQUESTED:          0 ISSUED:          0 USEFUL:          0 USELESS:          0
cpu1_ITLB AVERAGE MISS LATENCY: -nan cycles
cpu1_ITLB TOTAL        ACCESS:          0 HIT:          0 MISS:          0
cpu1_ITLB LOAD         ACCESS:          0 HIT:          0 MISS:          0
cpu1_ITLB RFO          ACCESS:          0 HIT:          0 MISS:          0
cpu1_ITLB PREFETCH     ACCESS:          0 HIT:          0 MISS:          0
cpu1_ITLB WRITE        ACCESS:          0 HIT:          0 MISS:          0
cpu1_ITLB TRANSLATION  ACCESS:          0 HIT:          0 MISS:          0
cpu1_ITLB PREFETCH REQUESTED:          0 ISSUED:          0 USEFUL:          0 USELESS:          0
cpu1_ITLB AVERAGE MISS LATENCY: -nan cycles
cpu1_ITLB TOTAL        ACCESS:          0 HIT:          0 MISS:          0
cpu1_ITLB LOAD         ACCESS:          0 HIT:          0 MISS:          0
cpu1_ITLB RFO          ACCESS:          0 HIT:          0 MISS:          0
cpu1_ITLB PREFETCH     ACCESS:          0 HIT:          0 MISS:          0
cpu1_ITLB WRITE        ACCESS:          0 HIT:          0 MISS:          0
cpu1_ITLB TRANSLATION  ACCESS:          0 HIT:          0 MISS:          0
cpu1_ITLB PREFETCH REQUESTED:          0 ISSUED:          0 USEFUL:          0 USELESS:          0
cpu1_ITLB AVERAGE MISS LATENCY: -nan cycles
cpu1_L1D TOTAL        ACCESS:          0 HIT:          0 MISS:          0
cpu1_L1D LOAD         ACCESS:          0 HIT:          0 MISS:          0
cpu1_L1D RFO          ACCESS:          0 HIT:          0 MISS:          0
cpu1_L1D PREFETCH     ACCESS:          0 HIT:          0 MISS:          0
cpu1_L1D WRITE        ACCESS:          0 HIT:          0 MISS:          0
cpu1_L1D TRANSLATION  ACCESS:          0 HIT:          0 MISS:          0
cpu1_L1D PREFETCH REQUESTED:          0 ISSUED:          0 USEFUL:          0 USELESS:          0
cpu1_L1D AVERAGE MISS LATENCY: 138.9 cycles
cpu1_L1D TOTAL        ACCESS:  187615096 HIT:  186659253 MISS:     955843
cpu1_L1D LOAD         ACCESS:  149344556 HIT:  149309447 MISS:      35109
cpu1_L1D RFO          ACCESS:          0 HIT:          0 MISS:          0
cpu1_L1D PREFETCH     ACCESS:          0 HIT:          0 MISS:          0
cpu1_L1D WRITE        ACCESS:   38268123 HIT:   37347580 MISS:     920543
cpu1_L1D TRANSLATION  ACCESS:       2417 HIT:       2226 MISS:        191
cpu1_L1D PREFETCH REQUESTED:          0 ISSUED:          0 USEFUL:          0 USELESS:          0
cpu1_L1D AVERAGE MISS LATENCY: 138.9 cycles
cpu1_L1D TOTAL        ACCESS:          0 HIT:          0 MISS:          0
cpu1_L1D LOAD         ACCESS:          0 HIT:          0 MISS:          0
cpu1_L1D RFO          ACCESS:          0 HIT:          0 MISS:          0
cpu1_L1D PREFETCH     ACCESS:          0 HIT:          0 MISS:          0
cpu1_L1D WRITE        ACCESS:          0 HIT:          0 MISS:          0
cpu1_L1D TRANSLATION  ACCESS:          0 HIT:          0 MISS:          0
cpu1_L1D PREFETCH REQUESTED:          0 ISSUED:          0 USEFUL:          0 USELESS:          0
cpu1_L1D AVERAGE MISS LATENCY: 138.9 cycles
cpu1_L1D TOTAL        ACCESS:          0 HIT:          0 MISS:          0
cpu1_L1D LOAD         ACCESS:          0 HIT:          0 MISS:          0
cpu1_L1D RFO          ACCESS:          0 HIT:          0 MISS:          0
cpu1_L1D PREFETCH     ACCESS:          0 HIT:          0 MISS:          0
cpu1_L1D WRITE        ACCESS:          0 HIT:          0 MISS:          0
cpu1_L1D TRANSLATION  ACCESS:          0 HIT:          0 MISS:          0
cpu1_L1D PREFETCH REQUESTED:          0 ISSUED:          0 USEFUL:          0 USELESS:          0
cpu1_L1D AVERAGE MISS LATENCY: 138.9 cycles
cpu1_L1I TOTAL        ACCESS:          0 HIT:          0 MISS:          0
cpu1_L1I LOAD         ACCESS:          0 HIT:          0 MISS:          0
cpu1_L1I RFO          ACCESS:          0 HIT:          0 MISS:          0
cpu1_L1I PREFETCH     ACCESS:          0 HIT:          0 MISS:          0
cpu1_L1I WRITE        ACCESS:          0 HIT:          0 MISS:          0
cpu1_L1I TRANSLATION  ACCESS:          0 HIT:          0 MISS:          0
cpu1_L1I PREFETCH REQUESTED:          0 ISSUED:          0 USEFUL:          0 USELESS:          0
cpu1_L1I AVERAGE MISS LATENCY: -nan cycles
cpu1_L1I TOTAL        ACCESS:    3827088 HIT:    3827088 MISS:          0
cpu1_L1I LOAD         ACCESS:    3827088 HIT:    3827088 MISS:          0
cpu1_L1I RFO          ACCESS:          0 HIT:          0 MISS:          0
cpu1_L1I PREFETCH     ACCESS:          0 HIT:          0 MISS:          0
cpu1_L1I WRITE        ACCESS:          0 HIT:          0 MISS:          0
cpu1_L1I TRANSLATION  ACCESS:          0 HIT:          0 MISS:          0
cpu1_L1I PREFETCH REQUESTED:          0 ISSUED:          0 USEFUL:          0 USELESS:          0
cpu1_L1I AVERAGE MISS LATENCY: -nan cycles
cpu1_L1I TOTAL        ACCESS:          0 HIT:          0 MISS:          0
cpu1_L1I LOAD         ACCESS:          0 HIT:          0 MISS:          0
cpu1_L1I RFO          ACCESS:          0 HIT:          0 MISS:          0
cpu1_L1I PREFETCH     ACCESS:          0 HIT:          0 MISS:          0
cpu1_L1I WRITE        ACCESS:          0 HIT:          0 MISS:          0
cpu1_L1I TRANSLATION  ACCESS:          0 HIT:          0 MISS:          0
cpu1_L1I PREFETCH REQUESTED:          0 ISSUED:          0 USEFUL:          0 USELESS:          0
cpu1_L1I AVERAGE MISS LATENCY: -nan cycles
cpu1_L1I TOTAL        ACCESS:          0 HIT:          0 MISS:          0
cpu1_L1I LOAD         ACCESS:          0 HIT:          0 MISS:          0
cpu1_L1I RFO          ACCESS:          0 HIT:          0 MISS:          0
cpu1_L1I PREFETCH     ACCESS:          0 HIT:          0 MISS:          0
cpu1_L1I WRITE        ACCESS:          0 HIT:          0 MISS:          0
cpu1_L1I TRANSLATION  ACCESS:          0 HIT:          0 MISS:          0
cpu1_L1I PREFETCH REQUESTED:          0 ISSUED:          0 USEFUL:          0 USELESS:          0
cpu1_L1I AVERAGE MISS LATENCY: -nan cycles
cpu1_L2C TOTAL        ACCESS:          0 HIT:          0 MISS:          0
cpu1_L2C LOAD         ACCESS:          0 HIT:          0 MISS:          0
cpu1_L2C RFO          ACCESS:          0 HIT:          0 MISS:          0
cpu1_L2C PREFETCH     ACCESS:          0 HIT:          0 MISS:          0
cpu1_L2C WRITE        ACCESS:          0 HIT:          0 MISS:          0
cpu1_L2C TRANSLATION  ACCESS:          0 HIT:          0 MISS:          0
cpu1_L2C PREFETCH REQUESTED:          0 ISSUED:          0 USEFUL:          0 USELESS:          0
cpu1_L2C AVERAGE MISS LATENCY: 898.3 cycles
cpu1_L2C TOTAL        ACCESS:     286488 HIT:     132224 MISS:     154264
cpu1_L2C LOAD         ACCESS:      27405 HIT:       1676 MISS:      25729
cpu1_L2C RFO          ACCESS:     129349 HIT:        982 MISS:     128367
cpu1_L2C PREFETCH     ACCESS:          0 HIT:          0 MISS:          0
cpu1_L2C WRITE        ACCESS:     129543 HIT:     129394 MISS:        149
cpu1_L2C TRANSLATION  ACCESS:        191 HIT:        172 MISS:         19
cpu1_L2C PREFETCH REQUESTED:          0 ISSUED:          0 USEFUL:          0 USELESS:          0
cpu1_L2C AVERAGE MISS LATENCY: 898.3 cycles
cpu1_L2C TOTAL        ACCESS:          0 HIT:          0 MISS:          0
cpu1_L2C LOAD         ACCESS:          0 HIT:          0 MISS:          0
cpu1_L2C RFO          ACCESS:          0 HIT:          0 MISS:          0
cpu1_L2C PREFETCH     ACCESS:          0 HIT:          0 MISS:          0
cpu1_L2C WRITE        ACCESS:          0 HIT:          0 MISS:          0
cpu1_L2C TRANSLATION  ACCESS:          0 HIT:          0 MISS:          0
cpu1_L2C PREFETCH REQUESTED:          0 ISSUED:          0 USEFUL:          0 USELESS:          0
cpu1_L2C AVERAGE MISS LATENCY: 898.3 cycles
cpu1_L2C TOTAL        ACCESS:          0 HIT:          0 MISS:          0
cpu1_L2C LOAD         ACCESS:          0 HIT:          0 MISS:          0
cpu1_L2C RFO          ACCESS:          0 HIT:          0 MISS:          0
cpu1_L2C PREFETCH     ACCESS:          0 HIT:          0 MISS:          0
cpu1_L2C WRITE        ACCESS:          0 HIT:          0 MISS:          0
cpu1_L2C TRANSLATION  ACCESS:          0 HIT:          0 MISS:          0
cpu1_L2C PREFETCH REQUESTED:          0 ISSUED:          0 USEFUL:          0 USELESS:          0
cpu1_L2C AVERAGE MISS LATENCY: 898.3 cycles
cpu1_STLB TOTAL        ACCESS:          0 HIT:          0 MISS:          0
cpu1_STLB LOAD         ACCESS:          0 HIT:          0 MISS:          0
cpu1_STLB RFO          ACCESS:          0 HIT:          0 MISS:          0
cpu1_STLB PREFETCH     ACCESS:          0 HIT:          0 MISS:          0
cpu1_STLB WRITE        ACCESS:          0 HIT:          0 MISS:          0
cpu1_STLB TRANSLATION  ACCESS:          0 HIT:          0 MISS:          0
cpu1_STLB PREFETCH REQUESTED:          0 ISSUED:          0 USEFUL:          0 USELESS:          0
cpu1_STLB AVERAGE MISS LATENCY: 203.5 cycles
cpu1_STLB TOTAL        ACCESS:       2552 HIT:        140 MISS:       2412
cpu1_STLB LOAD         ACCESS:       2552 HIT:        140 MISS:       2412
cpu1_STLB RFO          ACCESS:          0 HIT:          0 MISS:          0
cpu1_STLB PREFETCH     ACCESS:          0 HIT:          0 MISS:          0
cpu1_STLB WRITE        ACCESS:          0 HIT:          0 MISS:          0
cpu1_STLB TRANSLATION  ACCESS:          0 HIT:          0 MISS:          0
cpu1_STLB PREFETCH REQUESTED:          0 ISSUED:          0 USEFUL:          0 USELESS:          0
cpu1_STLB AVERAGE MISS LATENCY: 203.5 cycles
cpu1_STLB TOTAL        ACCESS:          0 HIT:          0 MISS:          0
cpu1_STLB LOAD         ACCESS:          0 HIT:          0 MISS:          0
cpu1_STLB RFO          ACCESS:          0 HIT:          0 MISS:          0
cpu1_STLB PREFETCH     ACCESS:          0 HIT:          0 MISS:          0
cpu1_STLB WRITE        ACCESS:          0 HIT:          0 MISS:          0
cpu1_STLB TRANSLATION  ACCESS:          0 HIT:          0 MISS:          0
cpu1_STLB PREFETCH REQUESTED:          0 ISSUED:          0 USEFUL:          0 USELESS:          0
cpu1_STLB AVERAGE MISS LATENCY: 203.5 cycles
cpu1_STLB TOTAL        ACCESS:          0 HIT:          0 MISS:          0
cpu1_STLB LOAD         ACCESS:          0 HIT:          0 MISS:          0
cpu1_STLB RFO          ACCESS:          0 HIT:          0 MISS:          0
cpu1_STLB PREFETCH     ACCESS:          0 HIT:          0 MISS:          0
cpu1_STLB WRITE        ACCESS:          0 HIT:          0 MISS:          0
cpu1_STLB TRANSLATION  ACCESS:          0 HIT:          0 MISS:          0
cpu1_STLB PREFETCH REQUESTED:          0 ISSUED:          0 USEFUL:          0 USELESS:          0
cpu1_STLB AVERAGE MISS LATENCY: 203.5 cycles
cpu2_DTLB TOTAL        ACCESS:          0 HIT:          0 MISS:          0
cpu2_DTLB LOAD         ACCESS:          0 HIT:          0 MISS:          0
cpu2_DTLB RFO          ACCESS:          0 HIT:          0 MISS:          0
cpu2_DTLB PREFETCH     ACCESS:          0 HIT:          0 MISS:          0
cpu2_DTLB WRITE        ACCESS:          0 HIT:          0 MISS:          0
cpu2_DTLB TRANSLATION  ACCESS:          0 HIT:          0 MISS:          0
cpu2_DTLB PREFETCH REQUESTED:          0 ISSUED:          0 USEFUL:          0 USELESS:          0
cpu2_DTLB AVERAGE MISS LATENCY: 26.04 cycles
cpu2_DTLB TOTAL        ACCESS:          0 HIT:          0 MISS:          0
cpu2_DTLB LOAD         ACCESS:          0 HIT:          0 MISS:          0
cpu2_DTLB RFO          ACCESS:          0 HIT:          0 MISS:          0
cpu2_DTLB PREFETCH     ACCESS:          0 HIT:          0 MISS:          0
cpu2_DTLB WRITE        ACCESS:          0 HIT:          0 MISS:          0
cpu2_DTLB TRANSLATION  ACCESS:          0 HIT:          0 MISS:          0
cpu2_DTLB PREFETCH REQUESTED:          0 ISSUED:          0 USEFUL:          0 USELESS:          0
cpu2_DTLB AVERAGE MISS LATENCY: 26.04 cycles
cpu2_DTLB TOTAL        ACCESS:   38844559 HIT:   38598537 MISS:     246022
cpu2_DTLB LOAD         ACCESS:   38844559 HIT:   38598537 MISS:     246022
cpu2_DTLB RFO          ACCESS:          0 HIT:          0 MISS:          0
cpu2_DTLB PREFETCH     ACCESS:          0 HIT:          0 MISS:          0
cpu2_DTLB WRITE        ACCESS:          0 HIT:          0 MISS:          0
cpu2_DTLB TRANSLATION  ACCESS:          0 HIT:          0 MISS:          0
cpu2_DTLB PREFETCH REQUESTED:          0 ISSUED:          0 USEFUL:          0 USELESS:          0
cpu2_DTLB AVERAGE MISS LATENCY: 26.04 cycles
cpu2_DTLB TOTAL        ACCESS:          0 HIT:          0 MISS:          0
cpu2_DTLB LOAD         ACCESS:          0 HIT:          0 MISS:          0
cpu2_DTLB RFO          ACCESS:          0 HIT:          0 MISS:          0
cpu2_DTLB PREFETCH     ACCESS:          0 HIT:          0 MISS:          0
cpu2_DTLB WRITE        ACCESS:          0 HIT:          0 MISS:          0
cpu2_DTLB TRANSLATION  ACCESS:          0 HIT:          0 MISS:          0
cpu2_DTLB PREFETCH REQUESTED:          0 ISSUED:          0 USEFUL:          0 USELESS:          0
cpu2_DTLB AVERAGE MISS LATENCY: 26.04 cycles
cpu2_ITLB TOTAL        ACCESS:          0 HIT:          0 MISS:          0
cpu2_ITLB LOAD         ACCESS:          0 HIT:          0 MISS:          0
cpu2_ITLB RFO          ACCESS:          0 HIT:          0 MISS:          0
cpu2_ITLB PREFETCH     ACCESS:          0 HIT:          0 MISS:          0
cpu2_ITLB WRITE        ACCESS:          0 HIT:          0 MISS:          0
cpu2_ITLB TRANSLATION  ACCESS:          0 HIT:          0 MISS:          0
cpu2_ITLB PREFETCH REQUESTED:          0 ISSUED:          0 USEFUL:          0 USELESS:          0
cpu2_ITLB AVERAGE MISS LATENCY: 280.7 cycles
cpu2_ITLB TOTAL        ACCESS:          0 HIT:          0 MISS:          0
cpu2_ITLB LOAD         ACCESS:          0 HIT:          0 MISS:          0
cpu2_ITLB RFO          ACCESS:          0 HIT:          0 MISS:          0
cpu2_ITLB PREFETCH     ACCESS:          0 HIT:          0 MISS:          0
cpu2_ITLB WRITE        ACCESS:          0 HIT:          0 MISS:          0
cpu2_ITLB TRANSLATION  ACCESS:          0 HIT:          0 MISS:          0
cpu2_ITLB PREFETCH REQUESTED:          0 ISSUED:          0 USEFUL:          0 USELESS:          0
cpu2_ITLB AVERAGE MISS LATENCY: 280.7 cycles
cpu2_ITLB TOTAL        ACCESS:       2826 HIT:       2804 MISS:         22
cpu2_ITLB LOAD         ACCESS:       2826 HIT:       2804 MISS:         22
cpu2_ITLB RFO          ACCESS:          0 HIT:          0 MISS:          0
cpu2_ITLB PREFETCH     ACCESS:          0 HIT:          0 MISS:          0
cpu2_ITLB WRITE        ACCESS:          0 HIT:          0 MISS:          0
cpu2_ITLB TRANSLATION  ACCESS:          0 HIT:          0 MISS:          0
cpu2_ITLB PREFETCH REQUESTED:          0 ISSUED:          0 USEFUL:          0 USELESS:          0
cpu2_ITLB AVERAGE MISS LATENCY: 280.7 cycles
cpu2_ITLB TOTAL        ACCESS:          0 HIT:          0 MISS:          0
cpu2_ITLB LOAD         ACCESS:          0 HIT:          0 MISS:          0
cpu2_ITLB RFO          ACCESS:          0 HIT:          0 MISS:          0
cpu2_ITLB PREFETCH     ACCESS:          0 HIT:          0 MISS:          0
cpu2_ITLB WRITE        ACCESS:          0 HIT:          0 MISS:          0
cpu2_ITLB TRANSLATION  ACCESS:          0 HIT:          0 MISS:          0
cpu2_ITLB PREFETCH REQUESTED:          0 ISSUED:          0 USEFUL:          0 USELESS:          0
cpu2_ITLB AVERAGE MISS LATENCY: 280.7 cycles
cpu2_L1D TOTAL        ACCESS:          0 HIT:          0 MISS:          0
cpu2_L1D LOAD         ACCESS:          0 HIT:          0 MISS:          0
cpu2_L1D RFO          ACCESS:          0 HIT:          0 MISS:          0
cpu2_L1D PREFETCH     ACCESS:          0 HIT:          0 MISS:          0
cpu2_L1D WRITE        ACCESS:          0 HIT:          0 MISS:          0
cpu2_L1D TRANSLATION  ACCESS:          0 HIT:          0 MISS:          0
cpu2_L1D PREFETCH REQUESTED:          0 ISSUED:          0 USEFUL:          0 USELESS:          0
cpu2_L1D AVERAGE MISS LATENCY: 138.8 cycles
cpu2_L1D TOTAL        ACCESS:          0 HIT:          0 MISS:          0
cpu2_L1D LOAD         ACCESS:          0 HIT:          0 MISS:          0
cpu2_L1D RFO          ACCESS:          0 HIT:          0 MISS:          0
cpu2_L1D PREFETCH     ACCESS:          0 HIT:          0 MISS:          0
cpu2_L1D WRITE        ACCESS:          0 HIT:          0 MISS:          0
cpu2_L1D TRANSLATION  ACCESS:          0 HIT:          0 MISS:          0
cpu2_L1D PREFETCH REQUESTED:          0 ISSUED:          0 USEFUL:          0 USELESS:          0
cpu2_L1D AVERAGE MISS LATENCY: 138.8 cycles
cpu2_L1D TOTAL        ACCESS:   56293663 HIT:   48274355 MISS:    8019308
cpu2_L1D LOAD         ACCESS:   32741811 HIT:   24749298 MISS:    7992513
cpu2_L1D RFO          ACCESS:          0 HIT:          0 MISS:          0
cpu2_L1D PREFETCH     ACCESS:          0 HIT:          0 MISS:          0
cpu2_L1D WRITE        ACCESS:   23506343 HIT:   23481367 MISS:      24976
cpu2_L1D TRANSLATION  ACCESS:      45509 HIT:      43690 MISS:       1819
cpu2_L1D PREFETCH REQUESTED:          0 ISSUED:          0 USEFUL:          0 USELESS:          0
cpu2_L1D AVERAGE MISS LATENCY: 138.8 cycles
cpu2_L1D TOTAL        ACCESS:          0 HIT:          0 MISS:          0
cpu2_L1D LOAD         ACCESS:          0 HIT:          0 MISS:          0
cpu2_L1D RFO          ACCESS:          0 HIT:          0 MISS:          0
cpu2_L1D PREFETCH     ACCESS:          0 HIT:          0 MISS:          0
cpu2_L1D WRITE        ACCESS:          0 HIT:          0 MISS:          0
cpu2_L1D TRANSLATION  ACCESS:          0 HIT:          0 MISS:          0
cpu2_L1D PREFETCH REQUESTED:          0 ISSUED:          0 USEFUL:          0 USELESS:          0
cpu2_L1D AVERAGE MISS LATENCY: 138.8 cycles
cpu2_L1I TOTAL        ACCESS:          0 HIT:          0 MISS:          0
cpu2_L1I LOAD         ACCESS:          0 HIT:          0 MISS:          0
cpu2_L1I RFO          ACCESS:          0 HIT:          0 MISS:          0
cpu2_L1I PREFETCH     ACCESS:          0 HIT:          0 MISS:          0
cpu2_L1I WRITE        ACCESS:          0 HIT:          0 MISS:          0
cpu2_L1I TRANSLATION  ACCESS:          0 HIT:          0 MISS:          0
cpu2_L1I PREFETCH REQUESTED:          0 ISSUED:          0 USEFUL:          0 USELESS:          0
cpu2_L1I AVERAGE MISS LATENCY: 209 cycles
cpu2_L1I TOTAL        ACCESS:          0 HIT:          0 MISS:          0
cpu2_L1I LOAD         ACCESS:          0 HIT:          0 MISS:          0
cpu2_L1I RFO          ACCESS:          0 HIT:          0 MISS:          0
cpu2_L1I PREFETCH     ACCESS:          0 HIT:          0 MISS:          0
cpu2_L1I WRITE        ACCESS:          0 HIT:          0 MISS:          0
cpu2_L1I TRANSLATION  ACCESS:          0 HIT:          0 MISS:          0
cpu2_L1I PREFETCH REQUESTED:          0 ISSUED:          0 USEFUL:          0 USELESS:          0
cpu2_L1I AVERAGE MISS LATENCY: 209 cycles
cpu2_L1I TOTAL        ACCESS:       3212 HIT:       2867 MISS:        345
cpu2_L1I LOAD         ACCESS:       3212 HIT:       2867 MISS:        345
cpu2_L1I RFO          ACCESS:          0 HIT:          0 MISS:          0
cpu2_L1I PREFETCH     ACCESS:          0 HIT:          0 MISS:          0
cpu2_L1I WRITE        ACCESS:          0 HIT:          0 MISS:          0
cpu2_L1I TRANSLATION  ACCESS:          0 HIT:          0 MISS:          0
cpu2_L1I PREFETCH REQUESTED:          0 ISSUED:          0 USEFUL:          0 USELESS:          0
cpu2_L1I AVERAGE MISS LATENCY: 209 cycles
cpu2_L1I TOTAL        ACCESS:          0 HIT:          0 MISS:          0
cpu2_L1I LOAD         ACCESS:          0 HIT:          0 MISS:          0
cpu2_L1I RFO          ACCESS:          0 HIT:          0 MISS:          0
cpu2_L1I PREFETCH     ACCESS:          0 HIT:          0 MISS:          0
cpu2_L1I WRITE        ACCESS:          0 HIT:          0 MISS:          0
cpu2_L1I TRANSLATION  ACCESS:          0 HIT:          0 MISS:          0
cpu2_L1I PREFETCH REQUESTED:          0 ISSUED:          0 USEFUL:          0 USELESS:          0
cpu2_L1I AVERAGE MISS LATENCY: 209 cycles
cpu2_L2C TOTAL        ACCESS:          0 HIT:          0 MISS:          0
cpu2_L2C LOAD         ACCESS:          0 HIT:          0 MISS:          0
cpu2_L2C RFO          ACCESS:          0 HIT:          0 MISS:          0
cpu2_L2C PREFETCH     ACCESS:          0 HIT:          0 MISS:          0
cpu2_L2C WRITE        ACCESS:          0 HIT:          0 MISS:          0
cpu2_L2C TRANSLATION  ACCESS:          0 HIT:          0 MISS:          0
cpu2_L2C PREFETCH REQUESTED:          0 ISSUED:          0 USEFUL:          0 USELESS:          0
cpu2_L2C AVERAGE MISS LATENCY: 421.9 cycles
cpu2_L2C TOTAL        ACCESS:          0 HIT:          0 MISS:          0
cpu2_L2C LOAD         ACCESS:          0 HIT:          0 MISS:          0
cpu2_L2C RFO          ACCESS:          0 HIT:          0 MISS:          0
cpu2_L2C PREFETCH     ACCESS:          0 HIT:          0 MISS:          0
cpu2_L2C WRITE        ACCESS:          0 HIT:          0 MISS:          0
cpu2_L2C TRANSLATION  ACCESS:          0 HIT:          0 MISS:          0
[...]
cpu2_L1I PREFETCH REQUESTED:          0 ISSUED:          0 USEFUL:          0 USELESS:          0
cpu2_L1I AVERAGE MISS LATENCY: 209 cycles
cpu2_L1I TOTAL        ACCESS:          0 HIT:          0 MISS:          0
cpu2_L1I LOAD         ACCESS:          0 HIT:          0 MISS:          0
cpu2_L1I RFO          ACCESS:          0 HIT:          0 MISS:          0
cpu2_L1I PREFETCH     ACCESS:          0 HIT:          0 MISS:          0
cpu2_L1I WRITE        ACCESS:          0 HIT:          0 MISS:          0
cpu2_L1I TRANSLATION  ACCESS:          0 HIT:          0 MISS:          0
cpu2_L1I PREFETCH REQUESTED:          0 ISSUED:          0 USEFUL:          0 USELESS:          0
cpu2_L1I AVERAGE MISS LATENCY: 209 cycles
cpu2_L2C TOTAL        ACCESS:          0 HIT:          0 MISS:          0
cpu2_L2C LOAD         ACCESS:          0 HIT:          0 MISS:          0
cpu2_L2C RFO          ACCESS:          0 HIT:          0 MISS:          0
cpu2_L2C PREFETCH     ACCESS:          0 HIT:          0 MISS:          0
cpu2_L2C WRITE        ACCESS:          0 HIT:          0 MISS:          0
cpu2_L2C TRANSLATION  ACCESS:          0 HIT:          0 MISS:          0
cpu2_L2C PREFETCH REQUESTED:          0 ISSUED:          0 USEFUL:          0 USELESS:          0
cpu2_L2C AVERAGE MISS LATENCY: 421.9 cycles
cpu2_L2C TOTAL        ACCESS:          0 HIT:          0 MISS:          0
cpu2_L2C LOAD         ACCESS:          0 HIT:          0 MISS:          0
cpu2_L2C RFO          ACCESS:          0 HIT:          0 MISS:          0
cpu2_L2C PREFETCH     ACCESS:          0 HIT:          0 MISS:          0
cpu2_L2C WRITE        ACCESS:          0 HIT:          0 MISS:          0
cpu2_L2C TRANSLATION  ACCESS:          0 HIT:          0 MISS:          0
cpu2_L2C PREFETCH REQUESTED:          0 ISSUED:          0 USEFUL:          0 USELESS:          0
cpu2_L2C AVERAGE MISS LATENCY: 421.9 cycles
cpu2_L2C TOTAL        ACCESS:    3303609 HIT:    1955715 MISS:    1347894
cpu2_L2C LOAD         ACCESS:    1982754 HIT:     635308 MISS:    1347446
cpu2_L2C RFO          ACCESS:       2296 HIT:       2114 MISS:        182
cpu2_L2C PREFETCH     ACCESS:          0 HIT:          0 MISS:          0
cpu2_L2C WRITE        ACCESS:    1317749 HIT:    1317749 MISS:          0
cpu2_L2C TRANSLATION  ACCESS:        810 HIT:        544 MISS:        266
cpu2_L2C PREFETCH REQUESTED:          0 ISSUED:          0 USEFUL:          0 USELESS:          0
cpu2_L2C AVERAGE MISS LATENCY: 421.9 cycles
cpu2_L2C TOTAL        ACCESS:          0 HIT:          0 MISS:          0
cpu2_L2C LOAD         ACCESS:          0 HIT:          0 MISS:          0
cpu2_L2C RFO          ACCESS:          0 HIT:          0 MISS:          0
cpu2_L2C PREFETCH     ACCESS:          0 HIT:          0 MISS:          0
cpu2_L2C WRITE        ACCESS:          0 HIT:          0 MISS:          0
cpu2_L2C TRANSLATION  ACCESS:          0 HIT:          0 MISS:          0
cpu2_L2C PREFETCH REQUESTED:          0 ISSUED:          0 USEFUL:          0 USELESS:          0
cpu2_L2C AVERAGE MISS LATENCY: 421.9 cycles
cpu2_STLB TOTAL        ACCESS:          0 HIT:          0 MISS:          0
cpu2_STLB LOAD         ACCESS:          0 HIT:          0 MISS:          0
cpu2_STLB RFO          ACCESS:          0 HIT:          0 MISS:          0
cpu2_STLB PREFETCH     ACCESS:          0 HIT:          0 MISS:          0
cpu2_STLB WRITE        ACCESS:          0 HIT:          0 MISS:          0
cpu2_STLB TRANSLATION  ACCESS:          0 HIT:          0 MISS:          0
cpu2_STLB PREFETCH REQUESTED:          0 ISSUED:          0 USEFUL:          0 USELESS:          0
cpu2_STLB AVERAGE MISS LATENCY: 211.6 cycles
cpu2_STLB TOTAL        ACCESS:          0 HIT:          0 MISS:          0
cpu2_STLB LOAD         ACCESS:          0 HIT:          0 MISS:          0
cpu2_STLB RFO          ACCESS:          0 HIT:          0 MISS:          0
cpu2_STLB PREFETCH     ACCESS:          0 HIT:          0 MISS:          0
cpu2_STLB WRITE        ACCESS:          0 HIT:          0 MISS:          0
cpu2_STLB TRANSLATION  ACCESS:          0 HIT:          0 MISS:          0
cpu2_STLB PREFETCH REQUESTED:          0 ISSUED:          0 USEFUL:          0 USELESS:          0
cpu2_STLB AVERAGE MISS LATENCY: 211.6 cycles
cpu2_STLB TOTAL        ACCESS:      34979 HIT:      14393 MISS:      20586
cpu2_STLB LOAD         ACCESS:      34979 HIT:      14393 MISS:      20586
cpu2_STLB RFO          ACCESS:          0 HIT:          0 MISS:          0
cpu2_STLB PREFETCH     ACCESS:          0 HIT:          0 MISS:          0
cpu2_STLB WRITE        ACCESS:          0 HIT:          0 MISS:          0
cpu2_STLB TRANSLATION  ACCESS:          0 HIT:          0 MISS:          0
cpu2_STLB PREFETCH REQUESTED:          0 ISSUED:          0 USEFUL:          0 USELESS:          0
cpu2_STLB AVERAGE MISS LATENCY: 211.6 cycles
cpu2_STLB TOTAL        ACCESS:          0 HIT:          0 MISS:          0
cpu2_STLB LOAD         ACCESS:          0 HIT:          0 MISS:          0
cpu2_STLB RFO          ACCESS:          0 HIT:          0 MISS:          0
cpu2_STLB PREFETCH     ACCESS:          0 HIT:          0 MISS:          0
cpu2_STLB WRITE        ACCESS:          0 HIT:          0 MISS:          0
cpu2_STLB TRANSLATION  ACCESS:          0 HIT:          0 MISS:          0
cpu2_STLB PREFETCH REQUESTED:          0 ISSUED:          0 USEFUL:          0 USELESS:          0
cpu2_STLB AVERAGE MISS LATENCY: 211.6 cycles
cpu3_DTLB TOTAL        ACCESS:          0 HIT:          0 MISS:          0
cpu3_DTLB LOAD         ACCESS:          0 HIT:          0 MISS:          0
cpu3_DTLB RFO          ACCESS:          0 HIT:          0 MISS:          0
cpu3_DTLB PREFETCH     ACCESS:          0 HIT:          0 MISS:          0
cpu3_DTLB WRITE        ACCESS:          0 HIT:          0 MISS:          0
cpu3_DTLB TRANSLATION  ACCESS:          0 HIT:          0 MISS:          0
cpu3_DTLB PREFETCH REQUESTED:          0 ISSUED:          0 USEFUL:          0 USELESS:          0
cpu3_DTLB AVERAGE MISS LATENCY: 7.172 cycles
cpu3_DTLB TOTAL        ACCESS:          0 HIT:          0 MISS:          0
cpu3_DTLB LOAD         ACCESS:          0 HIT:          0 MISS:          0
cpu3_DTLB RFO          ACCESS:          0 HIT:          0 MISS:          0
cpu3_DTLB PREFETCH     ACCESS:          0 HIT:          0 MISS:          0
cpu3_DTLB WRITE        ACCESS:          0 HIT:          0 MISS:          0
cpu3_DTLB TRANSLATION  ACCESS:          0 HIT:          0 MISS:          0
cpu3_DTLB PREFETCH REQUESTED:          0 ISSUED:          0 USEFUL:          0 USELESS:          0
cpu3_DTLB AVERAGE MISS LATENCY: 7.172 cycles
cpu3_DTLB TOTAL        ACCESS:          0 HIT:          0 MISS:          0
cpu3_DTLB LOAD         ACCESS:          0 HIT:          0 MISS:          0
cpu3_DTLB RFO          ACCESS:          0 HIT:          0 MISS:          0
cpu3_DTLB PREFETCH     ACCESS:          0 HIT:          0 MISS:          0
cpu3_DTLB WRITE        ACCESS:          0 HIT:          0 MISS:          0
cpu3_DTLB TRANSLATION  ACCESS:          0 HIT:          0 MISS:          0
cpu3_DTLB PREFETCH REQUESTED:          0 ISSUED:          0 USEFUL:          0 USELESS:          0
cpu3_DTLB AVERAGE MISS LATENCY: 7.172 cycles
cpu3_DTLB TOTAL        ACCESS:   21962376 HIT:   21689531 MISS:     272845
cpu3_DTLB LOAD         ACCESS:   21962376 HIT:   21689531 MISS:     272845
cpu3_DTLB RFO          ACCESS:          0 HIT:          0 MISS:          0
cpu3_DTLB PREFETCH     ACCESS:          0 HIT:          0 MISS:          0
cpu3_DTLB WRITE        ACCESS:          0 HIT:          0 MISS:          0
cpu3_DTLB TRANSLATION  ACCESS:          0 HIT:          0 MISS:          0
cpu3_DTLB PREFETCH REQUESTED:          0 ISSUED:          0 USEFUL:          0 USELESS:          0
cpu3_DTLB AVERAGE MISS LATENCY: 7.172 cycles
cpu3_ITLB TOTAL        ACCESS:          0 HIT:          0 MISS:          0
cpu3_ITLB LOAD         ACCESS:          0 HIT:          0 MISS:          0
cpu3_ITLB RFO          ACCESS:          0 HIT:          0 MISS:          0
cpu3_ITLB PREFETCH     ACCESS:          0 HIT:          0 MISS:          0
cpu3_ITLB WRITE        ACCESS:          0 HIT:          0 MISS:          0
cpu3_ITLB TRANSLATION  ACCESS:          0 HIT:          0 MISS:          0
cpu3_ITLB PREFETCH REQUESTED:          0 ISSUED:          0 USEFUL:          0 USELESS:          0
cpu3_ITLB AVERAGE MISS LATENCY: 38.84 cycles
cpu3_ITLB TOTAL        ACCESS:          0 HIT:          0 MISS:          0
cpu3_ITLB LOAD         ACCESS:          0 HIT:          0 MISS:          0
cpu3_ITLB RFO          ACCESS:          0 HIT:          0 MISS:          0
cpu3_ITLB PREFETCH     ACCESS:          0 HIT:          0 MISS:          0
cpu3_ITLB WRITE        ACCESS:          0 HIT:          0 MISS:          0
cpu3_ITLB TRANSLATION  ACCESS:          0 HIT:          0 MISS:          0
cpu3_ITLB PREFETCH REQUESTED:          0 ISSUED:          0 USEFUL:          0 USELESS:          0
cpu3_ITLB AVERAGE MISS LATENCY: 38.84 cycles
cpu3_ITLB TOTAL        ACCESS:          0 HIT:          0 MISS:          0
cpu3_ITLB LOAD         ACCESS:          0 HIT:          0 MISS:          0
cpu3_ITLB RFO          ACCESS:          0 HIT:          0 MISS:          0
cpu3_ITLB PREFETCH     ACCESS:          0 HIT:          0 MISS:          0
cpu3_ITLB WRITE        ACCESS:          0 HIT:          0 MISS:          0
cpu3_ITLB TRANSLATION  ACCESS:          0 HIT:          0 MISS:          0
cpu3_ITLB PREFETCH REQUESTED:          0 ISSUED:          0 USEFUL:          0 USELESS:          0
cpu3_ITLB AVERAGE MISS LATENCY: 38.84 cycles
cpu3_ITLB TOTAL        ACCESS:    2873060 HIT:    2869006 MISS:       4054
cpu3_ITLB LOAD         ACCESS:    2873060 HIT:    2869006 MISS:       4054
cpu3_ITLB RFO          ACCESS:          0 HIT:          0 MISS:          0
cpu3_ITLB PREFETCH     ACCESS:          0 HIT:          0 MISS:          0
cpu3_ITLB WRITE        ACCESS:          0 HIT:          0 MISS:          0
cpu3_ITLB TRANSLATION  ACCESS:          0 HIT:          0 MISS:          0
cpu3_ITLB PREFETCH REQUESTED:          0 ISSUED:          0 USEFUL:          0 USELESS:          0
cpu3_ITLB AVERAGE MISS LATENCY: 38.84 cycles
cpu3_L1D TOTAL        ACCESS:          0 HIT:          0 MISS:          0
cpu3_L1D LOAD         ACCESS:          0 HIT:          0 MISS:          0
cpu3_L1D RFO          ACCESS:          0 HIT:          0 MISS:          0
cpu3_L1D PREFETCH     ACCESS:          0 HIT:          0 MISS:          0
cpu3_L1D WRITE        ACCESS:          0 HIT:          0 MISS:          0
cpu3_L1D TRANSLATION  ACCESS:          0 HIT:          0 MISS:          0
cpu3_L1D PREFETCH REQUESTED:          0 ISSUED:          0 USEFUL:          0 USELESS:          0
cpu3_L1D AVERAGE MISS LATENCY: 232.3 cycles
cpu3_L1D TOTAL        ACCESS:          0 HIT:          0 MISS:          0
cpu3_L1D LOAD         ACCESS:          0 HIT:          0 MISS:          0
cpu3_L1D RFO          ACCESS:          0 HIT:          0 MISS:          0
cpu3_L1D PREFETCH     ACCESS:          0 HIT:          0 MISS:          0
cpu3_L1D WRITE        ACCESS:          0 HIT:          0 MISS:          0
cpu3_L1D TRANSLATION  ACCESS:          0 HIT:          0 MISS:          0
cpu3_L1D PREFETCH REQUESTED:          0 ISSUED:          0 USEFUL:          0 USELESS:          0
cpu3_L1D AVERAGE MISS LATENCY: 232.3 cycles
cpu3_L1D TOTAL        ACCESS:          0 HIT:          0 MISS:          0
cpu3_L1D LOAD         ACCESS:          0 HIT:          0 MISS:          0
cpu3_L1D RFO          ACCESS:          0 HIT:          0 MISS:          0
cpu3_L1D PREFETCH     ACCESS:          0 HIT:          0 MISS:          0
cpu3_L1D WRITE        ACCESS:          0 HIT:          0 MISS:          0
cpu3_L1D TRANSLATION  ACCESS:          0 HIT:          0 MISS:          0
cpu3_L1D PREFETCH REQUESTED:          0 ISSUED:          0 USEFUL:          0 USELESS:          0
cpu3_L1D AVERAGE MISS LATENCY: 232.3 cycles
cpu3_L1D TOTAL        ACCESS:   29213023 HIT:   23956943 MISS:    5256080
cpu3_L1D LOAD         ACCESS:   13910967 HIT:   13219088 MISS:     691879
cpu3_L1D RFO          ACCESS:          0 HIT:          0 MISS:          0
cpu3_L1D PREFETCH     ACCESS:          0 HIT:          0 MISS:          0
cpu3_L1D WRITE        ACCESS:   15282608 HIT:   10722710 MISS:    4559898
cpu3_L1D TRANSLATION  ACCESS:      19448 HIT:      15145 MISS:       4303
cpu3_L1D PREFETCH REQUESTED:          0 ISSUED:          0 USEFUL:          0 USELESS:          0
cpu3_L1D AVERAGE MISS LATENCY: 232.3 cycles
cpu3_L1I TOTAL        ACCESS:          0 HIT:          0 MISS:          0
cpu3_L1I LOAD         ACCESS:          0 HIT:          0 MISS:          0
cpu3_L1I RFO          ACCESS:          0 HIT:          0 MISS:          0
cpu3_L1I PREFETCH     ACCESS:          0 HIT:          0 MISS:          0
cpu3_L1I WRITE        ACCESS:          0 HIT:          0 MISS:          0
cpu3_L1I TRANSLATION  ACCESS:          0 HIT:          0 MISS:          0
cpu3_L1I PREFETCH REQUESTED:          0 ISSUED:          0 USEFUL:          0 USELESS:          0
cpu3_L1I AVERAGE MISS LATENCY: 87.23 cycles
cpu3_L1I TOTAL        ACCESS:          0 HIT:          0 MISS:          0
cpu3_L1I LOAD         ACCESS:          0 HIT:          0 MISS:          0
cpu3_L1I RFO          ACCESS:          0 HIT:          0 MISS:          0
cpu3_L1I PREFETCH     ACCESS:          0 HIT:          0 MISS:          0
cpu3_L1I WRITE        ACCESS:          0 HIT:          0 MISS:          0
cpu3_L1I TRANSLATION  ACCESS:          0 HIT:          0 MISS:          0
cpu3_L1I PREFETCH REQUESTED:          0 ISSUED:          0 USEFUL:          0 USELESS:          0
cpu3_L1I AVERAGE MISS LATENCY: 87.23 cycles
cpu3_L1I TOTAL        ACCESS:          0 HIT:          0 MISS:          0
cpu3_L1I LOAD         ACCESS:          0 HIT:          0 MISS:          0
cpu3_L1I RFO          ACCESS:          0 HIT:          0 MISS:          0
cpu3_L1I PREFETCH     ACCESS:          0 HIT:          0 MISS:          0
cpu3_L1I WRITE        ACCESS:          0 HIT:          0 MISS:          0
cpu3_L1I TRANSLATION  ACCESS:          0 HIT:          0 MISS:          0
cpu3_L1I PREFETCH REQUESTED:          0 ISSUED:          0 USEFUL:          0 USELESS:          0
cpu3_L1I AVERAGE MISS LATENCY: 87.23 cycles
cpu3_L1I TOTAL        ACCESS:    3640163 HIT:    3550391 MISS:      89772
cpu3_L1I LOAD         ACCESS:    3640163 HIT:    3550391 MISS:      89772
cpu3_L1I RFO          ACCESS:          0 HIT:          0 MISS:          0
cpu3_L1I PREFETCH     ACCESS:          0 HIT:          0 MISS:          0
cpu3_L1I WRITE        ACCESS:          0 HIT:          0 MISS:          0
cpu3_L1I TRANSLATION  ACCESS:          0 HIT:          0 MISS:          0
cpu3_L1I PREFETCH REQUESTED:          0 ISSUED:          0 USEFUL:          0 USELESS:          0
cpu3_L1I AVERAGE MISS LATENCY: 87.23 cycles
cpu3_L2C TOTAL        ACCESS:          0 HIT:          0 MISS:          0
cpu3_L2C LOAD         ACCESS:          0 HIT:          0 MISS:          0
cpu3_L2C RFO          ACCESS:          0 HIT:          0 MISS:          0
cpu3_L2C PREFETCH     ACCESS:          0 HIT:          0 MISS:          0
cpu3_L2C WRITE        ACCESS:          0 HIT:          0 MISS:          0
cpu3_L2C TRANSLATION  ACCESS:          0 HIT:          0 MISS:          0
cpu3_L2C PREFETCH REQUESTED:          0 ISSUED:          0 USEFUL:          0 USELESS:          0
cpu3_L2C AVERAGE MISS LATENCY: 1206 cycles
cpu3_L2C TOTAL        ACCESS:          0 HIT:          0 MISS:          0
cpu3_L2C LOAD         ACCESS:          0 HIT:          0 MISS:          0
cpu3_L2C RFO          ACCESS:          0 HIT:          0 MISS:          0
cpu3_L2C PREFETCH     ACCESS:          0 HIT:          0 MISS:          0
cpu3_L2C WRITE        ACCESS:          0 HIT:          0 MISS:          0
cpu3_L2C TRANSLATION  ACCESS:          0 HIT:          0 MISS:          0
cpu3_L2C PREFETCH REQUESTED:          0 ISSUED:          0 USEFUL:          0 USELESS:          0
cpu3_L2C AVERAGE MISS LATENCY: 1206 cycles
cpu3_L2C TOTAL        ACCESS:          0 HIT:          0 MISS:          0
cpu3_L2C LOAD         ACCESS:          0 HIT:          0 MISS:          0
cpu3_L2C RFO          ACCESS:          0 HIT:          0 MISS:          0
cpu3_L2C PREFETCH     ACCESS:          0 HIT:          0 MISS:          0
cpu3_L2C WRITE        ACCESS:          0 HIT:          0 MISS:          0
cpu3_L2C TRANSLATION  ACCESS:          0 HIT:          0 MISS:          0
cpu3_L2C PREFETCH REQUESTED:          0 ISSUED:          0 USEFUL:          0 USELESS:          0
cpu3_L2C AVERAGE MISS LATENCY: 1206 cycles
cpu3_L2C TOTAL        ACCESS:    2923295 HIT:    1841858 MISS:    1081437
cpu3_L2C LOAD         ACCESS:     532169 HIT:     419062 MISS:     113107
cpu3_L2C RFO          ACCESS:    1155751 HIT:     190539 MISS:     965212
cpu3_L2C PREFETCH     ACCESS:          0 HIT:          0 MISS:          0
cpu3_L2C WRITE        ACCESS:    1231106 HIT:    1231045 MISS:         61
cpu3_L2C TRANSLATION  ACCESS:       4269 HIT:       1212 MISS:       3057
cpu3_L2C PREFETCH REQUESTED:          0 ISSUED:          0 USEFUL:          0 USELESS:          0
cpu3_L2C AVERAGE MISS LATENCY: 1206 cycles
cpu3_STLB TOTAL        ACCESS:          0 HIT:          0 MISS:          0
cpu3_STLB LOAD         ACCESS:          0 HIT:          0 MISS:          0
cpu3_STLB RFO          ACCESS:          0 HIT:          0 MISS:          0
cpu3_STLB PREFETCH     ACCESS:          0 HIT:          0 MISS:          0
cpu3_STLB WRITE        ACCESS:          0 HIT:          0 MISS:          0
cpu3_STLB TRANSLATION  ACCESS:          0 HIT:          0 MISS:          0
cpu3_STLB PREFETCH REQUESTED:          0 ISSUED:          0 USEFUL:          0 USELESS:          0
cpu3_STLB AVERAGE MISS LATENCY: 103.7 cycles
cpu3_STLB TOTAL        ACCESS:          0 HIT:          0 MISS:          0
cpu3_STLB LOAD         ACCESS:          0 HIT:          0 MISS:          0
cpu3_STLB RFO          ACCESS:          0 HIT:          0 MISS:          0
cpu3_STLB PREFETCH     ACCESS:          0 HIT:          0 MISS:          0
cpu3_STLB WRITE        ACCESS:          0 HIT:          0 MISS:          0
cpu3_STLB TRANSLATION  ACCESS:          0 HIT:          0 MISS:          0
cpu3_STLB PREFETCH REQUESTED:          0 ISSUED:          0 USEFUL:          0 USELESS:          0
cpu3_STLB AVERAGE MISS LATENCY: 103.7 cycles
cpu3_STLB TOTAL        ACCESS:          0 HIT:          0 MISS:          0
cpu3_STLB LOAD         ACCESS:          0 HIT:          0 MISS:          0
cpu3_STLB RFO          ACCESS:          0 HIT:          0 MISS:          0
cpu3_STLB PREFETCH     ACCESS:          0 HIT:          0 MISS:          0
cpu3_STLB WRITE        ACCESS:          0 HIT:          0 MISS:          0
cpu3_STLB TRANSLATION  ACCESS:          0 HIT:          0 MISS:          0
cpu3_STLB PREFETCH REQUESTED:          0 ISSUED:          0 USEFUL:          0 USELESS:          0
cpu3_STLB AVERAGE MISS LATENCY: 103.7 cycles
cpu3_STLB TOTAL        ACCESS:      95475 HIT:      76397 MISS:      19078
cpu3_STLB LOAD         ACCESS:      95475 HIT:      76397 MISS:      19078
cpu3_STLB RFO          ACCESS:          0 HIT:          0 MISS:          0
cpu3_STLB PREFETCH     ACCESS:          0 HIT:          0 MISS:          0
cpu3_STLB WRITE        ACCESS:          0 HIT:          0 MISS:          0
cpu3_STLB TRANSLATION  ACCESS:          0 HIT:          0 MISS:          0
cpu3_STLB PREFETCH REQUESTED:          0 ISSUED:          0 USEFUL:          0 USELESS:          0
cpu3_STLB AVERAGE MISS LATENCY: 103.7 cycles

DRAM Statistics

Channel 0 RQ ROW_BUFFER_HIT:     629136
  ROW_BUFFER_MISS:    3726284
 AVG DBUS CONGESTED CYCLE: 3.984
WQ ROW_BUFFER_HIT: Channel 0 
  ROW_BUFFER_MISS:     112759
  FULL:    3419485

Channel 1 RQ ROW_BUFFER_HIT:     619151
  ROW_BUFFER_MISS:    3730923
 AVG DBUS CONGESTED CYCLE: 3.984
WQ ROW_BUFFER_HIT: Channel 1 
  ROW_BUFFER_MISS:     112823
  FULL:    3418383
