Original cmd-> /home/grads/r/rdas40/ECEN676/ChampSim/bin/multi_core/nopref_2ch --warmup_instructions=50000000 --simulation_instructions=150000000  /home/grads/r/rdas40/dpc3_traces/620.omnetpp_s-874B.champsimtrace.xz /home/grads/r/rdas40/dpc3_traces/603.bwaves_s-3699B.champsimtrace.xz /home/grads/r/rdas40/dpc3_traces/654.roms_s-842B.champsimtrace.xz /home/grads/r/rdas40/dpc3_traces/621.wrf_s-575B.champsimtrace.xz
WARNING: physical memory size is smaller than virtual memory size.
WARNING: option --warmup_instructions is deprecated. Use --warmup-instructions instead.
WARNING: option --simulation_instructions is deprecated. Use --simulation-instructions instead.

*** ChampSim Multicore Out-of-Order Simulator ***
Warmup Instructions: 50000000
Simulation Instructions: 150000000
Number of CPUs: 4
Page size: 4096

Off-chip DRAM Size: 8 GiB Channels: 2 Width: 64-bit Data Race: 3200 MT/s
Heartbeat CPU 3 instructions: 10000001 cycles: 2502764 heartbeat IPC: 3.996 cumulative IPC: 3.996 (Simulation time: 00 hr 02 min 42 sec)
Heartbeat CPU 2 instructions: 10000001 cycles: 2507044 heartbeat IPC: 3.989 cumulative IPC: 3.989 (Simulation time: 00 hr 02 min 42 sec)
Heartbeat CPU 1 instructions: 10000003 cycles: 2521875 heartbeat IPC: 3.965 cumulative IPC: 3.965 (Simulation time: 00 hr 02 min 43 sec)
Heartbeat CPU 0 instructions: 10000002 cycles: 4173206 heartbeat IPC: 2.396 cumulative IPC: 2.396 (Simulation time: 00 hr 04 min 30 sec)
Heartbeat CPU 3 instructions: 20000000 cycles: 5005381 heartbeat IPC: 3.996 cumulative IPC: 3.996 (Simulation time: 00 hr 05 min 25 sec)
Heartbeat CPU 2 instructions: 20000001 cycles: 5016684 heartbeat IPC: 3.985 cumulative IPC: 3.987 (Simulation time: 00 hr 05 min 25 sec)
Heartbeat CPU 1 instructions: 20000001 cycles: 5038237 heartbeat IPC: 3.974 cumulative IPC: 3.97 (Simulation time: 00 hr 05 min 27 sec)
Heartbeat CPU 3 instructions: 30000001 cycles: 7507708 heartbeat IPC: 3.996 cumulative IPC: 3.996 (Simulation time: 00 hr 08 min 08 sec)
Heartbeat CPU 2 instructions: 30000000 cycles: 7521052 heartbeat IPC: 3.993 cumulative IPC: 3.989 (Simulation time: 00 hr 08 min 08 sec)
Heartbeat CPU 1 instructions: 30000000 cycles: 7553266 heartbeat IPC: 3.976 cumulative IPC: 3.972 (Simulation time: 00 hr 08 min 11 sec)
Heartbeat CPU 0 instructions: 20000004 cycles: 8345935 heartbeat IPC: 2.397 cumulative IPC: 2.396 (Simulation time: 00 hr 09 min 02 sec)
Heartbeat CPU 3 instructions: 40000001 cycles: 10010384 heartbeat IPC: 3.996 cumulative IPC: 3.996 (Simulation time: 00 hr 10 min 50 sec)
Heartbeat CPU 2 instructions: 40000003 cycles: 10031603 heartbeat IPC: 3.983 cumulative IPC: 3.987 (Simulation time: 00 hr 10 min 51 sec)
Heartbeat CPU 1 instructions: 40000003 cycles: 10077277 heartbeat IPC: 3.962 cumulative IPC: 3.969 (Simulation time: 00 hr 10 min 54 sec)
Heartbeat CPU 3 instructions: 50000002 cycles: 12513112 heartbeat IPC: 3.996 cumulative IPC: 3.996 (Simulation time: 00 hr 13 min 37 sec)
Warmup finished CPU 3 instructions: 50000002 cycles: 12513113 cumulative IPC: 3.996 (Simulation time: 00 hr 13 min 37 sec)
Heartbeat CPU 0 instructions: 30000001 cycles: 12519405 heartbeat IPC: 2.396 cumulative IPC: 2.396 (Simulation time: 00 hr 13 min 37 sec)
Heartbeat CPU 2 instructions: 50000003 cycles: 12555268 heartbeat IPC: 3.962 cumulative IPC: 3.982 (Simulation time: 00 hr 13 min 40 sec)
Warmup finished CPU 2 instructions: 50000003 cycles: 12555269 cumulative IPC: 3.982 (Simulation time: 00 hr 13 min 40 sec)
Heartbeat CPU 1 instructions: 50000000 cycles: 12599099 heartbeat IPC: 3.965 cumulative IPC: 3.969 (Simulation time: 00 hr 13 min 43 sec)
Warmup finished CPU 1 instructions: 50000000 cycles: 12599100 cumulative IPC: 3.969 (Simulation time: 00 hr 13 min 43 sec)
Heartbeat CPU 3 instructions: 60000002 cycles: 15015794 heartbeat IPC: 3.996 cumulative IPC: 3.996 (Simulation time: 00 hr 16 min 19 sec)
Heartbeat CPU 2 instructions: 60000003 cycles: 15063149 heartbeat IPC: 3.987 cumulative IPC: 3.983 (Simulation time: 00 hr 16 min 22 sec)
Heartbeat CPU 1 instructions: 60000002 cycles: 15124094 heartbeat IPC: 3.96 cumulative IPC: 3.967 (Simulation time: 00 hr 16 min 26 sec)
Heartbeat CPU 0 instructions: 40000004 cycles: 16706182 heartbeat IPC: 2.388 cumulative IPC: 2.394 (Simulation time: 00 hr 18 min 09 sec)
Heartbeat CPU 3 instructions: 70000003 cycles: 17520631 heartbeat IPC: 3.992 cumulative IPC: 3.995 (Simulation time: 00 hr 19 min 03 sec)
Heartbeat CPU 2 instructions: 70000001 cycles: 17570105 heartbeat IPC: 3.989 cumulative IPC: 3.984 (Simulation time: 00 hr 19 min 06 sec)
Heartbeat CPU 1 instructions: 70000000 cycles: 17648868 heartbeat IPC: 3.961 cumulative IPC: 3.966 (Simulation time: 00 hr 19 min 11 sec)
Heartbeat CPU 3 instructions: 80000001 cycles: 20022814 heartbeat IPC: 3.997 cumulative IPC: 3.995 (Simulation time: 00 hr 21 min 48 sec)
Heartbeat CPU 2 instructions: 80000000 cycles: 20078005 heartbeat IPC: 3.987 cumulative IPC: 3.984 (Simulation time: 00 hr 21 min 51 sec)
Heartbeat CPU 1 instructions: 80000001 cycles: 20174084 heartbeat IPC: 3.96 cumulative IPC: 3.965 (Simulation time: 00 hr 21 min 57 sec)
Heartbeat CPU 0 instructions: 50000003 cycles: 20870960 heartbeat IPC: 2.401 cumulative IPC: 2.396 (Simulation time: 00 hr 22 min 43 sec)
Warmup finished CPU 0 instructions: 50000003 cycles: 20870961 cumulative IPC: 2.396 (Simulation time: 00 hr 22 min 43 sec)
Warmup complete CPU 0 instructions: 50000003 cycles: 20870961 cumulative IPC: 2.396 (Simulation time: 00 hr 22 min 43 sec)
Warmup complete CPU 1 instructions: 82758993 cycles: 20870961 cumulative IPC: 3.965 (Simulation time: 00 hr 22 min 43 sec)
Warmup complete CPU 2 instructions: 83171820 cycles: 20870961 cumulative IPC: 3.985 (Simulation time: 00 hr 22 min 43 sec)
Warmup complete CPU 3 instructions: 83392585 cycles: 20870961 cumulative IPC: 3.996 (Simulation time: 00 hr 22 min 43 sec)
Heartbeat CPU 2 instructions: 90000001 cycles: 23270118 heartbeat IPC: 3.133 cumulative IPC: 2.846 (Simulation time: 00 hr 24 min 41 sec)
Heartbeat CPU 3 instructions: 90000004 cycles: 23967103 heartbeat IPC: 2.535 cumulative IPC: 2.134 (Simulation time: 00 hr 25 min 15 sec)
Heartbeat CPU 1 instructions: 90000002 cycles: 23983140 heartbeat IPC: 2.625 cumulative IPC: 2.327 (Simulation time: 00 hr 25 min 16 sec)
Heartbeat CPU 2 instructions: 100000004 cycles: 26699323 heartbeat IPC: 2.916 cumulative IPC: 2.887 (Simulation time: 00 hr 27 min 29 sec)
Heartbeat CPU 1 instructions: 100000000 cycles: 28292688 heartbeat IPC: 2.32 cumulative IPC: 2.323 (Simulation time: 00 hr 28 min 46 sec)
Heartbeat CPU 3 instructions: 100000000 cycles: 28679909 heartbeat IPC: 2.122 cumulative IPC: 2.127 (Simulation time: 00 hr 29 min 04 sec)
Heartbeat CPU 2 instructions: 110000001 cycles: 30185384 heartbeat IPC: 2.869 cumulative IPC: 2.88 (Simulation time: 00 hr 30 min 19 sec)
Heartbeat CPU 1 instructions: 110000002 cycles: 32642373 heartbeat IPC: 2.299 cumulative IPC: 2.314 (Simulation time: 00 hr 32 min 17 sec)
Heartbeat CPU 3 instructions: 110000001 cycles: 33374257 heartbeat IPC: 2.13 cumulative IPC: 2.128 (Simulation time: 00 hr 32 min 52 sec)
Heartbeat CPU 2 instructions: 120000002 cycles: 33623967 heartbeat IPC: 2.908 cumulative IPC: 2.888 (Simulation time: 00 hr 33 min 04 sec)
Heartbeat CPU 0 instructions: 60000000 cycles: 34918616 heartbeat IPC: 0.7119 cumulative IPC: 0.7119 (Simulation time: 00 hr 34 min 07 sec)
Heartbeat CPU 1 instructions: 120000001 cycles: 36935272 heartbeat IPC: 2.329 cumulative IPC: 2.318 (Simulation time: 00 hr 35 min 44 sec)
Heartbeat CPU 2 instructions: 130000003 cycles: 37040846 heartbeat IPC: 2.927 cumulative IPC: 2.896 (Simulation time: 00 hr 35 min 49 sec)
Heartbeat CPU 3 instructions: 120000000 cycles: 37995942 heartbeat IPC: 2.164 cumulative IPC: 2.138 (Simulation time: 00 hr 36 min 35 sec)
Heartbeat CPU 2 instructions: 140000003 cycles: 40508605 heartbeat IPC: 2.884 cumulative IPC: 2.894 (Simulation time: 00 hr 38 min 37 sec)
Heartbeat CPU 1 instructions: 130000000 cycles: 41296807 heartbeat IPC: 2.293 cumulative IPC: 2.313 (Simulation time: 00 hr 39 min 16 sec)
Heartbeat CPU 3 instructions: 130000002 cycles: 42648115 heartbeat IPC: 2.15 cumulative IPC: 2.14 (Simulation time: 00 hr 40 min 20 sec)
Heartbeat CPU 2 instructions: 150000003 cycles: 43936380 heartbeat IPC: 2.917 cumulative IPC: 2.897 (Simulation time: 00 hr 41 min 23 sec)
Heartbeat CPU 1 instructions: 140000000 cycles: 45708000 heartbeat IPC: 2.267 cumulative IPC: 2.305 (Simulation time: 00 hr 42 min 49 sec)
Heartbeat CPU 2 instructions: 160000001 cycles: 47241863 heartbeat IPC: 3.025 cumulative IPC: 2.913 (Simulation time: 00 hr 44 min 06 sec)
Heartbeat CPU 3 instructions: 140000000 cycles: 47314932 heartbeat IPC: 2.143 cumulative IPC: 2.141 (Simulation time: 00 hr 44 min 09 sec)
Heartbeat CPU 0 instructions: 70000002 cycles: 48894311 heartbeat IPC: 0.7155 cumulative IPC: 0.7137 (Simulation time: 00 hr 45 min 27 sec)
Heartbeat CPU 1 instructions: 150000002 cycles: 50080239 heartbeat IPC: 2.287 cumulative IPC: 2.302 (Simulation time: 00 hr 46 min 26 sec)
Heartbeat CPU 2 instructions: 170000003 cycles: 50604440 heartbeat IPC: 2.974 cumulative IPC: 2.92 (Simulation time: 00 hr 46 min 51 sec)
Heartbeat CPU 3 instructions: 150000004 cycles: 51922719 heartbeat IPC: 2.17 cumulative IPC: 2.145 (Simulation time: 00 hr 47 min 53 sec)
Heartbeat CPU 2 instructions: 180000003 cycles: 54146748 heartbeat IPC: 2.823 cumulative IPC: 2.91 (Simulation time: 00 hr 49 min 43 sec)
Heartbeat CPU 1 instructions: 160000001 cycles: 54428571 heartbeat IPC: 2.3 cumulative IPC: 2.302 (Simulation time: 00 hr 49 min 57 sec)
Heartbeat CPU 3 instructions: 160000003 cycles: 56531305 heartbeat IPC: 2.17 cumulative IPC: 2.148 (Simulation time: 00 hr 51 min 38 sec)
Heartbeat CPU 2 instructions: 190000003 cycles: 57662996 heartbeat IPC: 2.844 cumulative IPC: 2.904 (Simulation time: 00 hr 52 min 33 sec)
Heartbeat CPU 1 instructions: 170000000 cycles: 58796528 heartbeat IPC: 2.289 cumulative IPC: 2.3 (Simulation time: 00 hr 53 min 29 sec)
Heartbeat CPU 3 instructions: 170000003 cycles: 61123857 heartbeat IPC: 2.177 cumulative IPC: 2.152 (Simulation time: 00 hr 55 min 22 sec)
Heartbeat CPU 2 instructions: 200000004 cycles: 61162377 heartbeat IPC: 2.858 cumulative IPC: 2.9 (Simulation time: 00 hr 55 min 24 sec)
Heartbeat CPU 1 instructions: 180000000 cycles: 63194347 heartbeat IPC: 2.274 cumulative IPC: 2.298 (Simulation time: 00 hr 57 min 01 sec)
Heartbeat CPU 0 instructions: 80000002 cycles: 63293177 heartbeat IPC: 0.6945 cumulative IPC: 0.7072 (Simulation time: 00 hr 57 min 05 sec)
Heartbeat CPU 2 instructions: 210000004 cycles: 64667797 heartbeat IPC: 2.853 cumulative IPC: 2.896 (Simulation time: 00 hr 58 min 12 sec)
Heartbeat CPU 3 instructions: 180000004 cycles: 65725709 heartbeat IPC: 2.173 cumulative IPC: 2.154 (Simulation time: 00 hr 59 min 03 sec)
Heartbeat CPU 1 instructions: 190000000 cycles: 67541491 heartbeat IPC: 2.3 cumulative IPC: 2.298 (Simulation time: 01 hr 00 min 31 sec)
Heartbeat CPU 2 instructions: 220000001 cycles: 68173647 heartbeat IPC: 2.852 cumulative IPC: 2.893 (Simulation time: 01 hr 01 min 02 sec)
Heartbeat CPU 3 instructions: 190000002 cycles: 70339327 heartbeat IPC: 2.167 cumulative IPC: 2.155 (Simulation time: 01 hr 02 min 46 sec)
Heartbeat CPU 2 instructions: 230000000 cycles: 71641055 heartbeat IPC: 2.884 cumulative IPC: 2.892 (Simulation time: 01 hr 03 min 49 sec)
Heartbeat CPU 1 instructions: 200000004 cycles: 71877930 heartbeat IPC: 2.306 cumulative IPC: 2.299 (Simulation time: 01 hr 04 min 01 sec)
Simulation finished CPU 2 instructions: 150000003 cycles: 51866679 cumulative IPC: 2.892 (Simulation time: 01 hr 04 min 42 sec)
Heartbeat CPU 3 instructions: 200000000 cycles: 74956715 heartbeat IPC: 2.166 cumulative IPC: 2.156 (Simulation time: 01 hr 06 min 30 sec)
Heartbeat CPU 2 instructions: 240000002 cycles: 75145364 heartbeat IPC: 2.854 cumulative IPC: 2.89 (Simulation time: 01 hr 06 min 39 sec)
Heartbeat CPU 1 instructions: 210000001 cycles: 76254236 heartbeat IPC: 2.285 cumulative IPC: 2.297 (Simulation time: 01 hr 07 min 33 sec)
Heartbeat CPU 0 instructions: 90000001 cycles: 77118509 heartbeat IPC: 0.7233 cumulative IPC: 0.7111 (Simulation time: 01 hr 08 min 14 sec)
Heartbeat CPU 2 instructions: 250000004 cycles: 78635744 heartbeat IPC: 2.865 cumulative IPC: 2.888 (Simulation time: 01 hr 09 min 29 sec)
Heartbeat CPU 3 instructions: 210000000 cycles: 79537613 heartbeat IPC: 2.183 cumulative IPC: 2.158 (Simulation time: 01 hr 10 min 12 sec)
Heartbeat CPU 1 instructions: 220000002 cycles: 80648013 heartbeat IPC: 2.276 cumulative IPC: 2.296 (Simulation time: 01 hr 11 min 06 sec)
Heartbeat CPU 2 instructions: 260000002 cycles: 82105966 heartbeat IPC: 2.882 cumulative IPC: 2.888 (Simulation time: 01 hr 12 min 18 sec)
Heartbeat CPU 3 instructions: 220000000 cycles: 84106218 heartbeat IPC: 2.189 cumulative IPC: 2.16 (Simulation time: 01 hr 13 min 55 sec)
Heartbeat CPU 1 instructions: 230000000 cycles: 85010053 heartbeat IPC: 2.293 cumulative IPC: 2.296 (Simulation time: 01 hr 14 min 41 sec)
Heartbeat CPU 2 instructions: 270000004 cycles: 85596268 heartbeat IPC: 2.865 cumulative IPC: 2.886 (Simulation time: 01 hr 15 min 10 sec)
Simulation finished CPU 1 instructions: 150000002 cycles: 65354732 cumulative IPC: 2.295 (Simulation time: 01 hr 15 min 40 sec)
Heartbeat CPU 3 instructions: 230000001 cycles: 88691810 heartbeat IPC: 2.181 cumulative IPC: 2.162 (Simulation time: 01 hr 17 min 42 sec)
Heartbeat CPU 2 instructions: 280000004 cycles: 89039269 heartbeat IPC: 2.904 cumulative IPC: 2.887 (Simulation time: 01 hr 17 min 59 sec)
Heartbeat CPU 1 instructions: 240000001 cycles: 89428472 heartbeat IPC: 2.263 cumulative IPC: 2.294 (Simulation time: 01 hr 18 min 17 sec)
Simulation finished CPU 3 instructions: 150000003 cycles: 69401661 cumulative IPC: 2.161 (Simulation time: 01 hr 18 min 58 sec)
Heartbeat CPU 0 instructions: 100000000 cycles: 91575627 heartbeat IPC: 0.6917 cumulative IPC: 0.7072 (Simulation time: 01 hr 20 min 01 sec)
Heartbeat CPU 2 instructions: 290000002 cycles: 92482853 heartbeat IPC: 2.904 cumulative IPC: 2.888 (Simulation time: 01 hr 20 min 45 sec)
Heartbeat CPU 3 instructions: 240000000 cycles: 93300209 heartbeat IPC: 2.17 cumulative IPC: 2.162 (Simulation time: 01 hr 21 min 24 sec)
Heartbeat CPU 1 instructions: 250000001 cycles: 93778361 heartbeat IPC: 2.299 cumulative IPC: 2.294 (Simulation time: 01 hr 21 min 47 sec)
Heartbeat CPU 2 instructions: 300000000 cycles: 95943272 heartbeat IPC: 2.89 cumulative IPC: 2.888 (Simulation time: 01 hr 23 min 33 sec)
Heartbeat CPU 3 instructions: 250000002 cycles: 97918679 heartbeat IPC: 2.165 cumulative IPC: 2.162 (Simulation time: 01 hr 25 min 09 sec)
Heartbeat CPU 1 instructions: 260000000 cycles: 98149904 heartbeat IPC: 2.288 cumulative IPC: 2.294 (Simulation time: 01 hr 25 min 20 sec)
Heartbeat CPU 2 instructions: 310000004 cycles: 99380884 heartbeat IPC: 2.909 cumulative IPC: 2.889 (Simulation time: 01 hr 26 min 18 sec)
Heartbeat CPU 1 instructions: 270000003 cycles: 102532055 heartbeat IPC: 2.282 cumulative IPC: 2.293 (Simulation time: 01 hr 28 min 50 sec)
Heartbeat CPU 3 instructions: 260000000 cycles: 102560537 heartbeat IPC: 2.154 cumulative IPC: 2.162 (Simulation time: 01 hr 28 min 51 sec)
Heartbeat CPU 2 instructions: 320000001 cycles: 102818403 heartbeat IPC: 2.909 cumulative IPC: 2.89 (Simulation time: 01 hr 29 min 04 sec)
Heartbeat CPU 0 instructions: 110000004 cycles: 105410344 heartbeat IPC: 0.7228 cumulative IPC: 0.7097 (Simulation time: 01 hr 31 min 12 sec)
Heartbeat CPU 2 instructions: 330000001 cycles: 106256080 heartbeat IPC: 2.909 cumulative IPC: 2.891 (Simulation time: 01 hr 31 min 52 sec)
Heartbeat CPU 1 instructions: 280000003 cycles: 106872145 heartbeat IPC: 2.304 cumulative IPC: 2.293 (Simulation time: 01 hr 32 min 23 sec)
Heartbeat CPU 3 instructions: 270000000 cycles: 107182793 heartbeat IPC: 2.163 cumulative IPC: 2.162 (Simulation time: 01 hr 32 min 37 sec)
Heartbeat CPU 2 instructions: 340000002 cycles: 109719913 heartbeat IPC: 2.887 cumulative IPC: 2.891 (Simulation time: 01 hr 34 min 40 sec)
Heartbeat CPU 1 instructions: 290000001 cycles: 111228186 heartbeat IPC: 2.296 cumulative IPC: 2.294 (Simulation time: 01 hr 35 min 52 sec)
Heartbeat CPU 3 instructions: 280000001 cycles: 111806791 heartbeat IPC: 2.163 cumulative IPC: 2.162 (Simulation time: 01 hr 36 min 20 sec)
Heartbeat CPU 2 instructions: 350000001 cycles: 113177712 heartbeat IPC: 2.892 cumulative IPC: 2.891 (Simulation time: 01 hr 37 min 27 sec)
Heartbeat CPU 1 instructions: 300000002 cycles: 115575304 heartbeat IPC: 2.3 cumulative IPC: 2.294 (Simulation time: 01 hr 39 min 23 sec)
Heartbeat CPU 3 instructions: 290000004 cycles: 116439146 heartbeat IPC: 2.159 cumulative IPC: 2.162 (Simulation time: 01 hr 40 min 05 sec)
Heartbeat CPU 2 instructions: 360000001 cycles: 116630186 heartbeat IPC: 2.896 cumulative IPC: 2.891 (Simulation time: 01 hr 40 min 14 sec)
Heartbeat CPU 0 instructions: 120000004 cycles: 119584088 heartbeat IPC: 0.7055 cumulative IPC: 0.7091 (Simulation time: 01 hr 42 min 38 sec)
Heartbeat CPU 1 instructions: 310000003 cycles: 119903012 heartbeat IPC: 2.311 cumulative IPC: 2.295 (Simulation time: 01 hr 42 min 54 sec)
Heartbeat CPU 2 instructions: 370000001 cycles: 120070886 heartbeat IPC: 2.906 cumulative IPC: 2.891 (Simulation time: 01 hr 43 min 02 sec)
Heartbeat CPU 3 instructions: 300000000 cycles: 121056679 heartbeat IPC: 2.166 cumulative IPC: 2.162 (Simulation time: 01 hr 43 min 49 sec)
Heartbeat CPU 2 instructions: 380000001 cycles: 123621272 heartbeat IPC: 2.817 cumulative IPC: 2.889 (Simulation time: 01 hr 45 min 57 sec)
Heartbeat CPU 1 instructions: 320000002 cycles: 124291364 heartbeat IPC: 2.279 cumulative IPC: 2.294 (Simulation time: 01 hr 46 min 32 sec)
Heartbeat CPU 3 instructions: 310000001 cycles: 125671168 heartbeat IPC: 2.167 cumulative IPC: 2.162 (Simulation time: 01 hr 47 min 39 sec)
Heartbeat CPU 2 instructions: 390000000 cycles: 127124820 heartbeat IPC: 2.854 cumulative IPC: 2.888 (Simulation time: 01 hr 48 min 50 sec)
Heartbeat CPU 1 instructions: 330000004 cycles: 128694725 heartbeat IPC: 2.271 cumulative IPC: 2.293 (Simulation time: 01 hr 50 min 08 sec)
Heartbeat CPU 3 instructions: 320000001 cycles: 130279594 heartbeat IPC: 2.17 cumulative IPC: 2.163 (Simulation time: 01 hr 51 min 26 sec)
Heartbeat CPU 2 instructions: 400000002 cycles: 130492404 heartbeat IPC: 2.969 cumulative IPC: 2.89 (Simulation time: 01 hr 51 min 37 sec)
Heartbeat CPU 1 instructions: 340000001 cycles: 133071064 heartbeat IPC: 2.285 cumulative IPC: 2.293 (Simulation time: 01 hr 53 min 42 sec)
Heartbeat CPU 2 instructions: 410000004 cycles: 134014768 heartbeat IPC: 2.839 cumulative IPC: 2.889 (Simulation time: 01 hr 54 min 29 sec)
Heartbeat CPU 0 instructions: 130000002 cycles: 134049716 heartbeat IPC: 0.6913 cumulative IPC: 0.7068 (Simulation time: 01 hr 54 min 30 sec)
Heartbeat CPU 3 instructions: 330000001 cycles: 134879890 heartbeat IPC: 2.174 cumulative IPC: 2.163 (Simulation time: 01 hr 55 min 11 sec)
Heartbeat CPU 2 instructions: 420000001 cycles: 137420186 heartbeat IPC: 2.936 cumulative IPC: 2.89 (Simulation time: 01 hr 57 min 19 sec)
Heartbeat CPU 1 instructions: 350000001 cycles: 137474722 heartbeat IPC: 2.271 cumulative IPC: 2.292 (Simulation time: 01 hr 57 min 21 sec)
Heartbeat CPU 3 instructions: 340000000 cycles: 140036553 heartbeat IPC: 1.939 cumulative IPC: 2.153 (Simulation time: 01 hr 59 min 28 sec)
Heartbeat CPU 2 instructions: 430000003 cycles: 141278993 heartbeat IPC: 2.591 cumulative IPC: 2.88 (Simulation time: 02 hr 00 min 28 sec)
Heartbeat CPU 1 instructions: 360000004 cycles: 141897466 heartbeat IPC: 2.261 cumulative IPC: 2.291 (Simulation time: 02 hr 00 min 59 sec)
Heartbeat CPU 2 instructions: 440000000 cycles: 144901112 heartbeat IPC: 2.761 cumulative IPC: 2.877 (Simulation time: 02 hr 03 min 23 sec)
Heartbeat CPU 3 instructions: 350000002 cycles: 145244383 heartbeat IPC: 1.92 cumulative IPC: 2.144 (Simulation time: 02 hr 03 min 39 sec)
Heartbeat CPU 1 instructions: 370000000 cycles: 146270473 heartbeat IPC: 2.287 cumulative IPC: 2.291 (Simulation time: 02 hr 04 min 28 sec)
Heartbeat CPU 0 instructions: 140000001 cycles: 148560054 heartbeat IPC: 0.6892 cumulative IPC: 0.7048 (Simulation time: 02 hr 06 min 17 sec)
Heartbeat CPU 2 instructions: 450000001 cycles: 149383335 heartbeat IPC: 2.231 cumulative IPC: 2.854 (Simulation time: 02 hr 06 min 57 sec)
Heartbeat CPU 3 instructions: 360000003 cycles: 150313867 heartbeat IPC: 1.973 cumulative IPC: 2.137 (Simulation time: 02 hr 07 min 44 sec)
Heartbeat CPU 1 instructions: 380000000 cycles: 150692426 heartbeat IPC: 2.261 cumulative IPC: 2.29 (Simulation time: 02 hr 08 min 03 sec)
Heartbeat CPU 2 instructions: 460000000 cycles: 152762613 heartbeat IPC: 2.959 cumulative IPC: 2.857 (Simulation time: 02 hr 09 min 45 sec)
Heartbeat CPU 1 instructions: 390000000 cycles: 155083923 heartbeat IPC: 2.277 cumulative IPC: 2.289 (Simulation time: 02 hr 11 min 40 sec)
Heartbeat CPU 3 instructions: 370000000 cycles: 155291968 heartbeat IPC: 2.009 cumulative IPC: 2.132 (Simulation time: 02 hr 11 min 51 sec)
Heartbeat CPU 2 instructions: 470000002 cycles: 156180544 heartbeat IPC: 2.926 cumulative IPC: 2.859 (Simulation time: 02 hr 12 min 35 sec)
Heartbeat CPU 1 instructions: 400000000 cycles: 159526847 heartbeat IPC: 2.251 cumulative IPC: 2.288 (Simulation time: 02 hr 15 min 21 sec)
Heartbeat CPU 2 instructions: 480000002 cycles: 159631067 heartbeat IPC: 2.898 cumulative IPC: 2.86 (Simulation time: 02 hr 15 min 27 sec)
Heartbeat CPU 3 instructions: 380000002 cycles: 160231208 heartbeat IPC: 2.025 cumulative IPC: 2.128 (Simulation time: 02 hr 15 min 57 sec)
Heartbeat CPU 1 instructions: 410000000 cycles: 163971677 heartbeat IPC: 2.25 cumulative IPC: 2.287 (Simulation time: 02 hr 18 min 37 sec)
Heartbeat CPU 0 instructions: 150000003 cycles: 166458118 heartbeat IPC: 0.5587 cumulative IPC: 0.6869 (Simulation time: 02 hr 20 min 08 sec)
Heartbeat CPU 1 instructions: 420000004 cycles: 168631623 heartbeat IPC: 2.146 cumulative IPC: 2.282 (Simulation time: 02 hr 21 min 33 sec)
Heartbeat CPU 3 instructions: 390000001 cycles: 172517076 heartbeat IPC: 0.8139 cumulative IPC: 2.022 (Simulation time: 02 hr 24 min 08 sec)
Heartbeat CPU 1 instructions: 430000004 cycles: 173411808 heartbeat IPC: 2.092 cumulative IPC: 2.276 (Simulation time: 02 hr 24 min 49 sec)
Heartbeat CPU 2 instructions: 490000001 cycles: 175423096 heartbeat IPC: 0.6332 cumulative IPC: 2.632 (Simulation time: 02 hr 26 min 24 sec)
Heartbeat CPU 3 instructions: 400000003 cycles: 177338709 heartbeat IPC: 2.074 cumulative IPC: 2.023 (Simulation time: 02 hr 28 min 02 sec)
Heartbeat CPU 1 instructions: 440000003 cycles: 177892529 heartbeat IPC: 2.232 cumulative IPC: 2.275 (Simulation time: 02 hr 28 min 30 sec)
Heartbeat CPU 2 instructions: 500000002 cycles: 180073454 heartbeat IPC: 2.15 cumulative IPC: 2.618 (Simulation time: 02 hr 30 min 21 sec)
Heartbeat CPU 3 instructions: 410000003 cycles: 181795873 heartbeat IPC: 2.244 cumulative IPC: 2.03 (Simulation time: 02 hr 31 min 48 sec)
Heartbeat CPU 1 instructions: 450000000 cycles: 182270578 heartbeat IPC: 2.284 cumulative IPC: 2.275 (Simulation time: 02 hr 32 min 12 sec)
Heartbeat CPU 2 instructions: 510000001 cycles: 184674576 heartbeat IPC: 2.173 cumulative IPC: 2.606 (Simulation time: 02 hr 34 min 16 sec)
Heartbeat CPU 3 instructions: 420000001 cycles: 186216332 heartbeat IPC: 2.262 cumulative IPC: 2.036 (Simulation time: 02 hr 35 min 38 sec)
Heartbeat CPU 1 instructions: 460000003 cycles: 186681986 heartbeat IPC: 2.267 cumulative IPC: 2.275 (Simulation time: 02 hr 36 min 01 sec)
Heartbeat CPU 0 instructions: 160000002 cycles: 188445773 heartbeat IPC: 0.4548 cumulative IPC: 0.6564 (Simulation time: 02 hr 37 min 31 sec)
Heartbeat CPU 2 instructions: 520000001 cycles: 189293282 heartbeat IPC: 2.165 cumulative IPC: 2.594 (Simulation time: 02 hr 38 min 13 sec)
Heartbeat CPU 3 instructions: 430000004 cycles: 190724281 heartbeat IPC: 2.218 cumulative IPC: 2.041 (Simulation time: 02 hr 39 min 25 sec)
Heartbeat CPU 1 instructions: 470000002 cycles: 191026460 heartbeat IPC: 2.302 cumulative IPC: 2.276 (Simulation time: 02 hr 39 min 40 sec)
Heartbeat CPU 2 instructions: 530000000 cycles: 193873557 heartbeat IPC: 2.183 cumulative IPC: 2.583 (Simulation time: 02 hr 42 min 06 sec)
Heartbeat CPU 3 instructions: 440000003 cycles: 195146481 heartbeat IPC: 2.261 cumulative IPC: 2.046 (Simulation time: 02 hr 43 min 13 sec)
Heartbeat CPU 1 instructions: 480000000 cycles: 195389480 heartbeat IPC: 2.292 cumulative IPC: 2.276 (Simulation time: 02 hr 43 min 25 sec)
Heartbeat CPU 2 instructions: 540000004 cycles: 198476938 heartbeat IPC: 2.172 cumulative IPC: 2.572 (Simulation time: 02 hr 46 min 03 sec)
Heartbeat CPU 3 instructions: 450000000 cycles: 199656572 heartbeat IPC: 2.217 cumulative IPC: 2.051 (Simulation time: 02 hr 47 min 04 sec)
Heartbeat CPU 1 instructions: 490000002 cycles: 199699791 heartbeat IPC: 2.32 cumulative IPC: 2.277 (Simulation time: 02 hr 47 min 06 sec)
Heartbeat CPU 2 instructions: 550000001 cycles: 203101253 heartbeat IPC: 2.162 cumulative IPC: 2.562 (Simulation time: 02 hr 50 min 00 sec)
Heartbeat CPU 0 instructions: 170000001 cycles: 203581145 heartbeat IPC: 0.6607 cumulative IPC: 0.6568 (Simulation time: 02 hr 50 min 25 sec)
Heartbeat CPU 1 instructions: 500000000 cycles: 204025684 heartbeat IPC: 2.312 cumulative IPC: 2.278 (Simulation time: 02 hr 50 min 47 sec)
Heartbeat CPU 3 instructions: 460000004 cycles: 204086162 heartbeat IPC: 2.258 cumulative IPC: 2.056 (Simulation time: 02 hr 50 min 50 sec)
Heartbeat CPU 1 instructions: 510000004 cycles: 208338615 heartbeat IPC: 2.319 cumulative IPC: 2.279 (Simulation time: 02 hr 54 min 23 sec)
Heartbeat CPU 2 instructions: 560000000 cycles: 208503206 heartbeat IPC: 1.851 cumulative IPC: 2.541 (Simulation time: 02 hr 54 min 30 sec)
Heartbeat CPU 3 instructions: 470000002 cycles: 208511671 heartbeat IPC: 2.26 cumulative IPC: 2.06 (Simulation time: 02 hr 54 min 31 sec)
Heartbeat CPU 1 instructions: 520000000 cycles: 212704698 heartbeat IPC: 2.29 cumulative IPC: 2.279 (Simulation time: 02 hr 57 min 36 sec)
Heartbeat CPU 3 instructions: 480000000 cycles: 214248245 heartbeat IPC: 1.743 cumulative IPC: 2.051 (Simulation time: 02 hr 58 min 44 sec)
Heartbeat CPU 1 instructions: 530000002 cycles: 218235157 heartbeat IPC: 1.808 cumulative IPC: 2.266 (Simulation time: 03 hr 01 min 49 sec)
Heartbeat CPU 2 instructions: 570000001 cycles: 219909670 heartbeat IPC: 0.8767 cumulative IPC: 2.446 (Simulation time: 03 hr 03 min 06 sec)
Heartbeat CPU 3 instructions: 490000002 cycles: 220860583 heartbeat IPC: 1.512 cumulative IPC: 2.033 (Simulation time: 03 hr 03 min 52 sec)
Heartbeat CPU 1 instructions: 540000003 cycles: 223392607 heartbeat IPC: 1.939 cumulative IPC: 2.258 (Simulation time: 03 hr 05 min 56 sec)
Heartbeat CPU 2 instructions: 580000001 cycles: 224815582 heartbeat IPC: 2.038 cumulative IPC: 2.436 (Simulation time: 03 hr 07 min 05 sec)
Heartbeat CPU 0 instructions: 180000001 cycles: 226032047 heartbeat IPC: 0.4454 cumulative IPC: 0.6336 (Simulation time: 03 hr 08 min 05 sec)
Heartbeat CPU 3 instructions: 500000001 cycles: 226527991 heartbeat IPC: 1.764 cumulative IPC: 2.026 (Simulation time: 03 hr 08 min 29 sec)
Heartbeat CPU 1 instructions: 550000002 cycles: 227729896 heartbeat IPC: 2.306 cumulative IPC: 2.259 (Simulation time: 03 hr 09 min 26 sec)
Heartbeat CPU 2 instructions: 590000004 cycles: 229622536 heartbeat IPC: 2.08 cumulative IPC: 2.428 (Simulation time: 03 hr 10 min 59 sec)
Heartbeat CPU 3 instructions: 510000002 cycles: 232056293 heartbeat IPC: 1.809 cumulative IPC: 2.02 (Simulation time: 03 hr 12 min 58 sec)
Heartbeat CPU 1 instructions: 560000002 cycles: 232082465 heartbeat IPC: 2.297 cumulative IPC: 2.26 (Simulation time: 03 hr 12 min 59 sec)
Heartbeat CPU 2 instructions: 600000004 cycles: 234324596 heartbeat IPC: 2.127 cumulative IPC: 2.421 (Simulation time: 03 hr 14 min 49 sec)
Heartbeat CPU 1 instructions: 570000001 cycles: 236433934 heartbeat IPC: 2.298 cumulative IPC: 2.26 (Simulation time: 03 hr 16 min 32 sec)
Heartbeat CPU 3 instructions: 520000000 cycles: 237601700 heartbeat IPC: 1.803 cumulative IPC: 2.015 (Simulation time: 03 hr 17 min 29 sec)
Heartbeat CPU 2 instructions: 610000000 cycles: 239043881 heartbeat IPC: 2.119 cumulative IPC: 2.415 (Simulation time: 03 hr 18 min 39 sec)
Heartbeat CPU 1 instructions: 580000002 cycles: 240725519 heartbeat IPC: 2.33 cumulative IPC: 2.262 (Simulation time: 03 hr 20 min 00 sec)
Heartbeat CPU 0 instructions: 190000003 cycles: 242074507 heartbeat IPC: 0.6233 cumulative IPC: 0.6329 (Simulation time: 03 hr 21 min 07 sec)
Heartbeat CPU 3 instructions: 530000003 cycles: 243085736 heartbeat IPC: 1.823 cumulative IPC: 2.01 (Simulation time: 03 hr 21 min 56 sec)
Heartbeat CPU 2 instructions: 620000002 cycles: 243734270 heartbeat IPC: 2.132 cumulative IPC: 2.409 (Simulation time: 03 hr 22 min 28 sec)
Heartbeat CPU 1 instructions: 590000002 cycles: 245014567 heartbeat IPC: 2.332 cumulative IPC: 2.263 (Simulation time: 03 hr 23 min 30 sec)
Heartbeat CPU 2 instructions: 630000004 cycles: 248415993 heartbeat IPC: 2.136 cumulative IPC: 2.403 (Simulation time: 03 hr 26 min 15 sec)
Heartbeat CPU 3 instructions: 540000000 cycles: 248569255 heartbeat IPC: 1.824 cumulative IPC: 2.005 (Simulation time: 03 hr 26 min 22 sec)
Heartbeat CPU 1 instructions: 600000000 cycles: 249284046 heartbeat IPC: 2.342 cumulative IPC: 2.264 (Simulation time: 03 hr 26 min 57 sec)
Heartbeat CPU 1 instructions: 610000000 cycles: 253622247 heartbeat IPC: 2.305 cumulative IPC: 2.265 (Simulation time: 03 hr 30 min 04 sec)
Heartbeat CPU 3 instructions: 550000002 cycles: 254421188 heartbeat IPC: 1.709 cumulative IPC: 1.998 (Simulation time: 03 hr 30 min 39 sec)
Heartbeat CPU 1 instructions: 620000001 cycles: 258005844 heartbeat IPC: 2.281 cumulative IPC: 2.266 (Simulation time: 03 hr 33 min 14 sec)
Heartbeat CPU 3 instructions: 560000001 cycles: 260449312 heartbeat IPC: 1.659 cumulative IPC: 1.989 (Simulation time: 03 hr 35 min 04 sec)
Heartbeat CPU 2 instructions: 640000002 cycles: 261060358 heartbeat IPC: 0.7909 cumulative IPC: 2.318 (Simulation time: 03 hr 35 min 33 sec)
Heartbeat CPU 1 instructions: 630000001 cycles: 262430780 heartbeat IPC: 2.26 cumulative IPC: 2.265 (Simulation time: 03 hr 36 min 40 sec)
Heartbeat CPU 0 instructions: 200000001 cycles: 263400696 heartbeat IPC: 0.4689 cumulative IPC: 0.6185 (Simulation time: 03 hr 37 min 27 sec)
Simulation finished CPU 0 instructions: 150000003 cycles: 242529737 cumulative IPC: 0.6185 (Simulation time: 03 hr 37 min 27 sec)
Simulation complete CPU 0 instructions: 150000003 cycles: 242529737 cumulative IPC: 0.6185 (Simulation time: 03 hr 37 min 27 sec)
Simulation complete CPU 1 instructions: 549467967 cycles: 242529737 cumulative IPC: 2.266 (Simulation time: 03 hr 37 min 27 sec)
Simulation complete CPU 2 instructions: 561864080 cycles: 242529737 cumulative IPC: 2.317 (Simulation time: 03 hr 37 min 27 sec)
Simulation complete CPU 3 instructions: 481906876 cycles: 242529737 cumulative IPC: 1.987 (Simulation time: 03 hr 37 min 27 sec)

ChampSim completed all CPUs

=== Simulation ===
CPU 0 runs /home/grads/r/rdas40/dpc3_traces/620.omnetpp_s-874B.champsimtrace.xzCPU 1 runs /home/grads/r/rdas40/dpc3_traces/603.bwaves_s-3699B.champsimtrace.xzCPU 2 runs /home/grads/r/rdas40/dpc3_traces/654.roms_s-842B.champsimtrace.xzCPU 3 runs /home/grads/r/rdas40/dpc3_traces/621.wrf_s-575B.champsimtrace.xz
Total Simulation Statistics (not including warmup)

CPU 0 cumulative IPC: 0.6185 instructions: 150000003 cycles: 242529737
CPU 0 Branch Prediction Accuracy: 94.9% MPKI: 10.6 Average ROB Occupancy at Mispredict: 80.23
Branch type MPKI
BRANCH_DIRECT_JUMP: 0.923
BRANCH_INDIRECT: 0.128
BRANCH_CONDITIONAL: 8.42
BRANCH_DIRECT_CALL: 0.00016
BRANCH_INDIRECT_CALL: 0.734
BRANCH_RETURN: 0.399


CPU 1 cumulative IPC: 2.266 instructions: 549467967 cycles: 242529737
CPU 1 Branch Prediction Accuracy: 90.05% MPKI: 14.45 Average ROB Occupancy at Mispredict: 30.16
Branch type MPKI
BRANCH_DIRECT_JUMP: 0.0576
BRANCH_INDIRECT: 0
BRANCH_CONDITIONAL: 14.3
BRANCH_DIRECT_CALL: 0
BRANCH_INDIRECT_CALL: 0
BRANCH_RETURN: 0.0631


CPU 2 cumulative IPC: 2.317 instructions: 561864080 cycles: 242529737
CPU 2 Branch Prediction Accuracy: 93.32% MPKI: 9.811 Average ROB Occupancy at Mispredict: 107.9
Branch type MPKI
BRANCH_DIRECT_JUMP: 0.111
BRANCH_INDIRECT: 0
BRANCH_CONDITIONAL: 6.86
BRANCH_DIRECT_CALL: 1.42e-05
BRANCH_INDIRECT_CALL: 0
BRANCH_RETURN: 2.84


CPU 3 cumulative IPC: 1.987 instructions: 481906876 cycles: 242529737
CPU 3 Branch Prediction Accuracy: 95.52% MPKI: 6.095 Average ROB Occupancy at Mispredict: 91.61
Branch type MPKI
BRANCH_DIRECT_JUMP: 0.000444
BRANCH_INDIRECT: 1.25e-05
BRANCH_CONDITIONAL: 5.84
BRANCH_DIRECT_CALL: 0.00243
BRANCH_INDIRECT_CALL: 0
BRANCH_RETURN: 0.25

LLC TOTAL        ACCESS:    3511914 HIT:    1831383 MISS:    1680531
LLC LOAD         ACCESS:    1688082 HIT:     583713 MISS:    1104369
LLC RFO          ACCESS:     257741 HIT:     154442 MISS:     103299
LLC PREFETCH     ACCESS:          0 HIT:          0 MISS:          0
LLC WRITE        ACCESS:     970172 HIT:     967054 MISS:       3118
LLC TRANSLATION  ACCESS:     595919 HIT:     126174 MISS:     469745
LLC PREFETCH REQUESTED:          0 ISSUED:          0 USEFUL:          0 USELESS:          0
LLC AVERAGE MISS LATENCY: 373.6 cycles
LLC TOTAL        ACCESS:     197596 HIT:      41099 MISS:     156497
LLC LOAD         ACCESS:      18011 HIT:          1 MISS:      18010
LLC RFO          ACCESS:      89802 HIT:         84 MISS:      89718
LLC PREFETCH     ACCESS:          0 HIT:          0 MISS:          0
LLC WRITE        ACCESS:      89769 HIT:      41011 MISS:      48758
LLC TRANSLATION  ACCESS:         14 HIT:          3 MISS:         11
LLC PREFETCH REQUESTED:          0 ISSUED:          0 USEFUL:          0 USELESS:          0
LLC AVERAGE MISS LATENCY: 373.6 cycles
LLC TOTAL        ACCESS:    1028375 HIT:     285174 MISS:     743201
LLC LOAD         ACCESS:     439941 HIT:      11355 MISS:     428586
LLC RFO          ACCESS:     292573 HIT:         58 MISS:     292515
LLC PREFETCH     ACCESS:          0 HIT:          0 MISS:          0
LLC WRITE        ACCESS:     292842 HIT:     273045 MISS:      19797
LLC TRANSLATION  ACCESS:       3019 HIT:        716 MISS:       2303
LLC PREFETCH REQUESTED:          0 ISSUED:          0 USEFUL:          0 USELESS:          0
LLC AVERAGE MISS LATENCY: 373.6 cycles
LLC TOTAL        ACCESS:     841494 HIT:     434821 MISS:     406673
LLC LOAD         ACCESS:     233252 HIT:      49081 MISS:     184171
LLC RFO          ACCESS:     289523 HIT:      84523 MISS:     205000
LLC PREFETCH     ACCESS:          0 HIT:          0 MISS:          0
LLC WRITE        ACCESS:     316717 HIT:     300440 MISS:      16277
LLC TRANSLATION  ACCESS:       2002 HIT:        777 MISS:       1225
LLC PREFETCH REQUESTED:          0 ISSUED:          0 USEFUL:          0 USELESS:          0
LLC AVERAGE MISS LATENCY: 373.6 cycles
cpu0_DTLB TOTAL        ACCESS:   38232385 HIT:   34943753 MISS:    3288632
cpu0_DTLB LOAD         ACCESS:   38232385 HIT:   34943753 MISS:    3288632
cpu0_DTLB RFO          ACCESS:          0 HIT:          0 MISS:          0
cpu0_DTLB PREFETCH     ACCESS:          0 HIT:          0 MISS:          0
cpu0_DTLB WRITE        ACCESS:          0 HIT:          0 MISS:          0
cpu0_DTLB TRANSLATION  ACCESS:          0 HIT:          0 MISS:          0
cpu0_DTLB PREFETCH REQUESTED:          0 ISSUED:          0 USEFUL:          0 USELESS:          0
cpu0_DTLB AVERAGE MISS LATENCY: 45.39 cycles
cpu0_DTLB TOTAL        ACCESS:          0 HIT:          0 MISS:          0
cpu0_DTLB LOAD         ACCESS:          0 HIT:          0 MISS:          0
cpu0_DTLB RFO          ACCESS:          0 HIT:          0 MISS:          0
cpu0_DTLB PREFETCH     ACCESS:          0 HIT:          0 MISS:          0
cpu0_DTLB WRITE        ACCESS:          0 HIT:          0 MISS:          0
cpu0_DTLB TRANSLATION  ACCESS:          0 HIT:          0 MISS:          0
cpu0_DTLB PREFETCH REQUESTED:          0 ISSUED:          0 USEFUL:          0 USELESS:          0
cpu0_DTLB AVERAGE MISS LATENCY: 45.39 cycles
cpu0_DTLB TOTAL        ACCESS:          0 HIT:          0 MISS:          0
cpu0_DTLB LOAD         ACCESS:          0 HIT:          0 MISS:          0
cpu0_DTLB RFO          ACCESS:          0 HIT:          0 MISS:          0
cpu0_DTLB PREFETCH     ACCESS:          0 HIT:          0 MISS:          0
cpu0_DTLB WRITE        ACCESS:          0 HIT:          0 MISS:          0
cpu0_DTLB TRANSLATION  ACCESS:          0 HIT:          0 MISS:          0
cpu0_DTLB PREFETCH REQUESTED:          0 ISSUED:          0 USEFUL:          0 USELESS:          0
cpu0_DTLB AVERAGE MISS LATENCY: 45.39 cycles
cpu0_DTLB TOTAL        ACCESS:          0 HIT:          0 MISS:          0
cpu0_DTLB LOAD         ACCESS:          0 HIT:          0 MISS:          0
cpu0_DTLB RFO          ACCESS:          0 HIT:          0 MISS:          0
cpu0_DTLB PREFETCH     ACCESS:          0 HIT:          0 MISS:          0
cpu0_DTLB WRITE        ACCESS:          0 HIT:          0 MISS:          0
cpu0_DTLB TRANSLATION  ACCESS:          0 HIT:          0 MISS:          0
cpu0_DTLB PREFETCH REQUESTED:          0 ISSUED:          0 USEFUL:          0 USELESS:          0
cpu0_DTLB AVERAGE MISS LATENCY: 45.39 cycles
cpu0_ITLB TOTAL        ACCESS:   10772654 HIT:   10499741 MISS:     272913
cpu0_ITLB LOAD         ACCESS:   10772654 HIT:   10499741 MISS:     272913
cpu0_ITLB RFO          ACCESS:          0 HIT:          0 MISS:          0
cpu0_ITLB PREFETCH     ACCESS:          0 HIT:          0 MISS:          0
cpu0_ITLB WRITE        ACCESS:          0 HIT:          0 MISS:          0
cpu0_ITLB TRANSLATION  ACCESS:          0 HIT:          0 MISS:          0
cpu0_ITLB PREFETCH REQUESTED:          0 ISSUED:          0 USEFUL:          0 USELESS:          0
cpu0_ITLB AVERAGE MISS LATENCY: 5.132 cycles
cpu0_ITLB TOTAL        ACCESS:          0 HIT:          0 MISS:          0
cpu0_ITLB LOAD         ACCESS:          0 HIT:          0 MISS:          0
cpu0_ITLB RFO          ACCESS:          0 HIT:          0 MISS:          0
cpu0_ITLB PREFETCH     ACCESS:          0 HIT:          0 MISS:          0
cpu0_ITLB WRITE        ACCESS:          0 HIT:          0 MISS:          0
cpu0_ITLB TRANSLATION  ACCESS:          0 HIT:          0 MISS:          0
cpu0_ITLB PREFETCH REQUESTED:          0 ISSUED:          0 USEFUL:          0 USELESS:          0
cpu0_ITLB AVERAGE MISS LATENCY: 5.132 cycles
cpu0_ITLB TOTAL        ACCESS:          0 HIT:          0 MISS:          0
cpu0_ITLB LOAD         ACCESS:          0 HIT:          0 MISS:          0
cpu0_ITLB RFO          ACCESS:          0 HIT:          0 MISS:          0
cpu0_ITLB PREFETCH     ACCESS:          0 HIT:          0 MISS:          0
cpu0_ITLB WRITE        ACCESS:          0 HIT:          0 MISS:          0
cpu0_ITLB TRANSLATION  ACCESS:          0 HIT:          0 MISS:          0
cpu0_ITLB PREFETCH REQUESTED:          0 ISSUED:          0 USEFUL:          0 USELESS:          0
cpu0_ITLB AVERAGE MISS LATENCY: 5.132 cycles
cpu0_ITLB TOTAL        ACCESS:          0 HIT:          0 MISS:          0
cpu0_ITLB LOAD         ACCESS:          0 HIT:          0 MISS:          0
cpu0_ITLB RFO          ACCESS:          0 HIT:          0 MISS:          0
cpu0_ITLB PREFETCH     ACCESS:          0 HIT:          0 MISS:          0
cpu0_ITLB WRITE        ACCESS:          0 HIT:          0 MISS:          0
cpu0_ITLB TRANSLATION  ACCESS:          0 HIT:          0 MISS:          0
cpu0_ITLB PREFETCH REQUESTED:          0 ISSUED:          0 USEFUL:          0 USELESS:          0
cpu0_ITLB AVERAGE MISS LATENCY: 5.132 cycles
cpu0_L1D TOTAL        ACCESS:   49756488 HIT:   44908530 MISS:    4847958
cpu0_L1D LOAD         ACCESS:   22893445 HIT:   19854192 MISS:    3039253
cpu0_L1D RFO          ACCESS:          0 HIT:          0 MISS:          0
cpu0_L1D PREFETCH     ACCESS:          0 HIT:          0 MISS:          0
cpu0_L1D WRITE        ACCESS:   25971864 HIT:   24909180 MISS:    1062684
cpu0_L1D TRANSLATION  ACCESS:     891179 HIT:     145158 MISS:     746021
cpu0_L1D PREFETCH REQUESTED:          0 ISSUED:          0 USEFUL:          0 USELESS:          0
cpu0_L1D AVERAGE MISS LATENCY: 91.78 cycles
cpu0_L1D TOTAL        ACCESS:          0 HIT:          0 MISS:          0
cpu0_L1D LOAD         ACCESS:          0 HIT:          0 MISS:          0
cpu0_L1D RFO          ACCESS:          0 HIT:          0 MISS:          0
cpu0_L1D PREFETCH     ACCESS:          0 HIT:          0 MISS:          0
cpu0_L1D WRITE        ACCESS:          0 HIT:          0 MISS:          0
cpu0_L1D TRANSLATION  ACCESS:          0 HIT:          0 MISS:          0
cpu0_L1D PREFETCH REQUESTED:          0 ISSUED:          0 USEFUL:          0 USELESS:          0
cpu0_L1D AVERAGE MISS LATENCY: 91.78 cycles
cpu0_L1D TOTAL        ACCESS:          0 HIT:          0 MISS:          0
cpu0_L1D LOAD         ACCESS:          0 HIT:          0 MISS:          0
cpu0_L1D RFO          ACCESS:          0 HIT:          0 MISS:          0
cpu0_L1D PREFETCH     ACCESS:          0 HIT:          0 MISS:          0
cpu0_L1D WRITE        ACCESS:          0 HIT:          0 MISS:          0
cpu0_L1D TRANSLATION  ACCESS:          0 HIT:          0 MISS:          0
cpu0_L1D PREFETCH REQUESTED:          0 ISSUED:          0 USEFUL:          0 USELESS:          0
cpu0_L1D AVERAGE MISS LATENCY: 91.78 cycles
cpu0_L1D TOTAL        ACCESS:          0 HIT:          0 MISS:          0
cpu0_L1D LOAD         ACCESS:          0 HIT:          0 MISS:          0
cpu0_L1D RFO          ACCESS:          0 HIT:          0 MISS:          0
cpu0_L1D PREFETCH     ACCESS:          0 HIT:          0 MISS:          0
cpu0_L1D WRITE        ACCESS:          0 HIT:          0 MISS:          0
cpu0_L1D TRANSLATION  ACCESS:          0 HIT:          0 MISS:          0
cpu0_L1D PREFETCH REQUESTED:          0 ISSUED:          0 USEFUL:          0 USELESS:          0
cpu0_L1D AVERAGE MISS LATENCY: 91.78 cycles
cpu0_L1I TOTAL        ACCESS:   12859551 HIT:   12785492 MISS:      74059
cpu0_L1I LOAD         ACCESS:   12859551 HIT:   12785492 MISS:      74059
cpu0_L1I RFO          ACCESS:          0 HIT:          0 MISS:          0
cpu0_L1I PREFETCH     ACCESS:          0 HIT:          0 MISS:          0
cpu0_L1I WRITE        ACCESS:          0 HIT:          0 MISS:          0
cpu0_L1I TRANSLATION  ACCESS:          0 HIT:          0 MISS:          0
cpu0_L1I PREFETCH REQUESTED:          0 ISSUED:          0 USEFUL:          0 USELESS:          0
cpu0_L1I AVERAGE MISS LATENCY: 17.3 cycles
cpu0_L1I TOTAL        ACCESS:          0 HIT:          0 MISS:          0
cpu0_L1I LOAD         ACCESS:          0 HIT:          0 MISS:          0
cpu0_L1I RFO          ACCESS:          0 HIT:          0 MISS:          0
cpu0_L1I PREFETCH     ACCESS:          0 HIT:          0 MISS:          0
cpu0_L1I WRITE        ACCESS:          0 HIT:          0 MISS:          0
cpu0_L1I TRANSLATION  ACCESS:          0 HIT:          0 MISS:          0
cpu0_L1I PREFETCH REQUESTED:          0 ISSUED:          0 USEFUL:          0 USELESS:          0
cpu0_L1I AVERAGE MISS LATENCY: 17.3 cycles
cpu0_L1I TOTAL        ACCESS:          0 HIT:          0 MISS:          0
cpu0_L1I LOAD         ACCESS:          0 HIT:          0 MISS:          0
cpu0_L1I RFO          ACCESS:          0 HIT:          0 MISS:          0
cpu0_L1I PREFETCH     ACCESS:          0 HIT:          0 MISS:          0
cpu0_L1I WRITE        ACCESS:          0 HIT:          0 MISS:          0
cpu0_L1I TRANSLATION  ACCESS:          0 HIT:          0 MISS:          0
cpu0_L1I PREFETCH REQUESTED:          0 ISSUED:          0 USEFUL:          0 USELESS:          0
cpu0_L1I AVERAGE MISS LATENCY: 17.3 cycles
cpu0_L1I TOTAL        ACCESS:          0 HIT:          0 MISS:          0
cpu0_L1I LOAD         ACCESS:          0 HIT:          0 MISS:          0
cpu0_L1I RFO          ACCESS:          0 HIT:          0 MISS:          0
cpu0_L1I PREFETCH     ACCESS:          0 HIT:          0 MISS:          0
cpu0_L1I WRITE        ACCESS:          0 HIT:          0 MISS:          0
cpu0_L1I TRANSLATION  ACCESS:          0 HIT:          0 MISS:          0
cpu0_L1I PREFETCH REQUESTED:          0 ISSUED:          0 USEFUL:          0 USELESS:          0
cpu0_L1I AVERAGE MISS LATENCY: 17.3 cycles
cpu0_L2C TOTAL        ACCESS:    5051960 HIT:    2507907 MISS:    2544053
cpu0_L2C LOAD         ACCESS:    2539508 HIT:     851426 MISS:    1688082
cpu0_L2C RFO          ACCESS:     365448 HIT:     107707 MISS:     257741
cpu0_L2C PREFETCH     ACCESS:          0 HIT:          0 MISS:          0
cpu0_L2C WRITE        ACCESS:    1401769 HIT:    1399458 MISS:       2311
cpu0_L2C TRANSLATION  ACCESS:     745235 HIT:     149316 MISS:     595919
cpu0_L2C PREFETCH REQUESTED:          0 ISSUED:          0 USEFUL:          0 USELESS:          0
cpu0_L2C AVERAGE MISS LATENCY: 166.4 cycles
cpu0_L2C TOTAL        ACCESS:          0 HIT:          0 MISS:          0
cpu0_L2C LOAD         ACCESS:          0 HIT:          0 MISS:          0
cpu0_L2C RFO          ACCESS:          0 HIT:          0 MISS:          0
cpu0_L2C PREFETCH     ACCESS:          0 HIT:          0 MISS:          0
cpu0_L2C WRITE        ACCESS:          0 HIT:          0 MISS:          0
cpu0_L2C TRANSLATION  ACCESS:          0 HIT:          0 MISS:          0
cpu0_L2C PREFETCH REQUESTED:          0 ISSUED:          0 USEFUL:          0 USELESS:          0
cpu0_L2C AVERAGE MISS LATENCY: 166.4 cycles
cpu0_L2C TOTAL        ACCESS:          0 HIT:          0 MISS:          0
cpu0_L2C LOAD         ACCESS:          0 HIT:          0 MISS:          0
cpu0_L2C RFO          ACCESS:          0 HIT:          0 MISS:          0
cpu0_L2C PREFETCH     ACCESS:          0 HIT:          0 MISS:          0
cpu0_L2C WRITE        ACCESS:          0 HIT:          0 MISS:          0
cpu0_L2C TRANSLATION  ACCESS:          0 HIT:          0 MISS:          0
cpu0_L2C PREFETCH REQUESTED:          0 ISSUED:          0 USEFUL:          0 USELESS:          0
cpu0_L2C AVERAGE MISS LATENCY: 166.4 cycles
cpu0_L2C TOTAL        ACCESS:          0 HIT:          0 MISS:          0
cpu0_L2C LOAD         ACCESS:          0 HIT:          0 MISS:          0
cpu0_L2C RFO          ACCESS:          0 HIT:          0 MISS:          0
cpu0_L2C PREFETCH     ACCESS:          0 HIT:          0 MISS:          0
cpu0_L2C WRITE        ACCESS:          0 HIT:          0 MISS:          0
cpu0_L2C TRANSLATION  ACCESS:          0 HIT:          0 MISS:          0
cpu0_L2C PREFETCH REQUESTED:          0 ISSUED:          0 USEFUL:          0 USELESS:          0
cpu0_L2C AVERAGE MISS LATENCY: 166.4 cycles
cpu0_STLB TOTAL        ACCESS:    3014241 HIT:    2371805 MISS:     642436
cpu0_STLB LOAD         ACCESS:    3014241 HIT:    2371805 MISS:     642436
cpu0_STLB RFO          ACCESS:          0 HIT:          0 MISS:          0
cpu0_STLB PREFETCH     ACCESS:          0 HIT:          0 MISS:          0
cpu0_STLB WRITE        ACCESS:          0 HIT:          0 MISS:          0
cpu0_STLB TRANSLATION  ACCESS:          0 HIT:          0 MISS:          0
cpu0_STLB PREFETCH REQUESTED:          0 ISSUED:          0 USEFUL:          0 USELESS:          0
cpu0_STLB AVERAGE MISS LATENCY: 206 cycles
cpu0_STLB TOTAL        ACCESS:          0 HIT:          0 MISS:          0
cpu0_STLB LOAD         ACCESS:          0 HIT:          0 MISS:          0
cpu0_STLB RFO          ACCESS:          0 HIT:          0 MISS:          0
cpu0_STLB PREFETCH     ACCESS:          0 HIT:          0 MISS:          0
cpu0_STLB WRITE        ACCESS:          0 HIT:          0 MISS:          0
cpu0_STLB TRANSLATION  ACCESS:          0 HIT:          0 MISS:          0
cpu0_STLB PREFETCH REQUESTED:          0 ISSUED:          0 USEFUL:          0 USELESS:          0
cpu0_STLB AVERAGE MISS LATENCY: 206 cycles
cpu0_STLB TOTAL        ACCESS:          0 HIT:          0 MISS:          0
cpu0_STLB LOAD         ACCESS:          0 HIT:          0 MISS:          0
cpu0_STLB RFO          ACCESS:          0 HIT:          0 MISS:          0
cpu0_STLB PREFETCH     ACCESS:          0 HIT:          0 MISS:          0
cpu0_STLB WRITE        ACCESS:          0 HIT:          0 MISS:          0
cpu0_STLB TRANSLATION  ACCESS:          0 HIT:          0 MISS:          0
cpu0_STLB PREFETCH REQUESTED:          0 ISSUED:          0 USEFUL:          0 USELESS:          0
cpu0_STLB AVERAGE MISS LATENCY: 206 cycles
cpu0_STLB TOTAL        ACCESS:          0 HIT:          0 MISS:          0
cpu0_STLB LOAD         ACCESS:          0 HIT:          0 MISS:          0
cpu0_STLB RFO          ACCESS:          0 HIT:          0 MISS:          0
cpu0_STLB PREFETCH     ACCESS:          0 HIT:          0 MISS:          0
cpu0_STLB WRITE        ACCESS:          0 HIT:          0 MISS:          0
cpu0_STLB TRANSLATION  ACCESS:          0 HIT:          0 MISS:          0
cpu0_STLB PREFETCH REQUESTED:          0 ISSUED:          0 USEFUL:          0 USELESS:          0
cpu0_STLB AVERAGE MISS LATENCY: 206 cycles
cpu1_DTLB TOTAL        ACCESS:          0 HIT:          0 MISS:          0
cpu1_DTLB LOAD         ACCESS:          0 HIT:          0 MISS:          0
cpu1_DTLB RFO          ACCESS:          0 HIT:          0 MISS:          0
cpu1_DTLB PREFETCH     ACCESS:          0 HIT:          0 MISS:          0
cpu1_DTLB WRITE        ACCESS:          0 HIT:          0 MISS:          0
cpu1_DTLB TRANSLATION  ACCESS:          0 HIT:          0 MISS:          0
cpu1_DTLB PREFETCH REQUESTED:          0 ISSUED:          0 USEFUL:          0 USELESS:          0
cpu1_DTLB AVERAGE MISS LATENCY: 22.25 cycles
cpu1_DTLB TOTAL        ACCESS:   67909864 HIT:   67896544 MISS:      13320
cpu1_DTLB LOAD         ACCESS:   67909864 HIT:   67896544 MISS:      13320
cpu1_DTLB RFO          ACCESS:          0 HIT:          0 MISS:          0
cpu1_DTLB PREFETCH     ACCESS:          0 HIT:          0 MISS:          0
cpu1_DTLB WRITE        ACCESS:          0 HIT:          0 MISS:          0
cpu1_DTLB TRANSLATION  ACCESS:          0 HIT:          0 MISS:          0
cpu1_DTLB PREFETCH REQUESTED:          0 ISSUED:          0 USEFUL:          0 USELESS:          0
cpu1_DTLB AVERAGE MISS LATENCY: 22.25 cycles
cpu1_DTLB TOTAL        ACCESS:          0 HIT:          0 MISS:          0
cpu1_DTLB LOAD         ACCESS:          0 HIT:          0 MISS:          0
cpu1_DTLB RFO          ACCESS:          0 HIT:          0 MISS:          0
cpu1_DTLB PREFETCH     ACCESS:          0 HIT:          0 MISS:          0
cpu1_DTLB WRITE        ACCESS:          0 HIT:          0 MISS:          0
cpu1_DTLB TRANSLATION  ACCESS:          0 HIT:          0 MISS:          0
cpu1_DTLB PREFETCH REQUESTED:          0 ISSUED:          0 USEFUL:          0 USELESS:          0
cpu1_DTLB AVERAGE MISS LATENCY: 22.25 cycles
cpu1_DTLB TOTAL        ACCESS:          0 HIT:          0 MISS:          0
cpu1_DTLB LOAD         ACCESS:          0 HIT:          0 MISS:          0
cpu1_DTLB RFO          ACCESS:          0 HIT:          0 MISS:          0
cpu1_DTLB PREFETCH     ACCESS:          0 HIT:          0 MISS:          0
cpu1_DTLB WRITE        ACCESS:          0 HIT:          0 MISS:          0
cpu1_DTLB TRANSLATION  ACCESS:          0 HIT:          0 MISS:          0
cpu1_DTLB PREFETCH REQUESTED:          0 ISSUED:          0 USEFUL:          0 USELESS:          0
cpu1_DTLB AVERAGE MISS LATENCY: 22.25 cycles
cpu1_ITLB TOTAL        ACCESS:          0 HIT:          0 MISS:          0
cpu1_ITLB LOAD         ACCESS:          0 HIT:          0 MISS:          0
cpu1_ITLB RFO          ACCESS:          0 HIT:          0 MISS:          0
cpu1_ITLB PREFETCH     ACCESS:          0 HIT:          0 MISS:          0
cpu1_ITLB WRITE        ACCESS:          0 HIT:          0 MISS:          0
cpu1_ITLB TRANSLATION  ACCESS:          0 HIT:          0 MISS:          0
cpu1_ITLB PREFETCH REQUESTED:          0 ISSUED:          0 USEFUL:          0 USELESS:          0
cpu1_ITLB AVERAGE MISS LATENCY: -nan cycles
cpu1_ITLB TOTAL        ACCESS:    1719851 HIT:    1719851 MISS:          0
cpu1_ITLB LOAD         ACCESS:    1719851 HIT:    1719851 MISS:          0
cpu1_ITLB RFO          ACCESS:          0 HIT:          0 MISS:          0
cpu1_ITLB PREFETCH     ACCESS:          0 HIT:          0 MISS:          0
cpu1_ITLB WRITE        ACCESS:          0 HIT:          0 MISS:          0
cpu1_ITLB TRANSLATION  ACCESS:          0 HIT:          0 MISS:          0
cpu1_ITLB PREFETCH REQUESTED:          0 ISSUED:          0 USEFUL:          0 USELESS:          0
cpu1_ITLB AVERAGE MISS LATENCY: -nan cycles
cpu1_ITLB TOTAL        ACCESS:          0 HIT:          0 MISS:          0
cpu1_ITLB LOAD         ACCESS:          0 HIT:          0 MISS:          0
cpu1_ITLB RFO          ACCESS:          0 HIT:          0 MISS:          0
cpu1_ITLB PREFETCH     ACCESS:          0 HIT:          0 MISS:          0
cpu1_ITLB WRITE        ACCESS:          0 HIT:          0 MISS:          0
cpu1_ITLB TRANSLATION  ACCESS:          0 HIT:          0 MISS:          0
cpu1_ITLB PREFETCH REQUESTED:          0 ISSUED:          0 USEFUL:          0 USELESS:          0
cpu1_ITLB AVERAGE MISS LATENCY: -nan cycles
cpu1_ITLB TOTAL        ACCESS:          0 HIT:          0 MISS:          0
cpu1_ITLB LOAD         ACCESS:          0 HIT:          0 MISS:          0
cpu1_ITLB RFO          ACCESS:          0 HIT:          0 MISS:          0
cpu1_ITLB PREFETCH     ACCESS:          0 HIT:          0 MISS:          0
cpu1_ITLB WRITE        ACCESS:          0 HIT:          0 MISS:          0
cpu1_ITLB TRANSLATION  ACCESS:          0 HIT:          0 MISS:          0
cpu1_ITLB PREFETCH REQUESTED:          0 ISSUED:          0 USEFUL:          0 USELESS:          0
cpu1_ITLB AVERAGE MISS LATENCY: -nan cycles
cpu1_L1D TOTAL        ACCESS:          0 HIT:          0 MISS:          0
cpu1_L1D LOAD         ACCESS:          0 HIT:          0 MISS:          0
cpu1_L1D RFO          ACCESS:          0 HIT:          0 MISS:          0
cpu1_L1D PREFETCH     ACCESS:          0 HIT:          0 MISS:          0
cpu1_L1D WRITE        ACCESS:          0 HIT:          0 MISS:          0
cpu1_L1D TRANSLATION  ACCESS:          0 HIT:          0 MISS:          0
cpu1_L1D PREFETCH REQUESTED:          0 ISSUED:          0 USEFUL:          0 USELESS:          0
cpu1_L1D AVERAGE MISS LATENCY: 59.03 cycles
cpu1_L1D TOTAL        ACCESS:  104153087 HIT:  103489842 MISS:     663245
cpu1_L1D LOAD         ACCESS:   82883150 HIT:   82859435 MISS:      23715
cpu1_L1D RFO          ACCESS:          0 HIT:          0 MISS:          0
cpu1_L1D PREFETCH     ACCESS:          0 HIT:          0 MISS:          0
cpu1_L1D WRITE        ACCESS:   21268247 HIT:   20628806 MISS:     639441
cpu1_L1D TRANSLATION  ACCESS:       1690 HIT:       1601 MISS:         89
cpu1_L1D PREFETCH REQUESTED:          0 ISSUED:          0 USEFUL:          0 USELESS:          0
cpu1_L1D AVERAGE MISS LATENCY: 59.03 cycles
cpu1_L1D TOTAL        ACCESS:          0 HIT:          0 MISS:          0
cpu1_L1D LOAD         ACCESS:          0 HIT:          0 MISS:          0
cpu1_L1D RFO          ACCESS:          0 HIT:          0 MISS:          0
cpu1_L1D PREFETCH     ACCESS:          0 HIT:          0 MISS:          0
cpu1_L1D WRITE        ACCESS:          0 HIT:          0 MISS:          0
cpu1_L1D TRANSLATION  ACCESS:          0 HIT:          0 MISS:          0
cpu1_L1D PREFETCH REQUESTED:          0 ISSUED:          0 USEFUL:          0 USELESS:          0
cpu1_L1D AVERAGE MISS LATENCY: 59.03 cycles
cpu1_L1D TOTAL        ACCESS:          0 HIT:          0 MISS:          0
cpu1_L1D LOAD         ACCESS:          0 HIT:          0 MISS:          0
cpu1_L1D RFO          ACCESS:          0 HIT:          0 MISS:          0
cpu1_L1D PREFETCH     ACCESS:          0 HIT:          0 MISS:          0
cpu1_L1D WRITE        ACCESS:          0 HIT:          0 MISS:          0
cpu1_L1D TRANSLATION  ACCESS:          0 HIT:          0 MISS:          0
cpu1_L1D PREFETCH REQUESTED:          0 ISSUED:          0 USEFUL:          0 USELESS:          0
cpu1_L1D AVERAGE MISS LATENCY: 59.03 cycles
cpu1_L1I TOTAL        ACCESS:          0 HIT:          0 MISS:          0
cpu1_L1I LOAD         ACCESS:          0 HIT:          0 MISS:          0
cpu1_L1I RFO          ACCESS:          0 HIT:          0 MISS:          0
cpu1_L1I PREFETCH     ACCESS:          0 HIT:          0 MISS:          0
cpu1_L1I WRITE        ACCESS:          0 HIT:          0 MISS:          0
cpu1_L1I TRANSLATION  ACCESS:          0 HIT:          0 MISS:          0
cpu1_L1I PREFETCH REQUESTED:          0 ISSUED:          0 USEFUL:          0 USELESS:          0
cpu1_L1I AVERAGE MISS LATENCY: -nan cycles
cpu1_L1I TOTAL        ACCESS:    2092475 HIT:    2092475 MISS:          0
cpu1_L1I LOAD         ACCESS:    2092475 HIT:    2092475 MISS:          0
cpu1_L1I RFO          ACCESS:          0 HIT:          0 MISS:          0
cpu1_L1I PREFETCH     ACCESS:          0 HIT:          0 MISS:          0
cpu1_L1I WRITE        ACCESS:          0 HIT:          0 MISS:          0
cpu1_L1I TRANSLATION  ACCESS:          0 HIT:          0 MISS:          0
cpu1_L1I PREFETCH REQUESTED:          0 ISSUED:          0 USEFUL:          0 USELESS:          0
cpu1_L1I AVERAGE MISS LATENCY: -nan cycles
cpu1_L1I TOTAL        ACCESS:          0 HIT:          0 MISS:          0
cpu1_L1I LOAD         ACCESS:          0 HIT:          0 MISS:          0
cpu1_L1I RFO          ACCESS:          0 HIT:          0 MISS:          0
cpu1_L1I PREFETCH     ACCESS:          0 HIT:          0 MISS:          0
cpu1_L1I WRITE        ACCESS:          0 HIT:          0 MISS:          0
cpu1_L1I TRANSLATION  ACCESS:          0 HIT:          0 MISS:          0
cpu1_L1I PREFETCH REQUESTED:          0 ISSUED:          0 USEFUL:          0 USELESS:          0
cpu1_L1I AVERAGE MISS LATENCY: -nan cycles
cpu1_L1I TOTAL        ACCESS:          0 HIT:          0 MISS:          0
cpu1_L1I LOAD         ACCESS:          0 HIT:          0 MISS:          0
cpu1_L1I RFO          ACCESS:          0 HIT:          0 MISS:          0
cpu1_L1I PREFETCH     ACCESS:          0 HIT:          0 MISS:          0
cpu1_L1I WRITE        ACCESS:          0 HIT:          0 MISS:          0
cpu1_L1I TRANSLATION  ACCESS:          0 HIT:          0 MISS:          0
cpu1_L1I PREFETCH REQUESTED:          0 ISSUED:          0 USEFUL:          0 USELESS:          0
cpu1_L1I AVERAGE MISS LATENCY: -nan cycles
cpu1_L2C TOTAL        ACCESS:          0 HIT:          0 MISS:          0
cpu1_L2C LOAD         ACCESS:          0 HIT:          0 MISS:          0
cpu1_L2C RFO          ACCESS:          0 HIT:          0 MISS:          0
cpu1_L2C PREFETCH     ACCESS:          0 HIT:          0 MISS:          0
cpu1_L2C WRITE        ACCESS:          0 HIT:          0 MISS:          0
cpu1_L2C TRANSLATION  ACCESS:          0 HIT:          0 MISS:          0
cpu1_L2C PREFETCH REQUESTED:          0 ISSUED:          0 USEFUL:          0 USELESS:          0
cpu1_L2C AVERAGE MISS LATENCY: 376.5 cycles
cpu1_L2C TOTAL        ACCESS:     200400 HIT:      92439 MISS:     107961
cpu1_L2C LOAD         ACCESS:      19192 HIT:       1181 MISS:      18011
cpu1_L2C RFO          ACCESS:      90488 HIT:        686 MISS:      89802
cpu1_L2C PREFETCH     ACCESS:          0 HIT:          0 MISS:          0
cpu1_L2C WRITE        ACCESS:      90631 HIT:      90497 MISS:        134
cpu1_L2C TRANSLATION  ACCESS:         89 HIT:         75 MISS:         14
cpu1_L2C PREFETCH REQUESTED:          0 ISSUED:          0 USEFUL:          0 USELESS:          0
cpu1_L2C AVERAGE MISS LATENCY: 376.5 cycles
cpu1_L2C TOTAL        ACCESS:          0 HIT:          0 MISS:          0
cpu1_L2C LOAD         ACCESS:          0 HIT:          0 MISS:          0
cpu1_L2C RFO          ACCESS:          0 HIT:          0 MISS:          0
cpu1_L2C PREFETCH     ACCESS:          0 HIT:          0 MISS:          0
cpu1_L2C WRITE        ACCESS:          0 HIT:          0 MISS:          0
cpu1_L2C TRANSLATION  ACCESS:          0 HIT:          0 MISS:          0
cpu1_L2C PREFETCH REQUESTED:          0 ISSUED:          0 USEFUL:          0 USELESS:          0
cpu1_L2C AVERAGE MISS LATENCY: 376.5 cycles
cpu1_L2C TOTAL        ACCESS:          0 HIT:          0 MISS:          0
cpu1_L2C LOAD         ACCESS:          0 HIT:          0 MISS:          0
cpu1_L2C RFO          ACCESS:          0 HIT:          0 MISS:          0
cpu1_L2C PREFETCH     ACCESS:          0 HIT:          0 MISS:          0
cpu1_L2C WRITE        ACCESS:          0 HIT:          0 MISS:          0
cpu1_L2C TRANSLATION  ACCESS:          0 HIT:          0 MISS:          0
cpu1_L2C PREFETCH REQUESTED:          0 ISSUED:          0 USEFUL:          0 USELESS:          0
cpu1_L2C AVERAGE MISS LATENCY: 376.5 cycles
cpu1_STLB TOTAL        ACCESS:          0 HIT:          0 MISS:          0
cpu1_STLB LOAD         ACCESS:          0 HIT:          0 MISS:          0
cpu1_STLB RFO          ACCESS:          0 HIT:          0 MISS:          0
cpu1_STLB PREFETCH     ACCESS:          0 HIT:          0 MISS:          0
cpu1_STLB WRITE        ACCESS:          0 HIT:          0 MISS:          0
cpu1_STLB TRANSLATION  ACCESS:          0 HIT:          0 MISS:          0
cpu1_STLB PREFETCH REQUESTED:          0 ISSUED:          0 USEFUL:          0 USELESS:          0
cpu1_STLB AVERAGE MISS LATENCY: 200.4 cycles
cpu1_STLB TOTAL        ACCESS:       1762 HIT:         75 MISS:       1687
cpu1_STLB LOAD         ACCESS:       1762 HIT:         75 MISS:       1687
cpu1_STLB RFO          ACCESS:          0 HIT:          0 MISS:          0
cpu1_STLB PREFETCH     ACCESS:          0 HIT:          0 MISS:          0
cpu1_STLB WRITE        ACCESS:          0 HIT:          0 MISS:          0
cpu1_STLB TRANSLATION  ACCESS:          0 HIT:          0 MISS:          0
cpu1_STLB PREFETCH REQUESTED:          0 ISSUED:          0 USEFUL:          0 USELESS:          0
cpu1_STLB AVERAGE MISS LATENCY: 200.4 cycles
cpu1_STLB TOTAL        ACCESS:          0 HIT:          0 MISS:          0
cpu1_STLB LOAD         ACCESS:          0 HIT:          0 MISS:          0
cpu1_STLB RFO          ACCESS:          0 HIT:          0 MISS:          0
cpu1_STLB PREFETCH     ACCESS:          0 HIT:          0 MISS:          0
cpu1_STLB WRITE        ACCESS:          0 HIT:          0 MISS:          0
cpu1_STLB TRANSLATION  ACCESS:          0 HIT:          0 MISS:          0
cpu1_STLB PREFETCH REQUESTED:          0 ISSUED:          0 USEFUL:          0 USELESS:          0
cpu1_STLB AVERAGE MISS LATENCY: 200.4 cycles
cpu1_STLB TOTAL        ACCESS:          0 HIT:          0 MISS:          0
cpu1_STLB LOAD         ACCESS:          0 HIT:          0 MISS:          0
cpu1_STLB RFO          ACCESS:          0 HIT:          0 MISS:          0
cpu1_STLB PREFETCH     ACCESS:          0 HIT:          0 MISS:          0
cpu1_STLB WRITE        ACCESS:          0 HIT:          0 MISS:          0
cpu1_STLB TRANSLATION  ACCESS:          0 HIT:          0 MISS:          0
cpu1_STLB PREFETCH REQUESTED:          0 ISSUED:          0 USEFUL:          0 USELESS:          0
cpu1_STLB AVERAGE MISS LATENCY: 200.4 cycles
cpu2_DTLB TOTAL        ACCESS:          0 HIT:          0 MISS:          0
cpu2_DTLB LOAD         ACCESS:          0 HIT:          0 MISS:          0
cpu2_DTLB RFO          ACCESS:          0 HIT:          0 MISS:          0
cpu2_DTLB PREFETCH     ACCESS:          0 HIT:          0 MISS:          0
cpu2_DTLB WRITE        ACCESS:          0 HIT:          0 MISS:          0
cpu2_DTLB TRANSLATION  ACCESS:          0 HIT:          0 MISS:          0
cpu2_DTLB PREFETCH REQUESTED:          0 ISSUED:          0 USEFUL:          0 USELESS:          0
cpu2_DTLB AVERAGE MISS LATENCY: 20.38 cycles
cpu2_DTLB TOTAL        ACCESS:          0 HIT:          0 MISS:          0
cpu2_DTLB LOAD         ACCESS:          0 HIT:          0 MISS:          0
cpu2_DTLB RFO          ACCESS:          0 HIT:          0 MISS:          0
cpu2_DTLB PREFETCH     ACCESS:          0 HIT:          0 MISS:          0
cpu2_DTLB WRITE        ACCESS:          0 HIT:          0 MISS:          0
cpu2_DTLB TRANSLATION  ACCESS:          0 HIT:          0 MISS:          0
cpu2_DTLB PREFETCH REQUESTED:          0 ISSUED:          0 USEFUL:          0 USELESS:          0
cpu2_DTLB AVERAGE MISS LATENCY: 20.38 cycles
cpu2_DTLB TOTAL        ACCESS:   74728493 HIT:   74642957 MISS:      85536
cpu2_DTLB LOAD         ACCESS:   74728493 HIT:   74642957 MISS:      85536
cpu2_DTLB RFO          ACCESS:          0 HIT:          0 MISS:          0
cpu2_DTLB PREFETCH     ACCESS:          0 HIT:          0 MISS:          0
cpu2_DTLB WRITE        ACCESS:          0 HIT:          0 MISS:          0
cpu2_DTLB TRANSLATION  ACCESS:          0 HIT:          0 MISS:          0
cpu2_DTLB PREFETCH REQUESTED:          0 ISSUED:          0 USEFUL:          0 USELESS:          0
cpu2_DTLB AVERAGE MISS LATENCY: 20.38 cycles
cpu2_DTLB TOTAL        ACCESS:          0 HIT:          0 MISS:          0
cpu2_DTLB LOAD         ACCESS:          0 HIT:          0 MISS:          0
cpu2_DTLB RFO          ACCESS:          0 HIT:          0 MISS:          0
cpu2_DTLB PREFETCH     ACCESS:          0 HIT:          0 MISS:          0
cpu2_DTLB WRITE        ACCESS:          0 HIT:          0 MISS:          0
cpu2_DTLB TRANSLATION  ACCESS:          0 HIT:          0 MISS:          0
cpu2_DTLB PREFETCH REQUESTED:          0 ISSUED:          0 USEFUL:          0 USELESS:          0
cpu2_DTLB AVERAGE MISS LATENCY: 20.38 cycles
cpu2_ITLB TOTAL        ACCESS:          0 HIT:          0 MISS:          0
cpu2_ITLB LOAD         ACCESS:          0 HIT:          0 MISS:          0
cpu2_ITLB RFO          ACCESS:          0 HIT:          0 MISS:          0
cpu2_ITLB PREFETCH     ACCESS:          0 HIT:          0 MISS:          0
cpu2_ITLB WRITE        ACCESS:          0 HIT:          0 MISS:          0
cpu2_ITLB TRANSLATION  ACCESS:          0 HIT:          0 MISS:          0
cpu2_ITLB PREFETCH REQUESTED:          0 ISSUED:          0 USEFUL:          0 USELESS:          0
cpu2_ITLB AVERAGE MISS LATENCY: 794.9 cycles
cpu2_ITLB TOTAL        ACCESS:          0 HIT:          0 MISS:          0
cpu2_ITLB LOAD         ACCESS:          0 HIT:          0 MISS:          0
cpu2_ITLB RFO          ACCESS:          0 HIT:          0 MISS:          0
cpu2_ITLB PREFETCH     ACCESS:          0 HIT:          0 MISS:          0
cpu2_ITLB WRITE        ACCESS:          0 HIT:          0 MISS:          0
cpu2_ITLB TRANSLATION  ACCESS:          0 HIT:          0 MISS:          0
cpu2_ITLB PREFETCH REQUESTED:          0 ISSUED:          0 USEFUL:          0 USELESS:          0
cpu2_ITLB AVERAGE MISS LATENCY: 794.9 cycles
cpu2_ITLB TOTAL        ACCESS:    3919436 HIT:    3919427 MISS:          9
cpu2_ITLB LOAD         ACCESS:    3919436 HIT:    3919427 MISS:          9
cpu2_ITLB RFO          ACCESS:          0 HIT:          0 MISS:          0
cpu2_ITLB PREFETCH     ACCESS:          0 HIT:          0 MISS:          0
cpu2_ITLB WRITE        ACCESS:          0 HIT:          0 MISS:          0
cpu2_ITLB TRANSLATION  ACCESS:          0 HIT:          0 MISS:          0
cpu2_ITLB PREFETCH REQUESTED:          0 ISSUED:          0 USEFUL:          0 USELESS:          0
cpu2_ITLB AVERAGE MISS LATENCY: 794.9 cycles
cpu2_ITLB TOTAL        ACCESS:          0 HIT:          0 MISS:          0
cpu2_ITLB LOAD         ACCESS:          0 HIT:          0 MISS:          0
cpu2_ITLB RFO          ACCESS:          0 HIT:          0 MISS:          0
cpu2_ITLB PREFETCH     ACCESS:          0 HIT:          0 MISS:          0
cpu2_ITLB WRITE        ACCESS:          0 HIT:          0 MISS:          0
cpu2_ITLB TRANSLATION  ACCESS:          0 HIT:          0 MISS:          0
cpu2_ITLB PREFETCH REQUESTED:          0 ISSUED:          0 USEFUL:          0 USELESS:          0
cpu2_ITLB AVERAGE MISS LATENCY: 794.9 cycles
cpu2_L1D TOTAL        ACCESS:          0 HIT:          0 MISS:          0
cpu2_L1D LOAD         ACCESS:          0 HIT:          0 MISS:          0
cpu2_L1D RFO          ACCESS:          0 HIT:          0 MISS:          0
cpu2_L1D PREFETCH     ACCESS:          0 HIT:          0 MISS:          0
cpu2_L1D WRITE        ACCESS:          0 HIT:          0 MISS:          0
cpu2_L1D TRANSLATION  ACCESS:          0 HIT:          0 MISS:          0
cpu2_L1D PREFETCH REQUESTED:          0 ISSUED:          0 USEFUL:          0 USELESS:          0
cpu2_L1D AVERAGE MISS LATENCY: 138.9 cycles
cpu2_L1D TOTAL        ACCESS:          0 HIT:          0 MISS:          0
cpu2_L1D LOAD         ACCESS:          0 HIT:          0 MISS:          0
cpu2_L1D RFO          ACCESS:          0 HIT:          0 MISS:          0
cpu2_L1D PREFETCH     ACCESS:          0 HIT:          0 MISS:          0
cpu2_L1D WRITE        ACCESS:          0 HIT:          0 MISS:          0
cpu2_L1D TRANSLATION  ACCESS:          0 HIT:          0 MISS:          0
cpu2_L1D PREFETCH REQUESTED:          0 ISSUED:          0 USEFUL:          0 USELESS:          0
cpu2_L1D AVERAGE MISS LATENCY: 138.9 cycles
cpu2_L1D TOTAL        ACCESS:  100501427 HIT:   98004620 MISS:    2496807
cpu2_L1D LOAD         ACCESS:   55324885 HIT:   54587886 MISS:     736999
cpu2_L1D RFO          ACCESS:          0 HIT:          0 MISS:          0
cpu2_L1D PREFETCH     ACCESS:          0 HIT:          0 MISS:          0
cpu2_L1D WRITE        ACCESS:   45161775 HIT:   43405034 MISS:    1756741
cpu2_L1D TRANSLATION  ACCESS:      14767 HIT:      11700 MISS:       3067
cpu2_L1D PREFETCH REQUESTED:          0 ISSUED:          0 USEFUL:          0 USELESS:          0
cpu2_L1D AVERAGE MISS LATENCY: 138.9 cycles
cpu2_L1D TOTAL        ACCESS:          0 HIT:          0 MISS:          0
cpu2_L1D LOAD         ACCESS:          0 HIT:          0 MISS:          0
cpu2_L1D RFO          ACCESS:          0 HIT:          0 MISS:          0
cpu2_L1D PREFETCH     ACCESS:          0 HIT:          0 MISS:          0
cpu2_L1D WRITE        ACCESS:          0 HIT:          0 MISS:          0
cpu2_L1D TRANSLATION  ACCESS:          0 HIT:          0 MISS:          0
cpu2_L1D PREFETCH REQUESTED:          0 ISSUED:          0 USEFUL:          0 USELESS:          0
cpu2_L1D AVERAGE MISS LATENCY: 138.9 cycles
cpu2_L1I TOTAL        ACCESS:          0 HIT:          0 MISS:          0
cpu2_L1I LOAD         ACCESS:          0 HIT:          0 MISS:          0
cpu2_L1I RFO          ACCESS:          0 HIT:          0 MISS:          0
cpu2_L1I PREFETCH     ACCESS:          0 HIT:          0 MISS:          0
cpu2_L1I WRITE        ACCESS:          0 HIT:          0 MISS:          0
cpu2_L1I TRANSLATION  ACCESS:          0 HIT:          0 MISS:          0
cpu2_L1I PREFETCH REQUESTED:          0 ISSUED:          0 USEFUL:          0 USELESS:          0
cpu2_L1I AVERAGE MISS LATENCY: 394 cycles
cpu2_L1I TOTAL        ACCESS:          0 HIT:          0 MISS:          0
cpu2_L1I LOAD         ACCESS:          0 HIT:          0 MISS:          0
cpu2_L1I RFO          ACCESS:          0 HIT:          0 MISS:          0
cpu2_L1I PREFETCH     ACCESS:          0 HIT:          0 MISS:          0
cpu2_L1I WRITE        ACCESS:          0 HIT:          0 MISS:          0
cpu2_L1I TRANSLATION  ACCESS:          0 HIT:          0 MISS:          0
cpu2_L1I PREFETCH REQUESTED:          0 ISSUED:          0 USEFUL:          0 USELESS:          0
cpu2_L1I AVERAGE MISS LATENCY: 394 cycles
cpu2_L1I TOTAL        ACCESS:    4637124 HIT:    4637044 MISS:         80
cpu2_L1I LOAD         ACCESS:    4637124 HIT:    4637044 MISS:         80
cpu2_L1I RFO          ACCESS:          0 HIT:          0 MISS:          0
cpu2_L1I PREFETCH     ACCESS:          0 HIT:          0 MISS:          0
cpu2_L1I WRITE        ACCESS:          0 HIT:          0 MISS:          0
cpu2_L1I TRANSLATION  ACCESS:          0 HIT:          0 MISS:          0
cpu2_L1I PREFETCH REQUESTED:          0 ISSUED:          0 USEFUL:          0 USELESS:          0
cpu2_L1I AVERAGE MISS LATENCY: 394 cycles
cpu2_L1I TOTAL        ACCESS:          0 HIT:          0 MISS:          0
cpu2_L1I LOAD         ACCESS:          0 HIT:          0 MISS:          0
cpu2_L1I RFO          ACCESS:          0 HIT:          0 MISS:          0
cpu2_L1I PREFETCH     ACCESS:          0 HIT:          0 MISS:          0
cpu2_L1I WRITE        ACCESS:          0 HIT:          0 MISS:          0
cpu2_L1I TRANSLATION  ACCESS:          0 HIT:          0 MISS:          0
cpu2_L1I PREFETCH REQUESTED:          0 ISSUED:          0 USEFUL:          0 USELESS:          0
cpu2_L1I AVERAGE MISS LATENCY: 394 cycles
cpu2_L2C TOTAL        ACCESS:          0 HIT:          0 MISS:          0
cpu2_L2C LOAD         ACCESS:          0 HIT:          0 MISS:          0
cpu2_L2C RFO          ACCESS:          0 HIT:          0 MISS:          0
cpu2_L2C PREFETCH     ACCESS:          0 HIT:          0 MISS:          0
cpu2_L2C WRITE        ACCESS:          0 HIT:          0 MISS:          0
cpu2_L2C TRANSLATION  ACCESS:          0 HIT:          0 MISS:          0
cpu2_L2C PREFETCH REQUESTED:          0 ISSUED:          0 USEFUL:          0 USELESS:          0
cpu2_L2C AVERAGE MISS LATENCY: 529.1 cycles
cpu2_L2C TOTAL        ACCESS:          0 HIT:          0 MISS:          0
cpu2_L2C LOAD         ACCESS:          0 HIT:          0 MISS:          0
cpu2_L2C RFO          ACCESS:          0 HIT:          0 MISS:          0
cpu2_L2C PREFETCH     ACCESS:          0 HIT:          0 MISS:          0
cpu2_L2C WRITE        ACCESS:          0 HIT:          0 MISS:          0
cpu2_L2C TRANSLATION  ACCESS:          0 HIT:          0 MISS:          0
cpu2_L2C PREFETCH REQUESTED:          0 ISSUED:          0 USEFUL:          0 USELESS:          0
cpu2_L2C AVERAGE MISS LATENCY: 529.1 cycles
cpu2_L2C TOTAL        ACCESS:    1030755 HIT:     294620 MISS:     736135
cpu2_L2C LOAD         ACCESS:     440186 HIT:        245 MISS:     439941
cpu2_L2C RFO          ACCESS:     293723 HIT:       1150 MISS:     292573
cpu2_L2C PREFETCH     ACCESS:          0 HIT:          0 MISS:          0
cpu2_L2C WRITE        ACCESS:     293779 HIT:     293177 MISS:        602
cpu2_L2C TRANSLATION  ACCESS:       3067 HIT:         48 MISS:       3019
cpu2_L2C PREFETCH REQUESTED:          0 ISSUED:          0 USEFUL:          0 USELESS:          0
cpu2_L2C AVERAGE MISS LATENCY: 529.1 cycles
cpu2_L2C TOTAL        ACCESS:          0 HIT:          0 MISS:          0
cpu2_L2C LOAD         ACCESS:          0 HIT:          0 MISS:          0
cpu2_L2C RFO          ACCESS:          0 HIT:          0 MISS:          0
cpu2_L2C PREFETCH     ACCESS:          0 HIT:          0 MISS:          0
cpu2_L2C WRITE        ACCESS:          0 HIT:          0 MISS:          0
cpu2_L2C TRANSLATION  ACCESS:          0 HIT:          0 MISS:          0
cpu2_L2C PREFETCH REQUESTED:          0 ISSUED:          0 USEFUL:          0 USELESS:          0
cpu2_L2C AVERAGE MISS LATENCY: 529.1 cycles
cpu2_STLB TOTAL        ACCESS:          0 HIT:          0 MISS:          0
cpu2_STLB LOAD         ACCESS:          0 HIT:          0 MISS:          0
cpu2_STLB RFO          ACCESS:          0 HIT:          0 MISS:          0
cpu2_STLB PREFETCH     ACCESS:          0 HIT:          0 MISS:          0
cpu2_STLB WRITE        ACCESS:          0 HIT:          0 MISS:          0
cpu2_STLB TRANSLATION  ACCESS:          0 HIT:          0 MISS:          0
cpu2_STLB PREFETCH REQUESTED:          0 ISSUED:          0 USEFUL:          0 USELESS:          0
cpu2_STLB AVERAGE MISS LATENCY: 209.6 cycles
cpu2_STLB TOTAL        ACCESS:          0 HIT:          0 MISS:          0
cpu2_STLB LOAD         ACCESS:          0 HIT:          0 MISS:          0
cpu2_STLB RFO          ACCESS:          0 HIT:          0 MISS:          0
cpu2_STLB PREFETCH     ACCESS:          0 HIT:          0 MISS:          0
cpu2_STLB WRITE        ACCESS:          0 HIT:          0 MISS:          0
cpu2_STLB TRANSLATION  ACCESS:          0 HIT:          0 MISS:          0
cpu2_STLB PREFETCH REQUESTED:          0 ISSUED:          0 USEFUL:          0 USELESS:          0
cpu2_STLB AVERAGE MISS LATENCY: 209.6 cycles
cpu2_STLB TOTAL        ACCESS:      16104 HIT:       1364 MISS:      14740
cpu2_STLB LOAD         ACCESS:      16104 HIT:       1364 MISS:      14740
cpu2_STLB RFO          ACCESS:          0 HIT:          0 MISS:          0
cpu2_STLB PREFETCH     ACCESS:          0 HIT:          0 MISS:          0
cpu2_STLB WRITE        ACCESS:          0 HIT:          0 MISS:          0
cpu2_STLB TRANSLATION  ACCESS:          0 HIT:          0 MISS:          0
cpu2_STLB PREFETCH REQUESTED:          0 ISSUED:          0 USEFUL:          0 USELESS:          0
cpu2_STLB AVERAGE MISS LATENCY: 209.6 cycles
cpu2_STLB TOTAL        ACCESS:          0 HIT:          0 MISS:          0
cpu2_STLB LOAD         ACCESS:          0 HIT:          0 MISS:          0
cpu2_STLB RFO          ACCESS:          0 HIT:          0 MISS:          0
cpu2_STLB PREFETCH     ACCESS:          0 HIT:          0 MISS:          0
cpu2_STLB WRITE        ACCESS:          0 HIT:          0 MISS:          0
cpu2_STLB TRANSLATION  ACCESS:          0 HIT:          0 MISS:          0
cpu2_STLB PREFETCH REQUESTED:          0 ISSUED:          0 USEFUL:          0 USELESS:          0
cpu2_STLB AVERAGE MISS LATENCY: 209.6 cycles
cpu3_DTLB TOTAL        ACCESS:          0 HIT:          0 MISS:          0
cpu3_DTLB LOAD         ACCESS:          0 HIT:          0 MISS:          0
cpu3_DTLB RFO          ACCESS:          0 HIT:          0 MISS:          0
cpu3_DTLB PREFETCH     ACCESS:          0 HIT:          0 MISS:          0
cpu3_DTLB WRITE        ACCESS:          0 HIT:          0 MISS:          0
cpu3_DTLB TRANSLATION  ACCESS:          0 HIT:          0 MISS:          0
cpu3_DTLB PREFETCH REQUESTED:          0 ISSUED:          0 USEFUL:          0 USELESS:          0
cpu3_DTLB AVERAGE MISS LATENCY: 6.735 cycles
cpu3_DTLB TOTAL        ACCESS:          0 HIT:          0 MISS:          0
cpu3_DTLB LOAD         ACCESS:          0 HIT:          0 MISS:          0
cpu3_DTLB RFO          ACCESS:          0 HIT:          0 MISS:          0
cpu3_DTLB PREFETCH     ACCESS:          0 HIT:          0 MISS:          0
cpu3_DTLB WRITE        ACCESS:          0 HIT:          0 MISS:          0
cpu3_DTLB TRANSLATION  ACCESS:          0 HIT:          0 MISS:          0
cpu3_DTLB PREFETCH REQUESTED:          0 ISSUED:          0 USEFUL:          0 USELESS:          0
cpu3_DTLB AVERAGE MISS LATENCY: 6.735 cycles
cpu3_DTLB TOTAL        ACCESS:          0 HIT:          0 MISS:          0
cpu3_DTLB LOAD         ACCESS:          0 HIT:          0 MISS:          0
cpu3_DTLB RFO          ACCESS:          0 HIT:          0 MISS:          0
cpu3_DTLB PREFETCH     ACCESS:          0 HIT:          0 MISS:          0
cpu3_DTLB WRITE        ACCESS:          0 HIT:          0 MISS:          0
cpu3_DTLB TRANSLATION  ACCESS:          0 HIT:          0 MISS:          0
cpu3_DTLB PREFETCH REQUESTED:          0 ISSUED:          0 USEFUL:          0 USELESS:          0
cpu3_DTLB AVERAGE MISS LATENCY: 6.735 cycles
cpu3_DTLB TOTAL        ACCESS:   72095351 HIT:   71404589 MISS:     690762
cpu3_DTLB LOAD         ACCESS:   72095351 HIT:   71404589 MISS:     690762
cpu3_DTLB RFO          ACCESS:          0 HIT:          0 MISS:          0
cpu3_DTLB PREFETCH     ACCESS:          0 HIT:          0 MISS:          0
cpu3_DTLB WRITE        ACCESS:          0 HIT:          0 MISS:          0
cpu3_DTLB TRANSLATION  ACCESS:          0 HIT:          0 MISS:          0
cpu3_DTLB PREFETCH REQUESTED:          0 ISSUED:          0 USEFUL:          0 USELESS:          0
cpu3_DTLB AVERAGE MISS LATENCY: 6.735 cycles
cpu3_ITLB TOTAL        ACCESS:          0 HIT:          0 MISS:          0
[...]
cpu2_L1I PREFETCH REQUESTED:          0 ISSUED:          0 USEFUL:          0 USELESS:          0
cpu2_L1I AVERAGE MISS LATENCY: 394 cycles
cpu2_L1I TOTAL        ACCESS:          0 HIT:          0 MISS:          0
cpu2_L1I LOAD         ACCESS:          0 HIT:          0 MISS:          0
cpu2_L1I RFO          ACCESS:          0 HIT:          0 MISS:          0
cpu2_L1I PREFETCH     ACCESS:          0 HIT:          0 MISS:          0
cpu2_L1I WRITE        ACCESS:          0 HIT:          0 MISS:          0
cpu2_L1I TRANSLATION  ACCESS:          0 HIT:          0 MISS:          0
cpu2_L1I PREFETCH REQUESTED:          0 ISSUED:          0 USEFUL:          0 USELESS:          0
cpu2_L1I AVERAGE MISS LATENCY: 394 cycles
cpu2_L2C TOTAL        ACCESS:          0 HIT:          0 MISS:          0
cpu2_L2C LOAD         ACCESS:          0 HIT:          0 MISS:          0
cpu2_L2C RFO          ACCESS:          0 HIT:          0 MISS:          0
cpu2_L2C PREFETCH     ACCESS:          0 HIT:          0 MISS:          0
cpu2_L2C WRITE        ACCESS:          0 HIT:          0 MISS:          0
cpu2_L2C TRANSLATION  ACCESS:          0 HIT:          0 MISS:          0
cpu2_L2C PREFETCH REQUESTED:          0 ISSUED:          0 USEFUL:          0 USELESS:          0
cpu2_L2C AVERAGE MISS LATENCY: 529.1 cycles
cpu2_L2C TOTAL        ACCESS:          0 HIT:          0 MISS:          0
cpu2_L2C LOAD         ACCESS:          0 HIT:          0 MISS:          0
cpu2_L2C RFO          ACCESS:          0 HIT:          0 MISS:          0
cpu2_L2C PREFETCH     ACCESS:          0 HIT:          0 MISS:          0
cpu2_L2C WRITE        ACCESS:          0 HIT:          0 MISS:          0
cpu2_L2C TRANSLATION  ACCESS:          0 HIT:          0 MISS:          0
cpu2_L2C PREFETCH REQUESTED:          0 ISSUED:          0 USEFUL:          0 USELESS:          0
cpu2_L2C AVERAGE MISS LATENCY: 529.1 cycles
cpu2_L2C TOTAL        ACCESS:      30303 HIT:       9271 MISS:      21032
cpu2_L2C LOAD         ACCESS:      12737 HIT:        117 MISS:      12620
cpu2_L2C RFO          ACCESS:       8757 HIT:        394 MISS:       8363
cpu2_L2C PREFETCH     ACCESS:          0 HIT:          0 MISS:          0
cpu2_L2C WRITE        ACCESS:       8760 HIT:       8760 MISS:          0
cpu2_L2C TRANSLATION  ACCESS:         49 HIT:          0 MISS:         49
cpu2_L2C PREFETCH REQUESTED:          0 ISSUED:          0 USEFUL:          0 USELESS:          0
cpu2_L2C AVERAGE MISS LATENCY: 529.1 cycles
cpu2_L2C TOTAL        ACCESS:          0 HIT:          0 MISS:          0
cpu2_L2C LOAD         ACCESS:          0 HIT:          0 MISS:          0
cpu2_L2C RFO          ACCESS:          0 HIT:          0 MISS:          0
cpu2_L2C PREFETCH     ACCESS:          0 HIT:          0 MISS:          0
cpu2_L2C WRITE        ACCESS:          0 HIT:          0 MISS:          0
cpu2_L2C TRANSLATION  ACCESS:          0 HIT:          0 MISS:          0
cpu2_L2C PREFETCH REQUESTED:          0 ISSUED:          0 USEFUL:          0 USELESS:          0
cpu2_L2C AVERAGE MISS LATENCY: 529.1 cycles
cpu2_STLB TOTAL        ACCESS:          0 HIT:          0 MISS:          0
cpu2_STLB LOAD         ACCESS:          0 HIT:          0 MISS:          0
cpu2_STLB RFO          ACCESS:          0 HIT:          0 MISS:          0
cpu2_STLB PREFETCH     ACCESS:          0 HIT:          0 MISS:          0
cpu2_STLB WRITE        ACCESS:          0 HIT:          0 MISS:          0
cpu2_STLB TRANSLATION  ACCESS:          0 HIT:          0 MISS:          0
cpu2_STLB PREFETCH REQUESTED:          0 ISSUED:          0 USEFUL:          0 USELESS:          0
cpu2_STLB AVERAGE MISS LATENCY: 209.6 cycles
cpu2_STLB TOTAL        ACCESS:          0 HIT:          0 MISS:          0
cpu2_STLB LOAD         ACCESS:          0 HIT:          0 MISS:          0
cpu2_STLB RFO          ACCESS:          0 HIT:          0 MISS:          0
cpu2_STLB PREFETCH     ACCESS:          0 HIT:          0 MISS:          0
cpu2_STLB WRITE        ACCESS:          0 HIT:          0 MISS:          0
cpu2_STLB TRANSLATION  ACCESS:          0 HIT:          0 MISS:          0
cpu2_STLB PREFETCH REQUESTED:          0 ISSUED:          0 USEFUL:          0 USELESS:          0
cpu2_STLB AVERAGE MISS LATENCY: 209.6 cycles
cpu2_STLB TOTAL        ACCESS:        486 HIT:         51 MISS:        435
cpu2_STLB LOAD         ACCESS:        486 HIT:         51 MISS:        435
cpu2_STLB RFO          ACCESS:          0 HIT:          0 MISS:          0
cpu2_STLB PREFETCH     ACCESS:          0 HIT:          0 MISS:          0
cpu2_STLB WRITE        ACCESS:          0 HIT:          0 MISS:          0
cpu2_STLB TRANSLATION  ACCESS:          0 HIT:          0 MISS:          0
cpu2_STLB PREFETCH REQUESTED:          0 ISSUED:          0 USEFUL:          0 USELESS:          0
cpu2_STLB AVERAGE MISS LATENCY: 209.6 cycles
cpu2_STLB TOTAL        ACCESS:          0 HIT:          0 MISS:          0
cpu2_STLB LOAD         ACCESS:          0 HIT:          0 MISS:          0
cpu2_STLB RFO          ACCESS:          0 HIT:          0 MISS:          0
cpu2_STLB PREFETCH     ACCESS:          0 HIT:          0 MISS:          0
cpu2_STLB WRITE        ACCESS:          0 HIT:          0 MISS:          0
cpu2_STLB TRANSLATION  ACCESS:          0 HIT:          0 MISS:          0
cpu2_STLB PREFETCH REQUESTED:          0 ISSUED:          0 USEFUL:          0 USELESS:          0
cpu2_STLB AVERAGE MISS LATENCY: 209.6 cycles
cpu3_DTLB TOTAL        ACCESS:          0 HIT:          0 MISS:          0
cpu3_DTLB LOAD         ACCESS:          0 HIT:          0 MISS:          0
cpu3_DTLB RFO          ACCESS:          0 HIT:          0 MISS:          0
cpu3_DTLB PREFETCH     ACCESS:          0 HIT:          0 MISS:          0
cpu3_DTLB WRITE        ACCESS:          0 HIT:          0 MISS:          0
cpu3_DTLB TRANSLATION  ACCESS:          0 HIT:          0 MISS:          0
cpu3_DTLB PREFETCH REQUESTED:          0 ISSUED:          0 USEFUL:          0 USELESS:          0
cpu3_DTLB AVERAGE MISS LATENCY: 6.735 cycles
cpu3_DTLB TOTAL        ACCESS:          0 HIT:          0 MISS:          0
cpu3_DTLB LOAD         ACCESS:          0 HIT:          0 MISS:          0
cpu3_DTLB RFO          ACCESS:          0 HIT:          0 MISS:          0
cpu3_DTLB PREFETCH     ACCESS:          0 HIT:          0 MISS:          0
cpu3_DTLB WRITE        ACCESS:          0 HIT:          0 MISS:          0
cpu3_DTLB TRANSLATION  ACCESS:          0 HIT:          0 MISS:          0
cpu3_DTLB PREFETCH REQUESTED:          0 ISSUED:          0 USEFUL:          0 USELESS:          0
cpu3_DTLB AVERAGE MISS LATENCY: 6.735 cycles
cpu3_DTLB TOTAL        ACCESS:          0 HIT:          0 MISS:          0
cpu3_DTLB LOAD         ACCESS:          0 HIT:          0 MISS:          0
cpu3_DTLB RFO          ACCESS:          0 HIT:          0 MISS:          0
cpu3_DTLB PREFETCH     ACCESS:          0 HIT:          0 MISS:          0
cpu3_DTLB WRITE        ACCESS:          0 HIT:          0 MISS:          0
cpu3_DTLB TRANSLATION  ACCESS:          0 HIT:          0 MISS:          0
cpu3_DTLB PREFETCH REQUESTED:          0 ISSUED:          0 USEFUL:          0 USELESS:          0
cpu3_DTLB AVERAGE MISS LATENCY: 6.735 cycles
cpu3_DTLB TOTAL        ACCESS:   17888248 HIT:   17877757 MISS:      10491
cpu3_DTLB LOAD         ACCESS:   17888248 HIT:   17877757 MISS:      10491
cpu3_DTLB RFO          ACCESS:          0 HIT:          0 MISS:          0
cpu3_DTLB PREFETCH     ACCESS:          0 HIT:          0 MISS:          0
cpu3_DTLB WRITE        ACCESS:          0 HIT:          0 MISS:          0
cpu3_DTLB TRANSLATION  ACCESS:          0 HIT:          0 MISS:          0
cpu3_DTLB PREFETCH REQUESTED:          0 ISSUED:          0 USEFUL:          0 USELESS:          0
cpu3_DTLB AVERAGE MISS LATENCY: 6.735 cycles
cpu3_ITLB TOTAL        ACCESS:          0 HIT:          0 MISS:          0
cpu3_ITLB LOAD         ACCESS:          0 HIT:          0 MISS:          0
cpu3_ITLB RFO          ACCESS:          0 HIT:          0 MISS:          0
cpu3_ITLB PREFETCH     ACCESS:          0 HIT:          0 MISS:          0
cpu3_ITLB WRITE        ACCESS:          0 HIT:          0 MISS:          0
cpu3_ITLB TRANSLATION  ACCESS:          0 HIT:          0 MISS:          0
cpu3_ITLB PREFETCH REQUESTED:          0 ISSUED:          0 USEFUL:          0 USELESS:          0
cpu3_ITLB AVERAGE MISS LATENCY: 252.8 cycles
cpu3_ITLB TOTAL        ACCESS:          0 HIT:          0 MISS:          0
cpu3_ITLB LOAD         ACCESS:          0 HIT:          0 MISS:          0
cpu3_ITLB RFO          ACCESS:          0 HIT:          0 MISS:          0
cpu3_ITLB PREFETCH     ACCESS:          0 HIT:          0 MISS:          0
cpu3_ITLB WRITE        ACCESS:          0 HIT:          0 MISS:          0
cpu3_ITLB TRANSLATION  ACCESS:          0 HIT:          0 MISS:          0
cpu3_ITLB PREFETCH REQUESTED:          0 ISSUED:          0 USEFUL:          0 USELESS:          0
cpu3_ITLB AVERAGE MISS LATENCY: 252.8 cycles
cpu3_ITLB TOTAL        ACCESS:          0 HIT:          0 MISS:          0
cpu3_ITLB LOAD         ACCESS:          0 HIT:          0 MISS:          0
cpu3_ITLB RFO          ACCESS:          0 HIT:          0 MISS:          0
cpu3_ITLB PREFETCH     ACCESS:          0 HIT:          0 MISS:          0
cpu3_ITLB WRITE        ACCESS:          0 HIT:          0 MISS:          0
cpu3_ITLB TRANSLATION  ACCESS:          0 HIT:          0 MISS:          0
cpu3_ITLB PREFETCH REQUESTED:          0 ISSUED:          0 USEFUL:          0 USELESS:          0
cpu3_ITLB AVERAGE MISS LATENCY: 252.8 cycles
cpu3_ITLB TOTAL        ACCESS:     497445 HIT:     497445 MISS:          0
cpu3_ITLB LOAD         ACCESS:     497445 HIT:     497445 MISS:          0
cpu3_ITLB RFO          ACCESS:          0 HIT:          0 MISS:          0
cpu3_ITLB PREFETCH     ACCESS:          0 HIT:          0 MISS:          0
cpu3_ITLB WRITE        ACCESS:          0 HIT:          0 MISS:          0
cpu3_ITLB TRANSLATION  ACCESS:          0 HIT:          0 MISS:          0
cpu3_ITLB PREFETCH REQUESTED:          0 ISSUED:          0 USEFUL:          0 USELESS:          0
cpu3_ITLB AVERAGE MISS LATENCY: 252.8 cycles
cpu3_L1D TOTAL        ACCESS:          0 HIT:          0 MISS:          0
cpu3_L1D LOAD         ACCESS:          0 HIT:          0 MISS:          0
cpu3_L1D RFO          ACCESS:          0 HIT:          0 MISS:          0
cpu3_L1D PREFETCH     ACCESS:          0 HIT:          0 MISS:          0
cpu3_L1D WRITE        ACCESS:          0 HIT:          0 MISS:          0
cpu3_L1D TRANSLATION  ACCESS:          0 HIT:          0 MISS:          0
cpu3_L1D PREFETCH REQUESTED:          0 ISSUED:          0 USEFUL:          0 USELESS:          0
cpu3_L1D AVERAGE MISS LATENCY: 58.29 cycles
cpu3_L1D TOTAL        ACCESS:          0 HIT:          0 MISS:          0
cpu3_L1D LOAD         ACCESS:          0 HIT:          0 MISS:          0
cpu3_L1D RFO          ACCESS:          0 HIT:          0 MISS:          0
cpu3_L1D PREFETCH     ACCESS:          0 HIT:          0 MISS:          0
cpu3_L1D WRITE        ACCESS:          0 HIT:          0 MISS:          0
cpu3_L1D TRANSLATION  ACCESS:          0 HIT:          0 MISS:          0
cpu3_L1D PREFETCH REQUESTED:          0 ISSUED:          0 USEFUL:          0 USELESS:          0
cpu3_L1D AVERAGE MISS LATENCY: 58.29 cycles
cpu3_L1D TOTAL        ACCESS:          0 HIT:          0 MISS:          0
cpu3_L1D LOAD         ACCESS:          0 HIT:          0 MISS:          0
cpu3_L1D RFO          ACCESS:          0 HIT:          0 MISS:          0
cpu3_L1D PREFETCH     ACCESS:          0 HIT:          0 MISS:          0
cpu3_L1D WRITE        ACCESS:          0 HIT:          0 MISS:          0
cpu3_L1D TRANSLATION  ACCESS:          0 HIT:          0 MISS:          0
cpu3_L1D PREFETCH REQUESTED:          0 ISSUED:          0 USEFUL:          0 USELESS:          0
cpu3_L1D AVERAGE MISS LATENCY: 58.29 cycles
cpu3_L1D TOTAL        ACCESS:   21949240 HIT:   21940514 MISS:       8726
cpu3_L1D LOAD         ACCESS:   16386620 HIT:   16383685 MISS:       2935
cpu3_L1D RFO          ACCESS:          0 HIT:          0 MISS:          0
cpu3_L1D PREFETCH     ACCESS:          0 HIT:          0 MISS:          0
cpu3_L1D WRITE        ACCESS:    5562449 HIT:    5556811 MISS:       5638
cpu3_L1D TRANSLATION  ACCESS:        171 HIT:         18 MISS:        153
cpu3_L1D PREFETCH REQUESTED:          0 ISSUED:          0 USEFUL:          0 USELESS:          0
cpu3_L1D AVERAGE MISS LATENCY: 58.29 cycles
cpu3_L1I TOTAL        ACCESS:          0 HIT:          0 MISS:          0
cpu3_L1I LOAD         ACCESS:          0 HIT:          0 MISS:          0
cpu3_L1I RFO          ACCESS:          0 HIT:          0 MISS:          0
cpu3_L1I PREFETCH     ACCESS:          0 HIT:          0 MISS:          0
cpu3_L1I WRITE        ACCESS:          0 HIT:          0 MISS:          0
cpu3_L1I TRANSLATION  ACCESS:          0 HIT:          0 MISS:          0
cpu3_L1I PREFETCH REQUESTED:          0 ISSUED:          0 USEFUL:          0 USELESS:          0
cpu3_L1I AVERAGE MISS LATENCY: 9.405 cycles
cpu3_L1I TOTAL        ACCESS:          0 HIT:          0 MISS:          0
cpu3_L1I LOAD         ACCESS:          0 HIT:          0 MISS:          0
cpu3_L1I RFO          ACCESS:          0 HIT:          0 MISS:          0
cpu3_L1I PREFETCH     ACCESS:          0 HIT:          0 MISS:          0
cpu3_L1I WRITE        ACCESS:          0 HIT:          0 MISS:          0
cpu3_L1I TRANSLATION  ACCESS:          0 HIT:          0 MISS:          0
cpu3_L1I PREFETCH REQUESTED:          0 ISSUED:          0 USEFUL:          0 USELESS:          0
cpu3_L1I AVERAGE MISS LATENCY: 9.405 cycles
cpu3_L1I TOTAL        ACCESS:          0 HIT:          0 MISS:          0
cpu3_L1I LOAD         ACCESS:          0 HIT:          0 MISS:          0
cpu3_L1I RFO          ACCESS:          0 HIT:          0 MISS:          0
cpu3_L1I PREFETCH     ACCESS:          0 HIT:          0 MISS:          0
cpu3_L1I WRITE        ACCESS:          0 HIT:          0 MISS:          0
cpu3_L1I TRANSLATION  ACCESS:          0 HIT:          0 MISS:          0
cpu3_L1I PREFETCH REQUESTED:          0 ISSUED:          0 USEFUL:          0 USELESS:          0
cpu3_L1I AVERAGE MISS LATENCY: 9.405 cycles
cpu3_L1I TOTAL        ACCESS:     550899 HIT:     549462 MISS:       1437
cpu3_L1I LOAD         ACCESS:     550899 HIT:     549462 MISS:       1437
cpu3_L1I RFO          ACCESS:          0 HIT:          0 MISS:          0
cpu3_L1I PREFETCH     ACCESS:          0 HIT:          0 MISS:          0
cpu3_L1I WRITE        ACCESS:          0 HIT:          0 MISS:          0
cpu3_L1I TRANSLATION  ACCESS:          0 HIT:          0 MISS:          0
cpu3_L1I PREFETCH REQUESTED:          0 ISSUED:          0 USEFUL:          0 USELESS:          0
cpu3_L1I AVERAGE MISS LATENCY: 9.405 cycles
cpu3_L2C TOTAL        ACCESS:          0 HIT:          0 MISS:          0
cpu3_L2C LOAD         ACCESS:          0 HIT:          0 MISS:          0
cpu3_L2C RFO          ACCESS:          0 HIT:          0 MISS:          0
cpu3_L2C PREFETCH     ACCESS:          0 HIT:          0 MISS:          0
cpu3_L2C WRITE        ACCESS:          0 HIT:          0 MISS:          0
cpu3_L2C TRANSLATION  ACCESS:          0 HIT:          0 MISS:          0
cpu3_L2C PREFETCH REQUESTED:          0 ISSUED:          0 USEFUL:          0 USELESS:          0
cpu3_L2C AVERAGE MISS LATENCY: 655 cycles
cpu3_L2C TOTAL        ACCESS:          0 HIT:          0 MISS:          0
cpu3_L2C LOAD         ACCESS:          0 HIT:          0 MISS:          0
cpu3_L2C RFO          ACCESS:          0 HIT:          0 MISS:          0
cpu3_L2C PREFETCH     ACCESS:          0 HIT:          0 MISS:          0
cpu3_L2C WRITE        ACCESS:          0 HIT:          0 MISS:          0
cpu3_L2C TRANSLATION  ACCESS:          0 HIT:          0 MISS:          0
cpu3_L2C PREFETCH REQUESTED:          0 ISSUED:          0 USEFUL:          0 USELESS:          0
cpu3_L2C AVERAGE MISS LATENCY: 655 cycles
cpu3_L2C TOTAL        ACCESS:          0 HIT:          0 MISS:          0
cpu3_L2C LOAD         ACCESS:          0 HIT:          0 MISS:          0
cpu3_L2C RFO          ACCESS:          0 HIT:          0 MISS:          0
cpu3_L2C PREFETCH     ACCESS:          0 HIT:          0 MISS:          0
cpu3_L2C WRITE        ACCESS:          0 HIT:          0 MISS:          0
cpu3_L2C TRANSLATION  ACCESS:          0 HIT:          0 MISS:          0
cpu3_L2C PREFETCH REQUESTED:          0 ISSUED:          0 USEFUL:          0 USELESS:          0
cpu3_L2C AVERAGE MISS LATENCY: 655 cycles
cpu3_L2C TOTAL        ACCESS:       8550 HIT:       4389 MISS:       4161
cpu3_L2C LOAD         ACCESS:       2783 HIT:       1204 MISS:       1579
cpu3_L2C RFO          ACCESS:       2559 HIT:         73 MISS:       2486
cpu3_L2C PREFETCH     ACCESS:          0 HIT:          0 MISS:          0
cpu3_L2C WRITE        ACCESS:       3055 HIT:       3055 MISS:          0
cpu3_L2C TRANSLATION  ACCESS:        153 HIT:         57 MISS:         96
cpu3_L2C PREFETCH REQUESTED:          0 ISSUED:          0 USEFUL:          0 USELESS:          0
cpu3_L2C AVERAGE MISS LATENCY: 655 cycles
cpu3_STLB TOTAL        ACCESS:          0 HIT:          0 MISS:          0
cpu3_STLB LOAD         ACCESS:          0 HIT:          0 MISS:          0
cpu3_STLB RFO          ACCESS:          0 HIT:          0 MISS:          0
cpu3_STLB PREFETCH     ACCESS:          0 HIT:          0 MISS:          0
cpu3_STLB WRITE        ACCESS:          0 HIT:          0 MISS:          0
cpu3_STLB TRANSLATION  ACCESS:          0 HIT:          0 MISS:          0
cpu3_STLB PREFETCH REQUESTED:          0 ISSUED:          0 USEFUL:          0 USELESS:          0
cpu3_STLB AVERAGE MISS LATENCY: 354.3 cycles
cpu3_STLB TOTAL        ACCESS:          0 HIT:          0 MISS:          0
cpu3_STLB LOAD         ACCESS:          0 HIT:          0 MISS:          0
cpu3_STLB RFO          ACCESS:          0 HIT:          0 MISS:          0
cpu3_STLB PREFETCH     ACCESS:          0 HIT:          0 MISS:          0
cpu3_STLB WRITE        ACCESS:          0 HIT:          0 MISS:          0
cpu3_STLB TRANSLATION  ACCESS:          0 HIT:          0 MISS:          0
cpu3_STLB PREFETCH REQUESTED:          0 ISSUED:          0 USEFUL:          0 USELESS:          0
cpu3_STLB AVERAGE MISS LATENCY: 354.3 cycles
cpu3_STLB TOTAL        ACCESS:          0 HIT:          0 MISS:          0
cpu3_STLB LOAD         ACCESS:          0 HIT:          0 MISS:          0
cpu3_STLB RFO          ACCESS:          0 HIT:          0 MISS:          0
cpu3_STLB PREFETCH     ACCESS:          0 HIT:          0 MISS:          0
cpu3_STLB WRITE        ACCESS:          0 HIT:          0 MISS:          0
cpu3_STLB TRANSLATION  ACCESS:          0 HIT:          0 MISS:          0
cpu3_STLB PREFETCH REQUESTED:          0 ISSUED:          0 USEFUL:          0 USELESS:          0
cpu3_STLB AVERAGE MISS LATENCY: 354.3 cycles
cpu3_STLB TOTAL        ACCESS:       9250 HIT:       9080 MISS:        170
cpu3_STLB LOAD         ACCESS:       9250 HIT:       9080 MISS:        170
cpu3_STLB RFO          ACCESS:          0 HIT:          0 MISS:          0
cpu3_STLB PREFETCH     ACCESS:          0 HIT:          0 MISS:          0
cpu3_STLB WRITE        ACCESS:          0 HIT:          0 MISS:          0
cpu3_STLB TRANSLATION  ACCESS:          0 HIT:          0 MISS:          0
cpu3_STLB PREFETCH REQUESTED:          0 ISSUED:          0 USEFUL:          0 USELESS:          0
cpu3_STLB AVERAGE MISS LATENCY: 354.3 cycles

DRAM Statistics

Channel 0 RQ ROW_BUFFER_HIT:     162202
  ROW_BUFFER_MISS:    1289198
 AVG DBUS CONGESTED CYCLE: 3.92
WQ ROW_BUFFER_HIT: Channel 0 
  ROW_BUFFER_MISS:      83238
  FULL:     505842

Channel 1 RQ ROW_BUFFER_HIT:     163107
  ROW_BUFFER_MISS:    1284351
 AVG DBUS CONGESTED CYCLE: 3.919
WQ ROW_BUFFER_HIT: Channel 1 
  ROW_BUFFER_MISS:      83817
  FULL:     504062
