Original cmd-> /home/grads/r/rdas40/ECEN676/ChampSim/bin/multi_core/nopref_2ch --warmup_instructions=50000000 --simulation_instructions=150000000  /home/grads/r/rdas40/dpc3_traces/620.omnetpp_s-874B.champsimtrace.xz /home/grads/r/rdas40/dpc3_traces/649.fotonik3d_s-1176B.champsimtrace.xz /home/grads/r/rdas40/dpc3_traces/623.xalancbmk_s-700B.champsimtrace.xz /home/grads/r/rdas40/dpc3_traces/621.wrf_s-575B.champsimtrace.xz
WARNING: physical memory size is smaller than virtual memory size.
WARNING: option --warmup_instructions is deprecated. Use --warmup-instructions instead.
WARNING: option --simulation_instructions is deprecated. Use --simulation-instructions instead.

*** ChampSim Multicore Out-of-Order Simulator ***
Warmup Instructions: 50000000
Simulation Instructions: 150000000
Number of CPUs: 4
Page size: 4096

Off-chip DRAM Size: 8 GiB Channels: 2 Width: 64-bit Data Race: 3200 MT/s
Heartbeat CPU 1 instructions: 10000000 cycles: 2500043 heartbeat IPC: 4 cumulative IPC: 4 (Simulation time: 00 hr 02 min 57 sec)
Heartbeat CPU 3 instructions: 10000001 cycles: 2502764 heartbeat IPC: 3.996 cumulative IPC: 3.996 (Simulation time: 00 hr 02 min 57 sec)
Heartbeat CPU 2 instructions: 10000002 cycles: 3063848 heartbeat IPC: 3.264 cumulative IPC: 3.264 (Simulation time: 00 hr 03 min 37 sec)
Heartbeat CPU 0 instructions: 10000001 cycles: 4174658 heartbeat IPC: 2.395 cumulative IPC: 2.395 (Simulation time: 00 hr 04 min 56 sec)
Heartbeat CPU 1 instructions: 20000000 cycles: 5000043 heartbeat IPC: 4 cumulative IPC: 4 (Simulation time: 00 hr 05 min 55 sec)
Heartbeat CPU 3 instructions: 20000000 cycles: 5005381 heartbeat IPC: 3.996 cumulative IPC: 3.996 (Simulation time: 00 hr 05 min 55 sec)
Heartbeat CPU 2 instructions: 20000002 cycles: 5749095 heartbeat IPC: 3.724 cumulative IPC: 3.479 (Simulation time: 00 hr 06 min 48 sec)
Heartbeat CPU 1 instructions: 30000000 cycles: 7500043 heartbeat IPC: 4 cumulative IPC: 4 (Simulation time: 00 hr 08 min 55 sec)
Heartbeat CPU 3 instructions: 30000001 cycles: 7507708 heartbeat IPC: 3.996 cumulative IPC: 3.996 (Simulation time: 00 hr 08 min 56 sec)
Heartbeat CPU 0 instructions: 20000003 cycles: 8345740 heartbeat IPC: 2.397 cumulative IPC: 2.396 (Simulation time: 00 hr 09 min 57 sec)
Heartbeat CPU 2 instructions: 30000001 cycles: 8967268 heartbeat IPC: 3.107 cumulative IPC: 3.346 (Simulation time: 00 hr 10 min 43 sec)
Heartbeat CPU 1 instructions: 40000000 cycles: 10000043 heartbeat IPC: 4 cumulative IPC: 4 (Simulation time: 00 hr 11 min 58 sec)
Heartbeat CPU 3 instructions: 40000001 cycles: 10010384 heartbeat IPC: 3.996 cumulative IPC: 3.996 (Simulation time: 00 hr 11 min 59 sec)
Heartbeat CPU 2 instructions: 40000004 cycles: 12220282 heartbeat IPC: 3.074 cumulative IPC: 3.273 (Simulation time: 00 hr 14 min 40 sec)
Heartbeat CPU 1 instructions: 50000000 cycles: 12500043 heartbeat IPC: 4 cumulative IPC: 4 (Simulation time: 00 hr 15 min 00 sec)
Warmup finished CPU 1 instructions: 50000000 cycles: 12500044 cumulative IPC: 4 (Simulation time: 00 hr 15 min 00 sec)
Heartbeat CPU 3 instructions: 50000002 cycles: 12513112 heartbeat IPC: 3.996 cumulative IPC: 3.996 (Simulation time: 00 hr 15 min 01 sec)
Warmup finished CPU 3 instructions: 50000002 cycles: 12513113 cumulative IPC: 3.996 (Simulation time: 00 hr 15 min 01 sec)
Heartbeat CPU 0 instructions: 30000001 cycles: 12519105 heartbeat IPC: 2.396 cumulative IPC: 2.396 (Simulation time: 00 hr 15 min 02 sec)
Heartbeat CPU 1 instructions: 60000000 cycles: 15000043 heartbeat IPC: 4 cumulative IPC: 4 (Simulation time: 00 hr 18 min 01 sec)
Heartbeat CPU 3 instructions: 60000002 cycles: 15015794 heartbeat IPC: 3.996 cumulative IPC: 3.996 (Simulation time: 00 hr 18 min 02 sec)
Heartbeat CPU 2 instructions: 50000002 cycles: 15373771 heartbeat IPC: 3.171 cumulative IPC: 3.252 (Simulation time: 00 hr 18 min 28 sec)
Warmup finished CPU 2 instructions: 50000002 cycles: 15373772 cumulative IPC: 3.252 (Simulation time: 00 hr 18 min 28 sec)
Heartbeat CPU 0 instructions: 40000000 cycles: 16705597 heartbeat IPC: 2.389 cumulative IPC: 2.394 (Simulation time: 00 hr 20 min 03 sec)
Heartbeat CPU 1 instructions: 70000000 cycles: 17500043 heartbeat IPC: 4 cumulative IPC: 4 (Simulation time: 00 hr 21 min 00 sec)
Heartbeat CPU 3 instructions: 70000003 cycles: 17520631 heartbeat IPC: 3.992 cumulative IPC: 3.995 (Simulation time: 00 hr 21 min 01 sec)
Heartbeat CPU 2 instructions: 60000001 cycles: 18081952 heartbeat IPC: 3.693 cumulative IPC: 3.318 (Simulation time: 00 hr 21 min 40 sec)
Heartbeat CPU 1 instructions: 80000000 cycles: 20000043 heartbeat IPC: 4 cumulative IPC: 4 (Simulation time: 00 hr 23 min 55 sec)
Heartbeat CPU 3 instructions: 80000001 cycles: 20022814 heartbeat IPC: 3.997 cumulative IPC: 3.995 (Simulation time: 00 hr 23 min 57 sec)
Heartbeat CPU 2 instructions: 70000001 cycles: 20807995 heartbeat IPC: 3.668 cumulative IPC: 3.364 (Simulation time: 00 hr 24 min 54 sec)
Heartbeat CPU 0 instructions: 50000003 cycles: 20870996 heartbeat IPC: 2.401 cumulative IPC: 2.396 (Simulation time: 00 hr 24 min 58 sec)
Warmup finished CPU 0 instructions: 50000003 cycles: 20870997 cumulative IPC: 2.396 (Simulation time: 00 hr 24 min 58 sec)
Warmup complete CPU 0 instructions: 50000003 cycles: 20870997 cumulative IPC: 2.396 (Simulation time: 00 hr 24 min 58 sec)
Warmup complete CPU 1 instructions: 83483812 cycles: 20870997 cumulative IPC: 4 (Simulation time: 00 hr 24 min 58 sec)
Warmup complete CPU 2 instructions: 70215245 cycles: 20870997 cumulative IPC: 3.364 (Simulation time: 00 hr 24 min 58 sec)
Warmup complete CPU 3 instructions: 83392729 cycles: 20870997 cumulative IPC: 3.996 (Simulation time: 00 hr 24 min 58 sec)
Heartbeat CPU 3 instructions: 90000002 cycles: 23978102 heartbeat IPC: 2.528 cumulative IPC: 2.127 (Simulation time: 00 hr 27 min 17 sec)
Heartbeat CPU 1 instructions: 90000004 cycles: 27200854 heartbeat IPC: 1.389 cumulative IPC: 1.029 (Simulation time: 00 hr 29 min 48 sec)
Heartbeat CPU 2 instructions: 80000001 cycles: 28499455 heartbeat IPC: 1.3 cumulative IPC: 1.283 (Simulation time: 00 hr 30 min 49 sec)
Heartbeat CPU 3 instructions: 100000000 cycles: 28702607 heartbeat IPC: 2.117 cumulative IPC: 2.121 (Simulation time: 00 hr 30 min 59 sec)
Heartbeat CPU 3 instructions: 110000001 cycles: 33413975 heartbeat IPC: 2.123 cumulative IPC: 2.121 (Simulation time: 00 hr 34 min 45 sec)
Heartbeat CPU 2 instructions: 90000001 cycles: 34823324 heartbeat IPC: 1.581 cumulative IPC: 1.418 (Simulation time: 00 hr 35 min 57 sec)
Heartbeat CPU 1 instructions: 100000002 cycles: 36810596 heartbeat IPC: 1.041 cumulative IPC: 1.036 (Simulation time: 00 hr 37 min 24 sec)
Heartbeat CPU 3 instructions: 120000000 cycles: 38056190 heartbeat IPC: 2.154 cumulative IPC: 2.13 (Simulation time: 00 hr 38 min 23 sec)
Heartbeat CPU 0 instructions: 60000000 cycles: 42383435 heartbeat IPC: 0.4648 cumulative IPC: 0.4648 (Simulation time: 00 hr 41 min 44 sec)
Heartbeat CPU 2 instructions: 100000002 cycles: 42386599 heartbeat IPC: 1.322 cumulative IPC: 1.384 (Simulation time: 00 hr 41 min 45 sec)
Heartbeat CPU 3 instructions: 130000002 cycles: 42725496 heartbeat IPC: 2.142 cumulative IPC: 2.133 (Simulation time: 00 hr 42 min 00 sec)
Heartbeat CPU 1 instructions: 110000004 cycles: 46670301 heartbeat IPC: 1.014 cumulative IPC: 1.028 (Simulation time: 00 hr 45 min 03 sec)
Heartbeat CPU 3 instructions: 140000000 cycles: 47422329 heartbeat IPC: 2.129 cumulative IPC: 2.132 (Simulation time: 00 hr 45 min 37 sec)
Heartbeat CPU 2 instructions: 110000004 cycles: 49202398 heartbeat IPC: 1.467 cumulative IPC: 1.404 (Simulation time: 00 hr 47 min 00 sec)
Heartbeat CPU 3 instructions: 150000004 cycles: 52050197 heartbeat IPC: 2.161 cumulative IPC: 2.136 (Simulation time: 00 hr 49 min 11 sec)
Heartbeat CPU 2 instructions: 120000000 cycles: 55847199 heartbeat IPC: 1.505 cumulative IPC: 1.423 (Simulation time: 00 hr 52 min 08 sec)
Heartbeat CPU 3 instructions: 160000003 cycles: 56676073 heartbeat IPC: 2.162 cumulative IPC: 2.14 (Simulation time: 00 hr 52 min 47 sec)
Heartbeat CPU 1 instructions: 120000004 cycles: 57048363 heartbeat IPC: 0.9636 cumulative IPC: 1.009 (Simulation time: 00 hr 53 min 04 sec)
Heartbeat CPU 3 instructions: 170000003 cycles: 61282055 heartbeat IPC: 2.171 cumulative IPC: 2.143 (Simulation time: 00 hr 56 min 35 sec)
Heartbeat CPU 2 instructions: 130000001 cycles: 61380146 heartbeat IPC: 1.807 cumulative IPC: 1.476 (Simulation time: 00 hr 56 min 40 sec)
Heartbeat CPU 0 instructions: 70000002 cycles: 64890430 heartbeat IPC: 0.4443 cumulative IPC: 0.4543 (Simulation time: 00 hr 59 min 33 sec)
Heartbeat CPU 3 instructions: 180000004 cycles: 65902867 heartbeat IPC: 2.164 cumulative IPC: 2.145 (Simulation time: 01 hr 00 min 22 sec)
Heartbeat CPU 1 instructions: 130000000 cycles: 66783963 heartbeat IPC: 1.027 cumulative IPC: 1.013 (Simulation time: 01 hr 01 min 06 sec)
Heartbeat CPU 2 instructions: 140000000 cycles: 67285239 heartbeat IPC: 1.693 cumulative IPC: 1.504 (Simulation time: 01 hr 01 min 29 sec)
Heartbeat CPU 3 instructions: 190000002 cycles: 70531783 heartbeat IPC: 2.16 cumulative IPC: 2.147 (Simulation time: 01 hr 03 min 55 sec)
Heartbeat CPU 2 instructions: 150000004 cycles: 75155774 heartbeat IPC: 1.271 cumulative IPC: 1.47 (Simulation time: 01 hr 07 min 34 sec)
Heartbeat CPU 3 instructions: 200000000 cycles: 75175363 heartbeat IPC: 2.154 cumulative IPC: 2.147 (Simulation time: 01 hr 07 min 35 sec)
Heartbeat CPU 1 instructions: 140000002 cycles: 76728897 heartbeat IPC: 1.006 cumulative IPC: 1.012 (Simulation time: 01 hr 08 min 48 sec)
Heartbeat CPU 3 instructions: 210000000 cycles: 79766836 heartbeat IPC: 2.178 cumulative IPC: 2.15 (Simulation time: 01 hr 11 min 16 sec)
Heartbeat CPU 2 instructions: 160000002 cycles: 82168122 heartbeat IPC: 1.426 cumulative IPC: 1.465 (Simulation time: 01 hr 13 min 05 sec)
Heartbeat CPU 3 instructions: 220000000 cycles: 84351479 heartbeat IPC: 2.181 cumulative IPC: 2.152 (Simulation time: 01 hr 14 min 48 sec)
Heartbeat CPU 1 instructions: 150000001 cycles: 86483400 heartbeat IPC: 1.025 cumulative IPC: 1.014 (Simulation time: 01 hr 16 min 31 sec)
Heartbeat CPU 0 instructions: 80000002 cycles: 87144771 heartbeat IPC: 0.4494 cumulative IPC: 0.4527 (Simulation time: 01 hr 17 min 04 sec)
Heartbeat CPU 2 instructions: 170000004 cycles: 88831488 heartbeat IPC: 1.501 cumulative IPC: 1.468 (Simulation time: 01 hr 18 min 20 sec)
Heartbeat CPU 3 instructions: 230000001 cycles: 88956109 heartbeat IPC: 2.172 cumulative IPC: 2.153 (Simulation time: 01 hr 18 min 26 sec)
Simulation finished CPU 3 instructions: 150000004 cycles: 69666958 cumulative IPC: 2.153 (Simulation time: 01 hr 19 min 40 sec)
Heartbeat CPU 3 instructions: 240000000 cycles: 93584488 heartbeat IPC: 2.161 cumulative IPC: 2.154 (Simulation time: 01 hr 22 min 02 sec)
Heartbeat CPU 2 instructions: 180000002 cycles: 95635665 heartbeat IPC: 1.47 cumulative IPC: 1.468 (Simulation time: 01 hr 23 min 36 sec)
Heartbeat CPU 1 instructions: 160000003 cycles: 96534788 heartbeat IPC: 0.9949 cumulative IPC: 1.011 (Simulation time: 01 hr 24 min 18 sec)
Heartbeat CPU 3 instructions: 250000002 cycles: 98219456 heartbeat IPC: 2.158 cumulative IPC: 2.154 (Simulation time: 01 hr 25 min 36 sec)
Heartbeat CPU 2 instructions: 190000001 cycles: 102301167 heartbeat IPC: 1.5 cumulative IPC: 1.471 (Simulation time: 01 hr 28 min 48 sec)
Heartbeat CPU 3 instructions: 260000000 cycles: 102899353 heartbeat IPC: 2.137 cumulative IPC: 2.153 (Simulation time: 01 hr 29 min 16 sec)
Heartbeat CPU 1 instructions: 170000000 cycles: 106735043 heartbeat IPC: 0.9804 cumulative IPC: 1.008 (Simulation time: 01 hr 32 min 17 sec)
Heartbeat CPU 3 instructions: 270000000 cycles: 107581698 heartbeat IPC: 2.136 cumulative IPC: 2.152 (Simulation time: 01 hr 32 min 56 sec)
Heartbeat CPU 2 instructions: 200000002 cycles: 108277673 heartbeat IPC: 1.673 cumulative IPC: 1.485 (Simulation time: 01 hr 33 min 32 sec)
Heartbeat CPU 0 instructions: 90000003 cycles: 109306340 heartbeat IPC: 0.4512 cumulative IPC: 0.4523 (Simulation time: 01 hr 34 min 24 sec)
Heartbeat CPU 3 instructions: 280000001 cycles: 112223066 heartbeat IPC: 2.155 cumulative IPC: 2.152 (Simulation time: 01 hr 36 min 47 sec)
Heartbeat CPU 2 instructions: 210000001 cycles: 113549901 heartbeat IPC: 1.897 cumulative IPC: 1.508 (Simulation time: 01 hr 37 min 53 sec)
Heartbeat CPU 1 instructions: 180000002 cycles: 116478445 heartbeat IPC: 1.026 cumulative IPC: 1.01 (Simulation time: 01 hr 40 min 12 sec)
Heartbeat CPU 3 instructions: 290000004 cycles: 116871583 heartbeat IPC: 2.151 cumulative IPC: 2.152 (Simulation time: 01 hr 40 min 29 sec)
Heartbeat CPU 3 instructions: 300000000 cycles: 121509048 heartbeat IPC: 2.156 cumulative IPC: 2.152 (Simulation time: 01 hr 43 min 53 sec)
Heartbeat CPU 2 instructions: 220000000 cycles: 121586081 heartbeat IPC: 1.244 cumulative IPC: 1.487 (Simulation time: 01 hr 43 min 57 sec)
Simulation finished CPU 2 instructions: 150000003 cycles: 100869383 cumulative IPC: 1.487 (Simulation time: 01 hr 44 min 04 sec)
Heartbeat CPU 3 instructions: 310000001 cycles: 126145635 heartbeat IPC: 2.157 cumulative IPC: 2.153 (Simulation time: 01 hr 47 min 28 sec)
Heartbeat CPU 1 instructions: 190000001 cycles: 127238600 heartbeat IPC: 0.9294 cumulative IPC: 1.001 (Simulation time: 01 hr 48 min 19 sec)
Heartbeat CPU 2 instructions: 230000000 cycles: 128519371 heartbeat IPC: 1.442 cumulative IPC: 1.484 (Simulation time: 01 hr 49 min 19 sec)
Heartbeat CPU 3 instructions: 320000001 cycles: 130777034 heartbeat IPC: 2.159 cumulative IPC: 2.153 (Simulation time: 01 hr 51 min 04 sec)
Heartbeat CPU 0 instructions: 100000000 cycles: 133415242 heartbeat IPC: 0.4148 cumulative IPC: 0.4443 (Simulation time: 01 hr 53 min 07 sec)
Heartbeat CPU 2 instructions: 240000001 cycles: 135082201 heartbeat IPC: 1.524 cumulative IPC: 1.487 (Simulation time: 01 hr 54 min 25 sec)
Heartbeat CPU 3 instructions: 330000001 cycles: 135404326 heartbeat IPC: 2.161 cumulative IPC: 2.153 (Simulation time: 01 hr 54 min 40 sec)
Heartbeat CPU 1 instructions: 200000000 cycles: 138659659 heartbeat IPC: 0.8756 cumulative IPC: 0.9892 (Simulation time: 01 hr 57 min 07 sec)
Heartbeat CPU 3 instructions: 340000000 cycles: 141360453 heartbeat IPC: 1.679 cumulative IPC: 2.13 (Simulation time: 01 hr 59 min 16 sec)
Heartbeat CPU 2 instructions: 250000001 cycles: 141738466 heartbeat IPC: 1.502 cumulative IPC: 1.487 (Simulation time: 01 hr 59 min 34 sec)
Heartbeat CPU 3 instructions: 350000002 cycles: 146803530 heartbeat IPC: 1.837 cumulative IPC: 2.117 (Simulation time: 02 hr 03 min 34 sec)
Heartbeat CPU 2 instructions: 260000002 cycles: 148088003 heartbeat IPC: 1.575 cumulative IPC: 1.492 (Simulation time: 02 hr 04 min 37 sec)
Heartbeat CPU 1 instructions: 210000000 cycles: 149592737 heartbeat IPC: 0.9147 cumulative IPC: 0.9829 (Simulation time: 02 hr 05 min 48 sec)
Heartbeat CPU 3 instructions: 360000003 cycles: 152042878 heartbeat IPC: 1.909 cumulative IPC: 2.109 (Simulation time: 02 hr 07 min 56 sec)
Heartbeat CPU 2 instructions: 270000000 cycles: 153279662 heartbeat IPC: 1.926 cumulative IPC: 1.509 (Simulation time: 02 hr 09 min 01 sec)
Heartbeat CPU 0 instructions: 110000004 cycles: 156844354 heartbeat IPC: 0.4268 cumulative IPC: 0.4413 (Simulation time: 02 hr 12 min 09 sec)
Heartbeat CPU 3 instructions: 370000000 cycles: 157154764 heartbeat IPC: 1.956 cumulative IPC: 2.103 (Simulation time: 02 hr 12 min 25 sec)
Heartbeat CPU 2 instructions: 280000000 cycles: 158419514 heartbeat IPC: 1.946 cumulative IPC: 1.525 (Simulation time: 02 hr 13 min 30 sec)
Heartbeat CPU 1 instructions: 220000001 cycles: 159169465 heartbeat IPC: 1.044 cumulative IPC: 0.9871 (Simulation time: 02 hr 14 min 09 sec)
Heartbeat CPU 3 instructions: 380000002 cycles: 162250865 heartbeat IPC: 1.962 cumulative IPC: 2.098 (Simulation time: 02 hr 16 min 46 sec)
Heartbeat CPU 2 instructions: 290000003 cycles: 164419212 heartbeat IPC: 1.667 cumulative IPC: 1.531 (Simulation time: 02 hr 18 min 31 sec)
Heartbeat CPU 3 instructions: 390000001 cycles: 174234134 heartbeat IPC: 0.8345 cumulative IPC: 1.999 (Simulation time: 02 hr 24 min 30 sec)
Heartbeat CPU 1 instructions: 230000001 cycles: 175746661 heartbeat IPC: 0.6032 cumulative IPC: 0.946 (Simulation time: 02 hr 25 min 41 sec)
Heartbeat CPU 2 instructions: 300000001 cycles: 177646580 heartbeat IPC: 0.756 cumulative IPC: 1.466 (Simulation time: 02 hr 27 min 12 sec)
Heartbeat CPU 3 instructions: 400000003 cycles: 179136638 heartbeat IPC: 2.04 cumulative IPC: 2 (Simulation time: 02 hr 28 min 25 sec)
Simulation finished CPU 1 instructions: 150000004 cycles: 158793816 cumulative IPC: 0.9446 (Simulation time: 02 hr 28 min 50 sec)
Heartbeat CPU 3 instructions: 410000003 cycles: 184190059 heartbeat IPC: 1.979 cumulative IPC: 2 (Simulation time: 02 hr 32 min 29 sec)
Heartbeat CPU 2 instructions: 310000001 cycles: 184793474 heartbeat IPC: 1.399 cumulative IPC: 1.463 (Simulation time: 02 hr 32 min 56 sec)
Heartbeat CPU 1 instructions: 240000001 cycles: 186651919 heartbeat IPC: 0.917 cumulative IPC: 0.9441 (Simulation time: 02 hr 34 min 33 sec)
Heartbeat CPU 0 instructions: 120000004 cycles: 186801572 heartbeat IPC: 0.3338 cumulative IPC: 0.4219 (Simulation time: 02 hr 34 min 41 sec)
Heartbeat CPU 3 instructions: 420000001 cycles: 189368407 heartbeat IPC: 1.931 cumulative IPC: 1.998 (Simulation time: 02 hr 36 min 40 sec)
Heartbeat CPU 2 instructions: 320000001 cycles: 192336274 heartbeat IPC: 1.326 cumulative IPC: 1.457 (Simulation time: 02 hr 38 min 57 sec)
Heartbeat CPU 3 instructions: 430000004 cycles: 194735686 heartbeat IPC: 1.863 cumulative IPC: 1.994 (Simulation time: 02 hr 40 min 53 sec)
Heartbeat CPU 1 instructions: 250000000 cycles: 198546492 heartbeat IPC: 0.8407 cumulative IPC: 0.9372 (Simulation time: 02 hr 43 min 51 sec)
Heartbeat CPU 2 instructions: 330000000 cycles: 199722918 heartbeat IPC: 1.354 cumulative IPC: 1.453 (Simulation time: 02 hr 44 min 46 sec)
Heartbeat CPU 3 instructions: 440000004 cycles: 200057829 heartbeat IPC: 1.879 cumulative IPC: 1.99 (Simulation time: 02 hr 45 min 03 sec)
Heartbeat CPU 3 instructions: 450000000 cycles: 205557554 heartbeat IPC: 1.818 cumulative IPC: 1.985 (Simulation time: 02 hr 49 min 25 sec)
Heartbeat CPU 2 instructions: 340000000 cycles: 206592492 heartbeat IPC: 1.456 cumulative IPC: 1.453 (Simulation time: 02 hr 50 min 15 sec)
Heartbeat CPU 1 instructions: 260000004 cycles: 210979236 heartbeat IPC: 0.8043 cumulative IPC: 0.9285 (Simulation time: 02 hr 53 min 45 sec)
Heartbeat CPU 3 instructions: 460000000 cycles: 210980695 heartbeat IPC: 1.844 cumulative IPC: 1.981 (Simulation time: 02 hr 53 min 45 sec)
Heartbeat CPU 2 instructions: 350000003 cycles: 213277020 heartbeat IPC: 1.496 cumulative IPC: 1.454 (Simulation time: 02 hr 55 min 36 sec)
Heartbeat CPU 0 instructions: 130000002 cycles: 214817657 heartbeat IPC: 0.3569 cumulative IPC: 0.4125 (Simulation time: 02 hr 56 min 52 sec)
Heartbeat CPU 3 instructions: 470000003 cycles: 216103824 heartbeat IPC: 1.952 cumulative IPC: 1.98 (Simulation time: 02 hr 57 min 55 sec)
Heartbeat CPU 2 instructions: 360000001 cycles: 219938766 heartbeat IPC: 1.501 cumulative IPC: 1.456 (Simulation time: 03 hr 00 min 59 sec)
Heartbeat CPU 3 instructions: 480000000 cycles: 221428437 heartbeat IPC: 1.878 cumulative IPC: 1.978 (Simulation time: 03 hr 02 min 11 sec)
Heartbeat CPU 1 instructions: 270000003 cycles: 222057622 heartbeat IPC: 0.9027 cumulative IPC: 0.9271 (Simulation time: 03 hr 02 min 44 sec)
Heartbeat CPU 2 instructions: 370000000 cycles: 226645536 heartbeat IPC: 1.491 cumulative IPC: 1.457 (Simulation time: 03 hr 06 min 16 sec)
Heartbeat CPU 3 instructions: 490000002 cycles: 228316847 heartbeat IPC: 1.452 cumulative IPC: 1.96 (Simulation time: 03 hr 07 min 36 sec)
Heartbeat CPU 2 instructions: 380000003 cycles: 232095390 heartbeat IPC: 1.835 cumulative IPC: 1.467 (Simulation time: 03 hr 10 min 46 sec)
Heartbeat CPU 1 instructions: 280000003 cycles: 232496025 heartbeat IPC: 0.958 cumulative IPC: 0.9286 (Simulation time: 03 hr 11 min 06 sec)
Heartbeat CPU 3 instructions: 500000000 cycles: 234279978 heartbeat IPC: 1.677 cumulative IPC: 1.952 (Simulation time: 03 hr 12 min 36 sec)
Heartbeat CPU 2 instructions: 390000000 cycles: 237207214 heartbeat IPC: 1.956 cumulative IPC: 1.478 (Simulation time: 03 hr 15 min 04 sec)
Heartbeat CPU 3 instructions: 510000002 cycles: 240172722 heartbeat IPC: 1.697 cumulative IPC: 1.945 (Simulation time: 03 hr 17 min 36 sec)
Heartbeat CPU 0 instructions: 140000001 cycles: 240331261 heartbeat IPC: 0.3919 cumulative IPC: 0.4101 (Simulation time: 03 hr 17 min 44 sec)
Heartbeat CPU 2 instructions: 400000000 cycles: 242606491 heartbeat IPC: 1.852 cumulative IPC: 1.487 (Simulation time: 03 hr 19 min 39 sec)
Heartbeat CPU 1 instructions: 290000003 cycles: 243365353 heartbeat IPC: 0.92 cumulative IPC: 0.9282 (Simulation time: 03 hr 20 min 17 sec)
Heartbeat CPU 3 instructions: 520000000 cycles: 246068288 heartbeat IPC: 1.696 cumulative IPC: 1.939 (Simulation time: 03 hr 22 min 29 sec)
Heartbeat CPU 2 instructions: 410000001 cycles: 248565464 heartbeat IPC: 1.678 cumulative IPC: 1.492 (Simulation time: 03 hr 24 min 31 sec)
Heartbeat CPU 3 instructions: 530000003 cycles: 251899178 heartbeat IPC: 1.715 cumulative IPC: 1.933 (Simulation time: 03 hr 27 min 09 sec)
Heartbeat CPU 1 instructions: 300000003 cycles: 254560495 heartbeat IPC: 0.8932 cumulative IPC: 0.9265 (Simulation time: 03 hr 29 min 11 sec)
Heartbeat CPU 2 instructions: 420000002 cycles: 257318521 heartbeat IPC: 1.142 cumulative IPC: 1.479 (Simulation time: 03 hr 31 min 08 sec)
Heartbeat CPU 3 instructions: 540000000 cycles: 257743836 heartbeat IPC: 1.711 cumulative IPC: 1.928 (Simulation time: 03 hr 31 min 27 sec)
Heartbeat CPU 3 instructions: 550000002 cycles: 263656482 heartbeat IPC: 1.691 cumulative IPC: 1.922 (Simulation time: 03 hr 35 min 58 sec)
Heartbeat CPU 2 instructions: 430000002 cycles: 264689759 heartbeat IPC: 1.357 cumulative IPC: 1.476 (Simulation time: 03 hr 36 min 47 sec)
Heartbeat CPU 0 instructions: 150000003 cycles: 266302985 heartbeat IPC: 0.385 cumulative IPC: 0.4074 (Simulation time: 03 hr 38 min 01 sec)
Heartbeat CPU 1 instructions: 310000002 cycles: 266571923 heartbeat IPC: 0.8325 cumulative IPC: 0.9219 (Simulation time: 03 hr 38 min 13 sec)
Heartbeat CPU 3 instructions: 560000001 cycles: 269547393 heartbeat IPC: 1.698 cumulative IPC: 1.917 (Simulation time: 03 hr 40 min 30 sec)
Heartbeat CPU 2 instructions: 440000000 cycles: 271707686 heartbeat IPC: 1.425 cumulative IPC: 1.474 (Simulation time: 03 hr 42 min 10 sec)
Heartbeat CPU 3 instructions: 570000004 cycles: 275562222 heartbeat IPC: 1.663 cumulative IPC: 1.911 (Simulation time: 03 hr 45 min 08 sec)
Heartbeat CPU 2 instructions: 450000001 cycles: 278711039 heartbeat IPC: 1.428 cumulative IPC: 1.473 (Simulation time: 03 hr 47 min 33 sec)
Heartbeat CPU 1 instructions: 320000003 cycles: 279016377 heartbeat IPC: 0.8036 cumulative IPC: 0.9162 (Simulation time: 03 hr 47 min 49 sec)
Heartbeat CPU 3 instructions: 580000000 cycles: 281503062 heartbeat IPC: 1.683 cumulative IPC: 1.905 (Simulation time: 03 hr 49 min 55 sec)
Heartbeat CPU 2 instructions: 460000002 cycles: 284024394 heartbeat IPC: 1.882 cumulative IPC: 1.481 (Simulation time: 03 hr 52 min 00 sec)
Heartbeat CPU 3 instructions: 590000004 cycles: 287336088 heartbeat IPC: 1.714 cumulative IPC: 1.901 (Simulation time: 03 hr 54 min 41 sec)
Heartbeat CPU 1 instructions: 330000002 cycles: 290352762 heartbeat IPC: 0.8821 cumulative IPC: 0.9148 (Simulation time: 03 hr 56 min 53 sec)
Heartbeat CPU 2 instructions: 470000003 cycles: 292686077 heartbeat IPC: 1.155 cumulative IPC: 1.471 (Simulation time: 03 hr 58 min 38 sec)
Heartbeat CPU 0 instructions: 160000002 cycles: 292792137 heartbeat IPC: 0.3775 cumulative IPC: 0.4045 (Simulation time: 03 hr 58 min 43 sec)
Heartbeat CPU 3 instructions: 600000003 cycles: 293135805 heartbeat IPC: 1.724 cumulative IPC: 1.897 (Simulation time: 03 hr 59 min 00 sec)
Heartbeat CPU 3 instructions: 610000000 cycles: 299022836 heartbeat IPC: 1.699 cumulative IPC: 1.893 (Simulation time: 04 hr 03 min 36 sec)
Heartbeat CPU 2 instructions: 480000000 cycles: 299713344 heartbeat IPC: 1.423 cumulative IPC: 1.47 (Simulation time: 04 hr 04 min 07 sec)
Heartbeat CPU 1 instructions: 340000001 cycles: 302673253 heartbeat IPC: 0.8117 cumulative IPC: 0.9103 (Simulation time: 04 hr 06 min 14 sec)
Heartbeat CPU 2 instructions: 490000002 cycles: 306939954 heartbeat IPC: 1.384 cumulative IPC: 1.467 (Simulation time: 04 hr 09 min 11 sec)
Heartbeat CPU 3 instructions: 620000003 cycles: 316778877 heartbeat IPC: 0.5632 cumulative IPC: 1.813 (Simulation time: 04 hr 15 min 45 sec)
Heartbeat CPU 2 instructions: 500000000 cycles: 317183324 heartbeat IPC: 0.9762 cumulative IPC: 1.45 (Simulation time: 04 hr 16 min 01 sec)
Heartbeat CPU 1 instructions: 350000000 cycles: 325213957 heartbeat IPC: 0.4436 cumulative IPC: 0.8757 (Simulation time: 04 hr 21 min 21 sec)
Heartbeat CPU 2 instructions: 510000001 cycles: 327229517 heartbeat IPC: 0.9954 cumulative IPC: 1.436 (Simulation time: 04 hr 22 min 45 sec)
Heartbeat CPU 3 instructions: 630000003 cycles: 329644955 heartbeat IPC: 0.7772 cumulative IPC: 1.77 (Simulation time: 04 hr 24 min 32 sec)
Heartbeat CPU 0 instructions: 170000002 cycles: 331249811 heartbeat IPC: 0.26 cumulative IPC: 0.3866 (Simulation time: 04 hr 25 min 43 sec)
Heartbeat CPU 2 instructions: 520000000 cycles: 335156871 heartbeat IPC: 1.261 cumulative IPC: 1.431 (Simulation time: 04 hr 28 min 32 sec)
Heartbeat CPU 3 instructions: 640000003 cycles: 340971787 heartbeat IPC: 0.8829 cumulative IPC: 1.739 (Simulation time: 04 hr 32 min 49 sec)
Heartbeat CPU 1 instructions: 360000004 cycles: 342036615 heartbeat IPC: 0.5944 cumulative IPC: 0.861 (Simulation time: 04 hr 33 min 38 sec)
Heartbeat CPU 2 instructions: 530000001 cycles: 342325475 heartbeat IPC: 1.395 cumulative IPC: 1.43 (Simulation time: 04 hr 33 min 51 sec)
Heartbeat CPU 2 instructions: 540000000 cycles: 349459220 heartbeat IPC: 1.402 cumulative IPC: 1.43 (Simulation time: 04 hr 39 min 11 sec)
Heartbeat CPU 3 instructions: 650000001 cycles: 352043460 heartbeat IPC: 0.9032 cumulative IPC: 1.711 (Simulation time: 04 hr 41 min 04 sec)
Heartbeat CPU 2 instructions: 550000004 cycles: 356206934 heartbeat IPC: 1.482 cumulative IPC: 1.431 (Simulation time: 04 hr 44 min 16 sec)
Heartbeat CPU 1 instructions: 370000004 cycles: 356604927 heartbeat IPC: 0.6864 cumulative IPC: 0.8534 (Simulation time: 04 hr 44 min 34 sec)
Heartbeat CPU 3 instructions: 660000001 cycles: 361336994 heartbeat IPC: 1.076 cumulative IPC: 1.694 (Simulation time: 04 hr 48 min 11 sec)
Heartbeat CPU 2 instructions: 560000001 cycles: 362931764 heartbeat IPC: 1.487 cumulative IPC: 1.432 (Simulation time: 04 hr 49 min 21 sec)
Heartbeat CPU 0 instructions: 180000001 cycles: 365048823 heartbeat IPC: 0.2959 cumulative IPC: 0.3777 (Simulation time: 04 hr 50 min 59 sec)
Heartbeat CPU 2 instructions: 570000004 cycles: 368081635 heartbeat IPC: 1.942 cumulative IPC: 1.439 (Simulation time: 04 hr 53 min 31 sec)
Heartbeat CPU 1 instructions: 380000004 cycles: 370318955 heartbeat IPC: 0.7292 cumulative IPC: 0.8485 (Simulation time: 04 hr 55 min 14 sec)
Heartbeat CPU 3 instructions: 670000001 cycles: 371845455 heartbeat IPC: 0.9516 cumulative IPC: 1.671 (Simulation time: 04 hr 56 min 28 sec)
Heartbeat CPU 2 instructions: 580000000 cycles: 373761400 heartbeat IPC: 1.761 cumulative IPC: 1.445 (Simulation time: 04 hr 57 min 54 sec)
Heartbeat CPU 2 instructions: 590000001 cycles: 379805530 heartbeat IPC: 1.654 cumulative IPC: 1.448 (Simulation time: 05 hr 02 min 19 sec)
Heartbeat CPU 2 instructions: 600000000 cycles: 386389548 heartbeat IPC: 1.519 cumulative IPC: 1.449 (Simulation time: 05 hr 06 min 55 sec)
Heartbeat CPU 1 instructions: 390000003 cycles: 390114894 heartbeat IPC: 0.5052 cumulative IPC: 0.8301 (Simulation time: 05 hr 09 min 45 sec)
Heartbeat CPU 3 instructions: 680000004 cycles: 391289165 heartbeat IPC: 0.5143 cumulative IPC: 1.611 (Simulation time: 05 hr 10 min 41 sec)
Heartbeat CPU 2 instructions: 610000000 cycles: 393072585 heartbeat IPC: 1.496 cumulative IPC: 1.45 (Simulation time: 05 hr 12 min 05 sec)
Heartbeat CPU 3 instructions: 690000001 cycles: 398553568 heartbeat IPC: 1.377 cumulative IPC: 1.606 (Simulation time: 05 hr 16 min 27 sec)
Heartbeat CPU 0 instructions: 190000003 cycles: 400707488 heartbeat IPC: 0.2804 cumulative IPC: 0.3686 (Simulation time: 05 hr 18 min 04 sec)
Heartbeat CPU 1 instructions: 400000001 cycles: 401363946 heartbeat IPC: 0.889 cumulative IPC: 0.8319 (Simulation time: 05 hr 18 min 35 sec)
Heartbeat CPU 2 instructions: 620000000 cycles: 401461321 heartbeat IPC: 1.192 cumulative IPC: 1.445 (Simulation time: 05 hr 18 min 40 sec)
Heartbeat CPU 3 instructions: 700000002 cycles: 406680426 heartbeat IPC: 1.23 cumulative IPC: 1.598 (Simulation time: 05 hr 22 min 51 sec)
Heartbeat CPU 2 instructions: 630000002 cycles: 408630319 heartbeat IPC: 1.395 cumulative IPC: 1.444 (Simulation time: 05 hr 24 min 26 sec)
Heartbeat CPU 1 instructions: 410000001 cycles: 411786366 heartbeat IPC: 0.9595 cumulative IPC: 0.8353 (Simulation time: 05 hr 27 min 00 sec)
Heartbeat CPU 3 instructions: 710000002 cycles: 414709676 heartbeat IPC: 1.245 cumulative IPC: 1.591 (Simulation time: 05 hr 29 min 16 sec)
Heartbeat CPU 2 instructions: 640000002 cycles: 415869376 heartbeat IPC: 1.381 cumulative IPC: 1.442 (Simulation time: 05 hr 30 min 10 sec)
Heartbeat CPU 2 instructions: 650000000 cycles: 422896396 heartbeat IPC: 1.423 cumulative IPC: 1.442 (Simulation time: 05 hr 35 min 36 sec)
Heartbeat CPU 3 instructions: 720000004 cycles: 423316222 heartbeat IPC: 1.162 cumulative IPC: 1.582 (Simulation time: 05 hr 35 min 55 sec)
Heartbeat CPU 1 instructions: 420000001 cycles: 423943342 heartbeat IPC: 0.8226 cumulative IPC: 0.8349 (Simulation time: 05 hr 36 min 24 sec)
Heartbeat CPU 0 instructions: 200000001 cycles: 426416039 heartbeat IPC: 0.389 cumulative IPC: 0.3699 (Simulation time: 05 hr 38 min 18 sec)
Simulation finished CPU 0 instructions: 150000003 cycles: 405545044 cumulative IPC: 0.3699 (Simulation time: 05 hr 38 min 18 sec)
Simulation complete CPU 0 instructions: 150000003 cycles: 405545044 cumulative IPC: 0.3699 (Simulation time: 05 hr 38 min 18 sec)
Simulation complete CPU 1 instructions: 338565941 cycles: 405545044 cumulative IPC: 0.8348 (Simulation time: 05 hr 38 min 18 sec)
Simulation complete CPU 2 instructions: 585021892 cycles: 405545044 cumulative IPC: 1.443 (Simulation time: 05 hr 38 min 18 sec)
Simulation complete CPU 3 instructions: 639893362 cycles: 405545044 cumulative IPC: 1.578 (Simulation time: 05 hr 38 min 18 sec)

ChampSim completed all CPUs

=== Simulation ===
CPU 0 runs /home/grads/r/rdas40/dpc3_traces/620.omnetpp_s-874B.champsimtrace.xzCPU 1 runs /home/grads/r/rdas40/dpc3_traces/649.fotonik3d_s-1176B.champsimtrace.xzCPU 2 runs /home/grads/r/rdas40/dpc3_traces/623.xalancbmk_s-700B.champsimtrace.xzCPU 3 runs /home/grads/r/rdas40/dpc3_traces/621.wrf_s-575B.champsimtrace.xz
Total Simulation Statistics (not including warmup)

CPU 0 cumulative IPC: 0.3699 instructions: 150000003 cycles: 405545044
CPU 0 Branch Prediction Accuracy: 94.9% MPKI: 10.6 Average ROB Occupancy at Mispredict: 82.77
Branch type MPKI
BRANCH_DIRECT_JUMP: 0.923
BRANCH_INDIRECT: 0.128
BRANCH_CONDITIONAL: 8.42
BRANCH_DIRECT_CALL: 0.00016
BRANCH_INDIRECT_CALL: 0.734
BRANCH_RETURN: 0.399


CPU 1 cumulative IPC: 0.8348 instructions: 338565941 cycles: 405545044
CPU 1 Branch Prediction Accuracy: 99.48% MPKI: 0.09846 Average ROB Occupancy at Mispredict: 79.42
Branch type MPKI
BRANCH_DIRECT_JUMP: 0.000263
BRANCH_INDIRECT: 0
BRANCH_CONDITIONAL: 0.0745
BRANCH_DIRECT_CALL: 4.73e-05
BRANCH_INDIRECT_CALL: 0
BRANCH_RETURN: 0.0237


CPU 2 cumulative IPC: 1.443 instructions: 585021892 cycles: 405545044
CPU 2 Branch Prediction Accuracy: 97.3% MPKI: 7.789 Average ROB Occupancy at Mispredict: 42.57
Branch type MPKI
BRANCH_DIRECT_JUMP: 0.107
BRANCH_INDIRECT: 0.334
BRANCH_CONDITIONAL: 5.58
BRANCH_DIRECT_CALL: 0.000374
BRANCH_INDIRECT_CALL: 0.364
BRANCH_RETURN: 1.4


CPU 3 cumulative IPC: 1.578 instructions: 639893362 cycles: 405545044
CPU 3 Branch Prediction Accuracy: 95.43% MPKI: 5.797 Average ROB Occupancy at Mispredict: 105.3
Branch type MPKI
BRANCH_DIRECT_JUMP: 0.00047
BRANCH_INDIRECT: 2.5e-05
BRANCH_CONDITIONAL: 5.36
BRANCH_DIRECT_CALL: 0.00284
BRANCH_INDIRECT_CALL: 0
BRANCH_RETURN: 0.437

LLC TOTAL        ACCESS:    3512020 HIT:    1594653 MISS:    1917367
LLC LOAD         ACCESS:    1688588 HIT:     428323 MISS:    1260265
LLC RFO          ACCESS:     257793 HIT:     132192 MISS:     125601
LLC PREFETCH     ACCESS:          0 HIT:          0 MISS:          0
LLC WRITE        ACCESS:     969582 HIT:     959176 MISS:      10406
LLC TRANSLATION  ACCESS:     596057 HIT:      74962 MISS:     521095
LLC PREFETCH REQUESTED:          0 ISSUED:          0 USEFUL:          0 USELESS:          0
LLC AVERAGE MISS LATENCY: 545.5 cycles
LLC TOTAL        ACCESS:    6216929 HIT:    3266453 MISS:    2950476
LLC LOAD         ACCESS:    3276146 HIT:     327761 MISS:    2948385
LLC RFO          ACCESS:        563 HIT:        557 MISS:          6
LLC PREFETCH     ACCESS:          0 HIT:          0 MISS:          0
LLC WRITE        ACCESS:    2939662 HIT:    2937936 MISS:       1726
LLC TRANSLATION  ACCESS:        558 HIT:        199 MISS:        359
LLC PREFETCH REQUESTED:          0 ISSUED:          0 USEFUL:          0 USELESS:          0
LLC AVERAGE MISS LATENCY: 545.5 cycles
LLC TOTAL        ACCESS:    2937274 HIT:    1892183 MISS:    1045091
LLC LOAD         ACCESS:    1098306 HIT:     881701 MISS:     216605
LLC RFO          ACCESS:     805881 HIT:      42913 MISS:     762968
LLC PREFETCH     ACCESS:          0 HIT:          0 MISS:          0
LLC WRITE        ACCESS:     944039 HIT:     919646 MISS:      24393
LLC TRANSLATION  ACCESS:      89048 HIT:      47923 MISS:      41125
LLC PREFETCH REQUESTED:          0 ISSUED:          0 USEFUL:          0 USELESS:          0
LLC AVERAGE MISS LATENCY: 545.5 cycles
LLC TOTAL        ACCESS:    3744695 HIT:    2221428 MISS:    1523267
LLC LOAD         ACCESS:    1653117 HIT:     693395 MISS:     959722
LLC RFO          ACCESS:     804114 HIT:     264537 MISS:     539577
LLC PREFETCH     ACCESS:          0 HIT:          0 MISS:          0
LLC WRITE        ACCESS:    1283441 HIT:    1262105 MISS:      21336
LLC TRANSLATION  ACCESS:       4023 HIT:       1391 MISS:       2632
LLC PREFETCH REQUESTED:          0 ISSUED:          0 USEFUL:          0 USELESS:          0
LLC AVERAGE MISS LATENCY: 545.5 cycles
cpu0_DTLB TOTAL        ACCESS:   38223897 HIT:   34929842 MISS:    3294055
cpu0_DTLB LOAD         ACCESS:   38223897 HIT:   34929842 MISS:    3294055
cpu0_DTLB RFO          ACCESS:          0 HIT:          0 MISS:          0
cpu0_DTLB PREFETCH     ACCESS:          0 HIT:          0 MISS:          0
cpu0_DTLB WRITE        ACCESS:          0 HIT:          0 MISS:          0
cpu0_DTLB TRANSLATION  ACCESS:          0 HIT:          0 MISS:          0
cpu0_DTLB PREFETCH REQUESTED:          0 ISSUED:          0 USEFUL:          0 USELESS:          0
cpu0_DTLB AVERAGE MISS LATENCY: 79.22 cycles
cpu0_DTLB TOTAL        ACCESS:          0 HIT:          0 MISS:          0
cpu0_DTLB LOAD         ACCESS:          0 HIT:          0 MISS:          0
cpu0_DTLB RFO          ACCESS:          0 HIT:          0 MISS:          0
cpu0_DTLB PREFETCH     ACCESS:          0 HIT:          0 MISS:          0
cpu0_DTLB WRITE        ACCESS:          0 HIT:          0 MISS:          0
cpu0_DTLB TRANSLATION  ACCESS:          0 HIT:          0 MISS:          0
cpu0_DTLB PREFETCH REQUESTED:          0 ISSUED:          0 USEFUL:          0 USELESS:          0
cpu0_DTLB AVERAGE MISS LATENCY: 79.22 cycles
cpu0_DTLB TOTAL        ACCESS:          0 HIT:          0 MISS:          0
cpu0_DTLB LOAD         ACCESS:          0 HIT:          0 MISS:          0
cpu0_DTLB RFO          ACCESS:          0 HIT:          0 MISS:          0
cpu0_DTLB PREFETCH     ACCESS:          0 HIT:          0 MISS:          0
cpu0_DTLB WRITE        ACCESS:          0 HIT:          0 MISS:          0
cpu0_DTLB TRANSLATION  ACCESS:          0 HIT:          0 MISS:          0
cpu0_DTLB PREFETCH REQUESTED:          0 ISSUED:          0 USEFUL:          0 USELESS:          0
cpu0_DTLB AVERAGE MISS LATENCY: 79.22 cycles
cpu0_DTLB TOTAL        ACCESS:          0 HIT:          0 MISS:          0
cpu0_DTLB LOAD         ACCESS:          0 HIT:          0 MISS:          0
cpu0_DTLB RFO          ACCESS:          0 HIT:          0 MISS:          0
cpu0_DTLB PREFETCH     ACCESS:          0 HIT:          0 MISS:          0
cpu0_DTLB WRITE        ACCESS:          0 HIT:          0 MISS:          0
cpu0_DTLB TRANSLATION  ACCESS:          0 HIT:          0 MISS:          0
cpu0_DTLB PREFETCH REQUESTED:          0 ISSUED:          0 USEFUL:          0 USELESS:          0
cpu0_DTLB AVERAGE MISS LATENCY: 79.22 cycles
cpu0_ITLB TOTAL        ACCESS:   10776078 HIT:   10503956 MISS:     272122
cpu0_ITLB LOAD         ACCESS:   10776078 HIT:   10503956 MISS:     272122
cpu0_ITLB RFO          ACCESS:          0 HIT:          0 MISS:          0
cpu0_ITLB PREFETCH     ACCESS:          0 HIT:          0 MISS:          0
cpu0_ITLB WRITE        ACCESS:          0 HIT:          0 MISS:          0
cpu0_ITLB TRANSLATION  ACCESS:          0 HIT:          0 MISS:          0
cpu0_ITLB PREFETCH REQUESTED:          0 ISSUED:          0 USEFUL:          0 USELESS:          0
cpu0_ITLB AVERAGE MISS LATENCY: 7.03 cycles
cpu0_ITLB TOTAL        ACCESS:          0 HIT:          0 MISS:          0
cpu0_ITLB LOAD         ACCESS:          0 HIT:          0 MISS:          0
cpu0_ITLB RFO          ACCESS:          0 HIT:          0 MISS:          0
cpu0_ITLB PREFETCH     ACCESS:          0 HIT:          0 MISS:          0
cpu0_ITLB WRITE        ACCESS:          0 HIT:          0 MISS:          0
cpu0_ITLB TRANSLATION  ACCESS:          0 HIT:          0 MISS:          0
cpu0_ITLB PREFETCH REQUESTED:          0 ISSUED:          0 USEFUL:          0 USELESS:          0
cpu0_ITLB AVERAGE MISS LATENCY: 7.03 cycles
cpu0_ITLB TOTAL        ACCESS:          0 HIT:          0 MISS:          0
cpu0_ITLB LOAD         ACCESS:          0 HIT:          0 MISS:          0
cpu0_ITLB RFO          ACCESS:          0 HIT:          0 MISS:          0
cpu0_ITLB PREFETCH     ACCESS:          0 HIT:          0 MISS:          0
cpu0_ITLB WRITE        ACCESS:          0 HIT:          0 MISS:          0
cpu0_ITLB TRANSLATION  ACCESS:          0 HIT:          0 MISS:          0
cpu0_ITLB PREFETCH REQUESTED:          0 ISSUED:          0 USEFUL:          0 USELESS:          0
cpu0_ITLB AVERAGE MISS LATENCY: 7.03 cycles
cpu0_ITLB TOTAL        ACCESS:          0 HIT:          0 MISS:          0
cpu0_ITLB LOAD         ACCESS:          0 HIT:          0 MISS:          0
cpu0_ITLB RFO          ACCESS:          0 HIT:          0 MISS:          0
cpu0_ITLB PREFETCH     ACCESS:          0 HIT:          0 MISS:          0
cpu0_ITLB WRITE        ACCESS:          0 HIT:          0 MISS:          0
cpu0_ITLB TRANSLATION  ACCESS:          0 HIT:          0 MISS:          0
cpu0_ITLB PREFETCH REQUESTED:          0 ISSUED:          0 USEFUL:          0 USELESS:          0
cpu0_ITLB AVERAGE MISS LATENCY: 7.03 cycles
cpu0_L1D TOTAL        ACCESS:   49759090 HIT:   44864624 MISS:    4894466
cpu0_L1D LOAD         ACCESS:   22917497 HIT:   19864334 MISS:    3053163
cpu0_L1D RFO          ACCESS:          0 HIT:          0 MISS:          0
cpu0_L1D PREFETCH     ACCESS:          0 HIT:          0 MISS:          0
cpu0_L1D WRITE        ACCESS:   25950449 HIT:   24855128 MISS:    1095321
cpu0_L1D TRANSLATION  ACCESS:     891144 HIT:     145162 MISS:     745982
cpu0_L1D PREFETCH REQUESTED:          0 ISSUED:          0 USEFUL:          0 USELESS:          0
cpu0_L1D AVERAGE MISS LATENCY: 181.1 cycles
cpu0_L1D TOTAL        ACCESS:          0 HIT:          0 MISS:          0
cpu0_L1D LOAD         ACCESS:          0 HIT:          0 MISS:          0
cpu0_L1D RFO          ACCESS:          0 HIT:          0 MISS:          0
cpu0_L1D PREFETCH     ACCESS:          0 HIT:          0 MISS:          0
cpu0_L1D WRITE        ACCESS:          0 HIT:          0 MISS:          0
cpu0_L1D TRANSLATION  ACCESS:          0 HIT:          0 MISS:          0
cpu0_L1D PREFETCH REQUESTED:          0 ISSUED:          0 USEFUL:          0 USELESS:          0
cpu0_L1D AVERAGE MISS LATENCY: 181.1 cycles
cpu0_L1D TOTAL        ACCESS:          0 HIT:          0 MISS:          0
cpu0_L1D LOAD         ACCESS:          0 HIT:          0 MISS:          0
cpu0_L1D RFO          ACCESS:          0 HIT:          0 MISS:          0
cpu0_L1D PREFETCH     ACCESS:          0 HIT:          0 MISS:          0
cpu0_L1D WRITE        ACCESS:          0 HIT:          0 MISS:          0
cpu0_L1D TRANSLATION  ACCESS:          0 HIT:          0 MISS:          0
cpu0_L1D PREFETCH REQUESTED:          0 ISSUED:          0 USEFUL:          0 USELESS:          0
cpu0_L1D AVERAGE MISS LATENCY: 181.1 cycles
cpu0_L1D TOTAL        ACCESS:          0 HIT:          0 MISS:          0
cpu0_L1D LOAD         ACCESS:          0 HIT:          0 MISS:          0
cpu0_L1D RFO          ACCESS:          0 HIT:          0 MISS:          0
cpu0_L1D PREFETCH     ACCESS:          0 HIT:          0 MISS:          0
cpu0_L1D WRITE        ACCESS:          0 HIT:          0 MISS:          0
cpu0_L1D TRANSLATION  ACCESS:          0 HIT:          0 MISS:          0
cpu0_L1D PREFETCH REQUESTED:          0 ISSUED:          0 USEFUL:          0 USELESS:          0
cpu0_L1D AVERAGE MISS LATENCY: 181.1 cycles
cpu0_L1I TOTAL        ACCESS:   12862956 HIT:   12788990 MISS:      73966
cpu0_L1I LOAD         ACCESS:   12862956 HIT:   12788990 MISS:      73966
cpu0_L1I RFO          ACCESS:          0 HIT:          0 MISS:          0
cpu0_L1I PREFETCH     ACCESS:          0 HIT:          0 MISS:          0
cpu0_L1I WRITE        ACCESS:          0 HIT:          0 MISS:          0
cpu0_L1I TRANSLATION  ACCESS:          0 HIT:          0 MISS:          0
cpu0_L1I PREFETCH REQUESTED:          0 ISSUED:          0 USEFUL:          0 USELESS:          0
cpu0_L1I AVERAGE MISS LATENCY: 28.52 cycles
cpu0_L1I TOTAL        ACCESS:          0 HIT:          0 MISS:          0
cpu0_L1I LOAD         ACCESS:          0 HIT:          0 MISS:          0
cpu0_L1I RFO          ACCESS:          0 HIT:          0 MISS:          0
cpu0_L1I PREFETCH     ACCESS:          0 HIT:          0 MISS:          0
cpu0_L1I WRITE        ACCESS:          0 HIT:          0 MISS:          0
cpu0_L1I TRANSLATION  ACCESS:          0 HIT:          0 MISS:          0
cpu0_L1I PREFETCH REQUESTED:          0 ISSUED:          0 USEFUL:          0 USELESS:          0
cpu0_L1I AVERAGE MISS LATENCY: 28.52 cycles
cpu0_L1I TOTAL        ACCESS:          0 HIT:          0 MISS:          0
cpu0_L1I LOAD         ACCESS:          0 HIT:          0 MISS:          0
cpu0_L1I RFO          ACCESS:          0 HIT:          0 MISS:          0
cpu0_L1I PREFETCH     ACCESS:          0 HIT:          0 MISS:          0
cpu0_L1I WRITE        ACCESS:          0 HIT:          0 MISS:          0
cpu0_L1I TRANSLATION  ACCESS:          0 HIT:          0 MISS:          0
cpu0_L1I PREFETCH REQUESTED:          0 ISSUED:          0 USEFUL:          0 USELESS:          0
cpu0_L1I AVERAGE MISS LATENCY: 28.52 cycles
cpu0_L1I TOTAL        ACCESS:          0 HIT:          0 MISS:          0
cpu0_L1I LOAD         ACCESS:          0 HIT:          0 MISS:          0
cpu0_L1I RFO          ACCESS:          0 HIT:          0 MISS:          0
cpu0_L1I PREFETCH     ACCESS:          0 HIT:          0 MISS:          0
cpu0_L1I WRITE        ACCESS:          0 HIT:          0 MISS:          0
cpu0_L1I TRANSLATION  ACCESS:          0 HIT:          0 MISS:          0
cpu0_L1I PREFETCH REQUESTED:          0 ISSUED:          0 USEFUL:          0 USELESS:          0
cpu0_L1I AVERAGE MISS LATENCY: 28.52 cycles
cpu0_L2C TOTAL        ACCESS:    5051067 HIT:    2506358 MISS:    2544709
cpu0_L2C LOAD         ACCESS:    2539348 HIT:     850760 MISS:    1688588
cpu0_L2C RFO          ACCESS:     365575 HIT:     107782 MISS:     257793
cpu0_L2C PREFETCH     ACCESS:          0 HIT:          0 MISS:          0
cpu0_L2C WRITE        ACCESS:    1400955 HIT:    1398684 MISS:       2271
cpu0_L2C TRANSLATION  ACCESS:     745189 HIT:     149132 MISS:     596057
cpu0_L2C PREFETCH REQUESTED:          0 ISSUED:          0 USEFUL:          0 USELESS:          0
cpu0_L2C AVERAGE MISS LATENCY: 343.3 cycles
cpu0_L2C TOTAL        ACCESS:          0 HIT:          0 MISS:          0
cpu0_L2C LOAD         ACCESS:          0 HIT:          0 MISS:          0
cpu0_L2C RFO          ACCESS:          0 HIT:          0 MISS:          0
cpu0_L2C PREFETCH     ACCESS:          0 HIT:          0 MISS:          0
cpu0_L2C WRITE        ACCESS:          0 HIT:          0 MISS:          0
cpu0_L2C TRANSLATION  ACCESS:          0 HIT:          0 MISS:          0
cpu0_L2C PREFETCH REQUESTED:          0 ISSUED:          0 USEFUL:          0 USELESS:          0
cpu0_L2C AVERAGE MISS LATENCY: 343.3 cycles
cpu0_L2C TOTAL        ACCESS:          0 HIT:          0 MISS:          0
cpu0_L2C LOAD         ACCESS:          0 HIT:          0 MISS:          0
cpu0_L2C RFO          ACCESS:          0 HIT:          0 MISS:          0
cpu0_L2C PREFETCH     ACCESS:          0 HIT:          0 MISS:          0
cpu0_L2C WRITE        ACCESS:          0 HIT:          0 MISS:          0
cpu0_L2C TRANSLATION  ACCESS:          0 HIT:          0 MISS:          0
cpu0_L2C PREFETCH REQUESTED:          0 ISSUED:          0 USEFUL:          0 USELESS:          0
cpu0_L2C AVERAGE MISS LATENCY: 343.3 cycles
cpu0_L2C TOTAL        ACCESS:          0 HIT:          0 MISS:          0
cpu0_L2C LOAD         ACCESS:          0 HIT:          0 MISS:          0
cpu0_L2C RFO          ACCESS:          0 HIT:          0 MISS:          0
cpu0_L2C PREFETCH     ACCESS:          0 HIT:          0 MISS:          0
cpu0_L2C WRITE        ACCESS:          0 HIT:          0 MISS:          0
cpu0_L2C TRANSLATION  ACCESS:          0 HIT:          0 MISS:          0
cpu0_L2C PREFETCH REQUESTED:          0 ISSUED:          0 USEFUL:          0 USELESS:          0
cpu0_L2C AVERAGE MISS LATENCY: 343.3 cycles
cpu0_STLB TOTAL        ACCESS:    3014566 HIT:    2372149 MISS:     642417
cpu0_STLB LOAD         ACCESS:    3014566 HIT:    2372149 MISS:     642417
cpu0_STLB RFO          ACCESS:          0 HIT:          0 MISS:          0
cpu0_STLB PREFETCH     ACCESS:          0 HIT:          0 MISS:          0
cpu0_STLB WRITE        ACCESS:          0 HIT:          0 MISS:          0
cpu0_STLB TRANSLATION  ACCESS:          0 HIT:          0 MISS:          0
cpu0_STLB PREFETCH REQUESTED:          0 ISSUED:          0 USEFUL:          0 USELESS:          0
cpu0_STLB AVERAGE MISS LATENCY: 384.1 cycles
cpu0_STLB TOTAL        ACCESS:          0 HIT:          0 MISS:          0
cpu0_STLB LOAD         ACCESS:          0 HIT:          0 MISS:          0
cpu0_STLB RFO          ACCESS:          0 HIT:          0 MISS:          0
cpu0_STLB PREFETCH     ACCESS:          0 HIT:          0 MISS:          0
cpu0_STLB WRITE        ACCESS:          0 HIT:          0 MISS:          0
cpu0_STLB TRANSLATION  ACCESS:          0 HIT:          0 MISS:          0
cpu0_STLB PREFETCH REQUESTED:          0 ISSUED:          0 USEFUL:          0 USELESS:          0
cpu0_STLB AVERAGE MISS LATENCY: 384.1 cycles
cpu0_STLB TOTAL        ACCESS:          0 HIT:          0 MISS:          0
cpu0_STLB LOAD         ACCESS:          0 HIT:          0 MISS:          0
cpu0_STLB RFO          ACCESS:          0 HIT:          0 MISS:          0
cpu0_STLB PREFETCH     ACCESS:          0 HIT:          0 MISS:          0
cpu0_STLB WRITE        ACCESS:          0 HIT:          0 MISS:          0
cpu0_STLB TRANSLATION  ACCESS:          0 HIT:          0 MISS:          0
cpu0_STLB PREFETCH REQUESTED:          0 ISSUED:          0 USEFUL:          0 USELESS:          0
cpu0_STLB AVERAGE MISS LATENCY: 384.1 cycles
cpu0_STLB TOTAL        ACCESS:          0 HIT:          0 MISS:          0
cpu0_STLB LOAD         ACCESS:          0 HIT:          0 MISS:          0
cpu0_STLB RFO          ACCESS:          0 HIT:          0 MISS:          0
cpu0_STLB PREFETCH     ACCESS:          0 HIT:          0 MISS:          0
cpu0_STLB WRITE        ACCESS:          0 HIT:          0 MISS:          0
cpu0_STLB TRANSLATION  ACCESS:          0 HIT:          0 MISS:          0
cpu0_STLB PREFETCH REQUESTED:          0 ISSUED:          0 USEFUL:          0 USELESS:          0
cpu0_STLB AVERAGE MISS LATENCY: 384.1 cycles
cpu1_DTLB TOTAL        ACCESS:          0 HIT:          0 MISS:          0
cpu1_DTLB LOAD         ACCESS:          0 HIT:          0 MISS:          0
cpu1_DTLB RFO          ACCESS:          0 HIT:          0 MISS:          0
cpu1_DTLB PREFETCH     ACCESS:          0 HIT:          0 MISS:          0
cpu1_DTLB WRITE        ACCESS:          0 HIT:          0 MISS:          0
cpu1_DTLB TRANSLATION  ACCESS:          0 HIT:          0 MISS:          0
cpu1_DTLB PREFETCH REQUESTED:          0 ISSUED:          0 USEFUL:          0 USELESS:          0
cpu1_DTLB AVERAGE MISS LATENCY: 24.75 cycles
cpu1_DTLB TOTAL        ACCESS:   39606958 HIT:   39353047 MISS:     253911
cpu1_DTLB LOAD         ACCESS:   39606958 HIT:   39353047 MISS:     253911
cpu1_DTLB RFO          ACCESS:          0 HIT:          0 MISS:          0
cpu1_DTLB PREFETCH     ACCESS:          0 HIT:          0 MISS:          0
cpu1_DTLB WRITE        ACCESS:          0 HIT:          0 MISS:          0
cpu1_DTLB TRANSLATION  ACCESS:          0 HIT:          0 MISS:          0
cpu1_DTLB PREFETCH REQUESTED:          0 ISSUED:          0 USEFUL:          0 USELESS:          0
cpu1_DTLB AVERAGE MISS LATENCY: 24.75 cycles
cpu1_DTLB TOTAL        ACCESS:          0 HIT:          0 MISS:          0
cpu1_DTLB LOAD         ACCESS:          0 HIT:          0 MISS:          0
cpu1_DTLB RFO          ACCESS:          0 HIT:          0 MISS:          0
cpu1_DTLB PREFETCH     ACCESS:          0 HIT:          0 MISS:          0
cpu1_DTLB WRITE        ACCESS:          0 HIT:          0 MISS:          0
cpu1_DTLB TRANSLATION  ACCESS:          0 HIT:          0 MISS:          0
cpu1_DTLB PREFETCH REQUESTED:          0 ISSUED:          0 USEFUL:          0 USELESS:          0
cpu1_DTLB AVERAGE MISS LATENCY: 24.75 cycles
cpu1_DTLB TOTAL        ACCESS:          0 HIT:          0 MISS:          0
cpu1_DTLB LOAD         ACCESS:          0 HIT:          0 MISS:          0
cpu1_DTLB RFO          ACCESS:          0 HIT:          0 MISS:          0
cpu1_DTLB PREFETCH     ACCESS:          0 HIT:          0 MISS:          0
cpu1_DTLB WRITE        ACCESS:          0 HIT:          0 MISS:          0
cpu1_DTLB TRANSLATION  ACCESS:          0 HIT:          0 MISS:          0
cpu1_DTLB PREFETCH REQUESTED:          0 ISSUED:          0 USEFUL:          0 USELESS:          0
cpu1_DTLB AVERAGE MISS LATENCY: 24.75 cycles
cpu1_ITLB TOTAL        ACCESS:          0 HIT:          0 MISS:          0
cpu1_ITLB LOAD         ACCESS:          0 HIT:          0 MISS:          0
cpu1_ITLB RFO          ACCESS:          0 HIT:          0 MISS:          0
cpu1_ITLB PREFETCH     ACCESS:          0 HIT:          0 MISS:          0
cpu1_ITLB WRITE        ACCESS:          0 HIT:          0 MISS:          0
cpu1_ITLB TRANSLATION  ACCESS:          0 HIT:          0 MISS:          0
cpu1_ITLB PREFETCH REQUESTED:          0 ISSUED:          0 USEFUL:          0 USELESS:          0
cpu1_ITLB AVERAGE MISS LATENCY: 323.2 cycles
cpu1_ITLB TOTAL        ACCESS:       2755 HIT:       2734 MISS:         21
cpu1_ITLB LOAD         ACCESS:       2755 HIT:       2734 MISS:         21
cpu1_ITLB RFO          ACCESS:          0 HIT:          0 MISS:          0
cpu1_ITLB PREFETCH     ACCESS:          0 HIT:          0 MISS:          0
cpu1_ITLB WRITE        ACCESS:          0 HIT:          0 MISS:          0
cpu1_ITLB TRANSLATION  ACCESS:          0 HIT:          0 MISS:          0
cpu1_ITLB PREFETCH REQUESTED:          0 ISSUED:          0 USEFUL:          0 USELESS:          0
cpu1_ITLB AVERAGE MISS LATENCY: 323.2 cycles
cpu1_ITLB TOTAL        ACCESS:          0 HIT:          0 MISS:          0
cpu1_ITLB LOAD         ACCESS:          0 HIT:          0 MISS:          0
cpu1_ITLB RFO          ACCESS:          0 HIT:          0 MISS:          0
cpu1_ITLB PREFETCH     ACCESS:          0 HIT:          0 MISS:          0
cpu1_ITLB WRITE        ACCESS:          0 HIT:          0 MISS:          0
cpu1_ITLB TRANSLATION  ACCESS:          0 HIT:          0 MISS:          0
cpu1_ITLB PREFETCH REQUESTED:          0 ISSUED:          0 USEFUL:          0 USELESS:          0
cpu1_ITLB AVERAGE MISS LATENCY: 323.2 cycles
cpu1_ITLB TOTAL        ACCESS:          0 HIT:          0 MISS:          0
cpu1_ITLB LOAD         ACCESS:          0 HIT:          0 MISS:          0
cpu1_ITLB RFO          ACCESS:          0 HIT:          0 MISS:          0
cpu1_ITLB PREFETCH     ACCESS:          0 HIT:          0 MISS:          0
cpu1_ITLB WRITE        ACCESS:          0 HIT:          0 MISS:          0
cpu1_ITLB TRANSLATION  ACCESS:          0 HIT:          0 MISS:          0
cpu1_ITLB PREFETCH REQUESTED:          0 ISSUED:          0 USEFUL:          0 USELESS:          0
cpu1_ITLB AVERAGE MISS LATENCY: 323.2 cycles
cpu1_L1D TOTAL        ACCESS:          0 HIT:          0 MISS:          0
cpu1_L1D LOAD         ACCESS:          0 HIT:          0 MISS:          0
cpu1_L1D RFO          ACCESS:          0 HIT:          0 MISS:          0
cpu1_L1D PREFETCH     ACCESS:          0 HIT:          0 MISS:          0
cpu1_L1D WRITE        ACCESS:          0 HIT:          0 MISS:          0
cpu1_L1D TRANSLATION  ACCESS:          0 HIT:          0 MISS:          0
cpu1_L1D PREFETCH REQUESTED:          0 ISSUED:          0 USEFUL:          0 USELESS:          0
cpu1_L1D AVERAGE MISS LATENCY: 119.6 cycles
cpu1_L1D TOTAL        ACCESS:   58785362 HIT:   50242416 MISS:    8542946
cpu1_L1D LOAD         ACCESS:   34881473 HIT:   26365831 MISS:    8515642
cpu1_L1D RFO          ACCESS:          0 HIT:          0 MISS:          0
cpu1_L1D PREFETCH     ACCESS:          0 HIT:          0 MISS:          0
cpu1_L1D WRITE        ACCESS:   23857693 HIT:   23832234 MISS:      25459
cpu1_L1D TRANSLATION  ACCESS:      46196 HIT:      44351 MISS:       1845
cpu1_L1D PREFETCH REQUESTED:          0 ISSUED:          0 USEFUL:          0 USELESS:          0
cpu1_L1D AVERAGE MISS LATENCY: 119.6 cycles
cpu1_L1D TOTAL        ACCESS:          0 HIT:          0 MISS:          0
cpu1_L1D LOAD         ACCESS:          0 HIT:          0 MISS:          0
cpu1_L1D RFO          ACCESS:          0 HIT:          0 MISS:          0
cpu1_L1D PREFETCH     ACCESS:          0 HIT:          0 MISS:          0
cpu1_L1D WRITE        ACCESS:          0 HIT:          0 MISS:          0
cpu1_L1D TRANSLATION  ACCESS:          0 HIT:          0 MISS:          0
cpu1_L1D PREFETCH REQUESTED:          0 ISSUED:          0 USEFUL:          0 USELESS:          0
cpu1_L1D AVERAGE MISS LATENCY: 119.6 cycles
cpu1_L1D TOTAL        ACCESS:          0 HIT:          0 MISS:          0
cpu1_L1D LOAD         ACCESS:          0 HIT:          0 MISS:          0
cpu1_L1D RFO          ACCESS:          0 HIT:          0 MISS:          0
cpu1_L1D PREFETCH     ACCESS:          0 HIT:          0 MISS:          0
cpu1_L1D WRITE        ACCESS:          0 HIT:          0 MISS:          0
cpu1_L1D TRANSLATION  ACCESS:          0 HIT:          0 MISS:          0
cpu1_L1D PREFETCH REQUESTED:          0 ISSUED:          0 USEFUL:          0 USELESS:          0
cpu1_L1D AVERAGE MISS LATENCY: 119.6 cycles
cpu1_L1I TOTAL        ACCESS:          0 HIT:          0 MISS:          0
cpu1_L1I LOAD         ACCESS:          0 HIT:          0 MISS:          0
cpu1_L1I RFO          ACCESS:          0 HIT:          0 MISS:          0
cpu1_L1I PREFETCH     ACCESS:          0 HIT:          0 MISS:          0
cpu1_L1I WRITE        ACCESS:          0 HIT:          0 MISS:          0
cpu1_L1I TRANSLATION  ACCESS:          0 HIT:          0 MISS:          0
cpu1_L1I PREFETCH REQUESTED:          0 ISSUED:          0 USEFUL:          0 USELESS:          0
cpu1_L1I AVERAGE MISS LATENCY: 240.2 cycles
cpu1_L1I TOTAL        ACCESS:       3209 HIT:       2866 MISS:        343
cpu1_L1I LOAD         ACCESS:       3209 HIT:       2866 MISS:        343
cpu1_L1I RFO          ACCESS:          0 HIT:          0 MISS:          0
cpu1_L1I PREFETCH     ACCESS:          0 HIT:          0 MISS:          0
cpu1_L1I WRITE        ACCESS:          0 HIT:          0 MISS:          0
cpu1_L1I TRANSLATION  ACCESS:          0 HIT:          0 MISS:          0
cpu1_L1I PREFETCH REQUESTED:          0 ISSUED:          0 USEFUL:          0 USELESS:          0
cpu1_L1I AVERAGE MISS LATENCY: 240.2 cycles
cpu1_L1I TOTAL        ACCESS:          0 HIT:          0 MISS:          0
cpu1_L1I LOAD         ACCESS:          0 HIT:          0 MISS:          0
cpu1_L1I RFO          ACCESS:          0 HIT:          0 MISS:          0
cpu1_L1I PREFETCH     ACCESS:          0 HIT:          0 MISS:          0
cpu1_L1I WRITE        ACCESS:          0 HIT:          0 MISS:          0
cpu1_L1I TRANSLATION  ACCESS:          0 HIT:          0 MISS:          0
cpu1_L1I PREFETCH REQUESTED:          0 ISSUED:          0 USEFUL:          0 USELESS:          0
cpu1_L1I AVERAGE MISS LATENCY: 240.2 cycles
cpu1_L1I TOTAL        ACCESS:          0 HIT:          0 MISS:          0
cpu1_L1I LOAD         ACCESS:          0 HIT:          0 MISS:          0
cpu1_L1I RFO          ACCESS:          0 HIT:          0 MISS:          0
cpu1_L1I PREFETCH     ACCESS:          0 HIT:          0 MISS:          0
cpu1_L1I WRITE        ACCESS:          0 HIT:          0 MISS:          0
cpu1_L1I TRANSLATION  ACCESS:          0 HIT:          0 MISS:          0
cpu1_L1I PREFETCH REQUESTED:          0 ISSUED:          0 USEFUL:          0 USELESS:          0
cpu1_L1I AVERAGE MISS LATENCY: 240.2 cycles
cpu1_L2C TOTAL        ACCESS:          0 HIT:          0 MISS:          0
cpu1_L2C LOAD         ACCESS:          0 HIT:          0 MISS:          0
cpu1_L2C RFO          ACCESS:          0 HIT:          0 MISS:          0
cpu1_L2C PREFETCH     ACCESS:          0 HIT:          0 MISS:          0
cpu1_L2C WRITE        ACCESS:          0 HIT:          0 MISS:          0
cpu1_L2C TRANSLATION  ACCESS:          0 HIT:          0 MISS:          0
cpu1_L2C PREFETCH REQUESTED:          0 ISSUED:          0 USEFUL:          0 USELESS:          0
cpu1_L2C AVERAGE MISS LATENCY: 355.3 cycles
cpu1_L2C TOTAL        ACCESS:    7386009 HIT:    4108742 MISS:    3277267
cpu1_L2C LOAD         ACCESS:    4431062 HIT:    1154916 MISS:    3276146
cpu1_L2C RFO          ACCESS:       7152 HIT:       6589 MISS:        563
cpu1_L2C PREFETCH     ACCESS:          0 HIT:          0 MISS:          0
cpu1_L2C WRITE        ACCESS:    2945960 HIT:    2945960 MISS:          0
cpu1_L2C TRANSLATION  ACCESS:       1835 HIT:       1277 MISS:        558
cpu1_L2C PREFETCH REQUESTED:          0 ISSUED:          0 USEFUL:          0 USELESS:          0
cpu1_L2C AVERAGE MISS LATENCY: 355.3 cycles
cpu1_L2C TOTAL        ACCESS:          0 HIT:          0 MISS:          0
cpu1_L2C LOAD         ACCESS:          0 HIT:          0 MISS:          0
cpu1_L2C RFO          ACCESS:          0 HIT:          0 MISS:          0
cpu1_L2C PREFETCH     ACCESS:          0 HIT:          0 MISS:          0
cpu1_L2C WRITE        ACCESS:          0 HIT:          0 MISS:          0
cpu1_L2C TRANSLATION  ACCESS:          0 HIT:          0 MISS:          0
cpu1_L2C PREFETCH REQUESTED:          0 ISSUED:          0 USEFUL:          0 USELESS:          0
cpu1_L2C AVERAGE MISS LATENCY: 355.3 cycles
cpu1_L2C TOTAL        ACCESS:          0 HIT:          0 MISS:          0
cpu1_L2C LOAD         ACCESS:          0 HIT:          0 MISS:          0
cpu1_L2C RFO          ACCESS:          0 HIT:          0 MISS:          0
cpu1_L2C PREFETCH     ACCESS:          0 HIT:          0 MISS:          0
cpu1_L2C WRITE        ACCESS:          0 HIT:          0 MISS:          0
cpu1_L2C TRANSLATION  ACCESS:          0 HIT:          0 MISS:          0
cpu1_L2C PREFETCH REQUESTED:          0 ISSUED:          0 USEFUL:          0 USELESS:          0
cpu1_L2C AVERAGE MISS LATENCY: 355.3 cycles
cpu1_STLB TOTAL        ACCESS:          0 HIT:          0 MISS:          0
cpu1_STLB LOAD         ACCESS:          0 HIT:          0 MISS:          0
cpu1_STLB RFO          ACCESS:          0 HIT:          0 MISS:          0
cpu1_STLB PREFETCH     ACCESS:          0 HIT:          0 MISS:          0
cpu1_STLB WRITE        ACCESS:          0 HIT:          0 MISS:          0
cpu1_STLB TRANSLATION  ACCESS:          0 HIT:          0 MISS:          0
cpu1_STLB PREFETCH REQUESTED:          0 ISSUED:          0 USEFUL:          0 USELESS:          0
cpu1_STLB AVERAGE MISS LATENCY: 211 cycles
cpu1_STLB TOTAL        ACCESS:      78335 HIT:      32314 MISS:      46021
cpu1_STLB LOAD         ACCESS:      78335 HIT:      32314 MISS:      46021
cpu1_STLB RFO          ACCESS:          0 HIT:          0 MISS:          0
cpu1_STLB PREFETCH     ACCESS:          0 HIT:          0 MISS:          0
cpu1_STLB WRITE        ACCESS:          0 HIT:          0 MISS:          0
cpu1_STLB TRANSLATION  ACCESS:          0 HIT:          0 MISS:          0
cpu1_STLB PREFETCH REQUESTED:          0 ISSUED:          0 USEFUL:          0 USELESS:          0
cpu1_STLB AVERAGE MISS LATENCY: 211 cycles
cpu1_STLB TOTAL        ACCESS:          0 HIT:          0 MISS:          0
cpu1_STLB LOAD         ACCESS:          0 HIT:          0 MISS:          0
cpu1_STLB RFO          ACCESS:          0 HIT:          0 MISS:          0
cpu1_STLB PREFETCH     ACCESS:          0 HIT:          0 MISS:          0
cpu1_STLB WRITE        ACCESS:          0 HIT:          0 MISS:          0
cpu1_STLB TRANSLATION  ACCESS:          0 HIT:          0 MISS:          0
cpu1_STLB PREFETCH REQUESTED:          0 ISSUED:          0 USEFUL:          0 USELESS:          0
cpu1_STLB AVERAGE MISS LATENCY: 211 cycles
cpu1_STLB TOTAL        ACCESS:          0 HIT:          0 MISS:          0
cpu1_STLB LOAD         ACCESS:          0 HIT:          0 MISS:          0
cpu1_STLB RFO          ACCESS:          0 HIT:          0 MISS:          0
cpu1_STLB PREFETCH     ACCESS:          0 HIT:          0 MISS:          0
cpu1_STLB WRITE        ACCESS:          0 HIT:          0 MISS:          0
cpu1_STLB TRANSLATION  ACCESS:          0 HIT:          0 MISS:          0
cpu1_STLB PREFETCH REQUESTED:          0 ISSUED:          0 USEFUL:          0 USELESS:          0
cpu1_STLB AVERAGE MISS LATENCY: 211 cycles
cpu2_DTLB TOTAL        ACCESS:          0 HIT:          0 MISS:          0
cpu2_DTLB LOAD         ACCESS:          0 HIT:          0 MISS:          0
cpu2_DTLB RFO          ACCESS:          0 HIT:          0 MISS:          0
cpu2_DTLB PREFETCH     ACCESS:          0 HIT:          0 MISS:          0
cpu2_DTLB WRITE        ACCESS:          0 HIT:          0 MISS:          0
cpu2_DTLB TRANSLATION  ACCESS:          0 HIT:          0 MISS:          0
cpu2_DTLB PREFETCH REQUESTED:          0 ISSUED:          0 USEFUL:          0 USELESS:          0
cpu2_DTLB AVERAGE MISS LATENCY: 6.622 cycles
cpu2_DTLB TOTAL        ACCESS:          0 HIT:          0 MISS:          0
cpu2_DTLB LOAD         ACCESS:          0 HIT:          0 MISS:          0
cpu2_DTLB RFO          ACCESS:          0 HIT:          0 MISS:          0
cpu2_DTLB PREFETCH     ACCESS:          0 HIT:          0 MISS:          0
cpu2_DTLB WRITE        ACCESS:          0 HIT:          0 MISS:          0
cpu2_DTLB TRANSLATION  ACCESS:          0 HIT:          0 MISS:          0
cpu2_DTLB PREFETCH REQUESTED:          0 ISSUED:          0 USEFUL:          0 USELESS:          0
cpu2_DTLB AVERAGE MISS LATENCY: 6.622 cycles
cpu2_DTLB TOTAL        ACCESS:  116195534 HIT:   95152567 MISS:   21042967
cpu2_DTLB LOAD         ACCESS:  116195534 HIT:   95152567 MISS:   21042967
cpu2_DTLB RFO          ACCESS:          0 HIT:          0 MISS:          0
cpu2_DTLB PREFETCH     ACCESS:          0 HIT:          0 MISS:          0
cpu2_DTLB WRITE        ACCESS:          0 HIT:          0 MISS:          0
cpu2_DTLB TRANSLATION  ACCESS:          0 HIT:          0 MISS:          0
cpu2_DTLB PREFETCH REQUESTED:          0 ISSUED:          0 USEFUL:          0 USELESS:          0
cpu2_DTLB AVERAGE MISS LATENCY: 6.622 cycles
cpu2_DTLB TOTAL        ACCESS:          0 HIT:          0 MISS:          0
cpu2_DTLB LOAD         ACCESS:          0 HIT:          0 MISS:          0
cpu2_DTLB RFO          ACCESS:          0 HIT:          0 MISS:          0
cpu2_DTLB PREFETCH     ACCESS:          0 HIT:          0 MISS:          0
cpu2_DTLB WRITE        ACCESS:          0 HIT:          0 MISS:          0
cpu2_DTLB TRANSLATION  ACCESS:          0 HIT:          0 MISS:          0
cpu2_DTLB PREFETCH REQUESTED:          0 ISSUED:          0 USEFUL:          0 USELESS:          0
cpu2_DTLB AVERAGE MISS LATENCY: 6.622 cycles
cpu2_ITLB TOTAL        ACCESS:          0 HIT:          0 MISS:          0
cpu2_ITLB LOAD         ACCESS:          0 HIT:          0 MISS:          0
cpu2_ITLB RFO          ACCESS:          0 HIT:          0 MISS:          0
cpu2_ITLB PREFETCH     ACCESS:          0 HIT:          0 MISS:          0
cpu2_ITLB WRITE        ACCESS:          0 HIT:          0 MISS:          0
cpu2_ITLB TRANSLATION  ACCESS:          0 HIT:          0 MISS:          0
cpu2_ITLB PREFETCH REQUESTED:          0 ISSUED:          0 USEFUL:          0 USELESS:          0
cpu2_ITLB AVERAGE MISS LATENCY: 4.873 cycles
cpu2_ITLB TOTAL        ACCESS:          0 HIT:          0 MISS:          0
cpu2_ITLB LOAD         ACCESS:          0 HIT:          0 MISS:          0
cpu2_ITLB RFO          ACCESS:          0 HIT:          0 MISS:          0
cpu2_ITLB PREFETCH     ACCESS:          0 HIT:          0 MISS:          0
cpu2_ITLB WRITE        ACCESS:          0 HIT:          0 MISS:          0
cpu2_ITLB TRANSLATION  ACCESS:          0 HIT:          0 MISS:          0
cpu2_ITLB PREFETCH REQUESTED:          0 ISSUED:          0 USEFUL:          0 USELESS:          0
cpu2_ITLB AVERAGE MISS LATENCY: 4.873 cycles
cpu2_ITLB TOTAL        ACCESS:   18242381 HIT:   17828663 MISS:     413718
cpu2_ITLB LOAD         ACCESS:   18242381 HIT:   17828663 MISS:     413718
cpu2_ITLB RFO          ACCESS:          0 HIT:          0 MISS:          0
cpu2_ITLB PREFETCH     ACCESS:          0 HIT:          0 MISS:          0
cpu2_ITLB WRITE        ACCESS:          0 HIT:          0 MISS:          0
cpu2_ITLB TRANSLATION  ACCESS:          0 HIT:          0 MISS:          0
cpu2_ITLB PREFETCH REQUESTED:          0 ISSUED:          0 USEFUL:          0 USELESS:          0
cpu2_ITLB AVERAGE MISS LATENCY: 4.873 cycles
cpu2_ITLB TOTAL        ACCESS:          0 HIT:          0 MISS:          0
cpu2_ITLB LOAD         ACCESS:          0 HIT:          0 MISS:          0
cpu2_ITLB RFO          ACCESS:          0 HIT:          0 MISS:          0
cpu2_ITLB PREFETCH     ACCESS:          0 HIT:          0 MISS:          0
cpu2_ITLB WRITE        ACCESS:          0 HIT:          0 MISS:          0
cpu2_ITLB TRANSLATION  ACCESS:          0 HIT:          0 MISS:          0
cpu2_ITLB PREFETCH REQUESTED:          0 ISSUED:          0 USEFUL:          0 USELESS:          0
cpu2_ITLB AVERAGE MISS LATENCY: 4.873 cycles
cpu2_L1D TOTAL        ACCESS:          0 HIT:          0 MISS:          0
cpu2_L1D LOAD         ACCESS:          0 HIT:          0 MISS:          0
cpu2_L1D RFO          ACCESS:          0 HIT:          0 MISS:          0
cpu2_L1D PREFETCH     ACCESS:          0 HIT:          0 MISS:          0
cpu2_L1D WRITE        ACCESS:          0 HIT:          0 MISS:          0
cpu2_L1D TRANSLATION  ACCESS:          0 HIT:          0 MISS:          0
cpu2_L1D PREFETCH REQUESTED:          0 ISSUED:          0 USEFUL:          0 USELESS:          0
cpu2_L1D AVERAGE MISS LATENCY: 27.69 cycles
cpu2_L1D TOTAL        ACCESS:          0 HIT:          0 MISS:          0
cpu2_L1D LOAD         ACCESS:          0 HIT:          0 MISS:          0
cpu2_L1D RFO          ACCESS:          0 HIT:          0 MISS:          0
cpu2_L1D PREFETCH     ACCESS:          0 HIT:          0 MISS:          0
cpu2_L1D WRITE        ACCESS:          0 HIT:          0 MISS:          0
cpu2_L1D TRANSLATION  ACCESS:          0 HIT:          0 MISS:          0
cpu2_L1D PREFETCH REQUESTED:          0 ISSUED:          0 USEFUL:          0 USELESS:          0
cpu2_L1D AVERAGE MISS LATENCY: 27.69 cycles
cpu2_L1D TOTAL        ACCESS:  148595807 HIT:  109379004 MISS:   39216803
cpu2_L1D LOAD         ACCESS:  108045601 HIT:   73417342 MISS:   34628259
cpu2_L1D RFO          ACCESS:          0 HIT:          0 MISS:          0
cpu2_L1D PREFETCH     ACCESS:          0 HIT:          0 MISS:          0
cpu2_L1D WRITE        ACCESS:   39656396 HIT:   35922605 MISS:    3733791
cpu2_L1D TRANSLATION  ACCESS:     893810 HIT:      39057 MISS:     854753
cpu2_L1D PREFETCH REQUESTED:          0 ISSUED:          0 USEFUL:          0 USELESS:          0
cpu2_L1D AVERAGE MISS LATENCY: 27.69 cycles
cpu2_L1D TOTAL        ACCESS:          0 HIT:          0 MISS:          0
cpu2_L1D LOAD         ACCESS:          0 HIT:          0 MISS:          0
cpu2_L1D RFO          ACCESS:          0 HIT:          0 MISS:          0
cpu2_L1D PREFETCH     ACCESS:          0 HIT:          0 MISS:          0
cpu2_L1D WRITE        ACCESS:          0 HIT:          0 MISS:          0
cpu2_L1D TRANSLATION  ACCESS:          0 HIT:          0 MISS:          0
cpu2_L1D PREFETCH REQUESTED:          0 ISSUED:          0 USEFUL:          0 USELESS:          0
cpu2_L1D AVERAGE MISS LATENCY: 27.69 cycles
cpu2_L1I TOTAL        ACCESS:          0 HIT:          0 MISS:          0
cpu2_L1I LOAD         ACCESS:          0 HIT:          0 MISS:          0
cpu2_L1I RFO          ACCESS:          0 HIT:          0 MISS:          0
cpu2_L1I PREFETCH     ACCESS:          0 HIT:          0 MISS:          0
cpu2_L1I WRITE        ACCESS:          0 HIT:          0 MISS:          0
cpu2_L1I TRANSLATION  ACCESS:          0 HIT:          0 MISS:          0
cpu2_L1I PREFETCH REQUESTED:          0 ISSUED:          0 USEFUL:          0 USELESS:          0
cpu2_L1I AVERAGE MISS LATENCY: 10.82 cycles
cpu2_L1I TOTAL        ACCESS:          0 HIT:          0 MISS:          0
cpu2_L1I LOAD         ACCESS:          0 HIT:          0 MISS:          0
cpu2_L1I RFO          ACCESS:          0 HIT:          0 MISS:          0
cpu2_L1I PREFETCH     ACCESS:          0 HIT:          0 MISS:          0
cpu2_L1I WRITE        ACCESS:          0 HIT:          0 MISS:          0
cpu2_L1I TRANSLATION  ACCESS:          0 HIT:          0 MISS:          0
cpu2_L1I PREFETCH REQUESTED:          0 ISSUED:          0 USEFUL:          0 USELESS:          0
cpu2_L1I AVERAGE MISS LATENCY: 10.82 cycles
cpu2_L1I TOTAL        ACCESS:   21800941 HIT:   19887228 MISS:    1913713
cpu2_L1I LOAD         ACCESS:   21800941 HIT:   19887228 MISS:    1913713
cpu2_L1I RFO          ACCESS:          0 HIT:          0 MISS:          0
cpu2_L1I PREFETCH     ACCESS:          0 HIT:          0 MISS:          0
cpu2_L1I WRITE        ACCESS:          0 HIT:          0 MISS:          0
cpu2_L1I TRANSLATION  ACCESS:          0 HIT:          0 MISS:          0
cpu2_L1I PREFETCH REQUESTED:          0 ISSUED:          0 USEFUL:          0 USELESS:          0
cpu2_L1I AVERAGE MISS LATENCY: 10.82 cycles
cpu2_L1I TOTAL        ACCESS:          0 HIT:          0 MISS:          0
cpu2_L1I LOAD         ACCESS:          0 HIT:          0 MISS:          0
cpu2_L1I RFO          ACCESS:          0 HIT:          0 MISS:          0
cpu2_L1I PREFETCH     ACCESS:          0 HIT:          0 MISS:          0
cpu2_L1I WRITE        ACCESS:          0 HIT:          0 MISS:          0
cpu2_L1I TRANSLATION  ACCESS:          0 HIT:          0 MISS:          0
cpu2_L1I PREFETCH REQUESTED:          0 ISSUED:          0 USEFUL:          0 USELESS:          0
cpu2_L1I AVERAGE MISS LATENCY: 10.82 cycles
cpu2_L2C TOTAL        ACCESS:          0 HIT:          0 MISS:          0
cpu2_L2C LOAD         ACCESS:          0 HIT:          0 MISS:          0
cpu2_L2C RFO          ACCESS:          0 HIT:          0 MISS:          0
cpu2_L2C PREFETCH     ACCESS:          0 HIT:          0 MISS:          0
cpu2_L2C WRITE        ACCESS:          0 HIT:          0 MISS:          0
cpu2_L2C TRANSLATION  ACCESS:          0 HIT:          0 MISS:          0
cpu2_L2C PREFETCH REQUESTED:          0 ISSUED:          0 USEFUL:          0 USELESS:          0
cpu2_L2C AVERAGE MISS LATENCY: 421.6 cycles
cpu2_L2C TOTAL        ACCESS:          0 HIT:          0 MISS:          0
cpu2_L2C LOAD         ACCESS:          0 HIT:          0 MISS:          0
cpu2_L2C RFO          ACCESS:          0 HIT:          0 MISS:          0
cpu2_L2C PREFETCH     ACCESS:          0 HIT:          0 MISS:          0
cpu2_L2C WRITE        ACCESS:          0 HIT:          0 MISS:          0
cpu2_L2C TRANSLATION  ACCESS:          0 HIT:          0 MISS:          0
cpu2_L2C PREFETCH REQUESTED:          0 ISSUED:          0 USEFUL:          0 USELESS:          0
cpu2_L2C AVERAGE MISS LATENCY: 421.6 cycles
cpu2_L2C TOTAL        ACCESS:   30303884 HIT:   28310638 MISS:    1993246
cpu2_L2C LOAD         ACCESS:   27044347 HIT:   25946040 MISS:    1098307
cpu2_L2C RFO          ACCESS:     960191 HIT:     154310 MISS:     805881
cpu2_L2C PREFETCH     ACCESS:          0 HIT:          0 MISS:          0
cpu2_L2C WRITE        ACCESS:    1444852 HIT:    1444842 MISS:         10
cpu2_L2C TRANSLATION  ACCESS:     854494 HIT:     765446 MISS:      89048
cpu2_L2C PREFETCH REQUESTED:          0 ISSUED:          0 USEFUL:          0 USELESS:          0
cpu2_L2C AVERAGE MISS LATENCY: 421.6 cycles
cpu2_L2C TOTAL        ACCESS:          0 HIT:          0 MISS:          0
cpu2_L2C LOAD         ACCESS:          0 HIT:          0 MISS:          0
cpu2_L2C RFO          ACCESS:          0 HIT:          0 MISS:          0
cpu2_L2C PREFETCH     ACCESS:          0 HIT:          0 MISS:          0
cpu2_L2C WRITE        ACCESS:          0 HIT:          0 MISS:          0
cpu2_L2C TRANSLATION  ACCESS:          0 HIT:          0 MISS:          0
cpu2_L2C PREFETCH REQUESTED:          0 ISSUED:          0 USEFUL:          0 USELESS:          0
cpu2_L2C AVERAGE MISS LATENCY: 421.6 cycles
cpu2_STLB TOTAL        ACCESS:          0 HIT:          0 MISS:          0
cpu2_STLB LOAD         ACCESS:          0 HIT:          0 MISS:          0
cpu2_STLB RFO          ACCESS:          0 HIT:          0 MISS:          0
cpu2_STLB PREFETCH     ACCESS:          0 HIT:          0 MISS:          0
cpu2_STLB WRITE        ACCESS:          0 HIT:          0 MISS:          0
cpu2_STLB TRANSLATION  ACCESS:          0 HIT:          0 MISS:          0
cpu2_STLB PREFETCH REQUESTED:          0 ISSUED:          0 USEFUL:          0 USELESS:          0
cpu2_STLB AVERAGE MISS LATENCY: 48.83 cycles
cpu2_STLB TOTAL        ACCESS:          0 HIT:          0 MISS:          0
cpu2_STLB LOAD         ACCESS:          0 HIT:          0 MISS:          0
cpu2_STLB RFO          ACCESS:          0 HIT:          0 MISS:          0
cpu2_STLB PREFETCH     ACCESS:          0 HIT:          0 MISS:          0
cpu2_STLB WRITE        ACCESS:          0 HIT:          0 MISS:          0
cpu2_STLB TRANSLATION  ACCESS:          0 HIT:          0 MISS:          0
cpu2_STLB PREFETCH REQUESTED:          0 ISSUED:          0 USEFUL:          0 USELESS:          0
cpu2_STLB AVERAGE MISS LATENCY: 48.83 cycles
cpu2_STLB TOTAL        ACCESS:   15674650 HIT:   14784009 MISS:     890641
cpu2_STLB LOAD         ACCESS:   15674650 HIT:   14784009 MISS:     890641
cpu2_STLB RFO          ACCESS:          0 HIT:          0 MISS:          0
cpu2_STLB PREFETCH     ACCESS:          0 HIT:          0 MISS:          0
cpu2_STLB WRITE        ACCESS:          0 HIT:          0 MISS:          0
cpu2_STLB TRANSLATION  ACCESS:          0 HIT:          0 MISS:          0
cpu2_STLB PREFETCH REQUESTED:          0 ISSUED:          0 USEFUL:          0 USELESS:          0
cpu2_STLB AVERAGE MISS LATENCY: 48.83 cycles
cpu2_STLB TOTAL        ACCESS:          0 HIT:          0 MISS:          0
cpu2_STLB LOAD         ACCESS:          0 HIT:          0 MISS:          0
cpu2_STLB RFO          ACCESS:          0 HIT:          0 MISS:          0
cpu2_STLB PREFETCH     ACCESS:          0 HIT:          0 MISS:          0
cpu2_STLB WRITE        ACCESS:          0 HIT:          0 MISS:          0
cpu2_STLB TRANSLATION  ACCESS:          0 HIT:          0 MISS:          0
cpu2_STLB PREFETCH REQUESTED:          0 ISSUED:          0 USEFUL:          0 USELESS:          0
cpu2_STLB AVERAGE MISS LATENCY: 48.83 cycles
cpu3_DTLB TOTAL        ACCESS:          0 HIT:          0 MISS:          0
cpu3_DTLB LOAD         ACCESS:          0 HIT:          0 MISS:          0
cpu3_DTLB RFO          ACCESS:          0 HIT:          0 MISS:          0
cpu3_DTLB PREFETCH     ACCESS:          0 HIT:          0 MISS:          0
cpu3_DTLB WRITE        ACCESS:          0 HIT:          0 MISS:          0
cpu3_DTLB TRANSLATION  ACCESS:          0 HIT:          0 MISS:          0
cpu3_DTLB PREFETCH REQUESTED:          0 ISSUED:          0 USEFUL:          0 USELESS:          0
cpu3_DTLB AVERAGE MISS LATENCY: 7.428 cycles
cpu3_DTLB TOTAL        ACCESS:          0 HIT:          0 MISS:          0
cpu3_DTLB LOAD         ACCESS:          0 HIT:          0 MISS:          0
cpu3_DTLB RFO          ACCESS:          0 HIT:          0 MISS:          0
cpu3_DTLB PREFETCH     ACCESS:          0 HIT:          0 MISS:          0
cpu3_DTLB WRITE        ACCESS:          0 HIT:          0 MISS:          0
cpu3_DTLB TRANSLATION  ACCESS:          0 HIT:          0 MISS:          0
cpu3_DTLB PREFETCH REQUESTED:          0 ISSUED:          0 USEFUL:          0 USELESS:          0
cpu3_DTLB AVERAGE MISS LATENCY: 7.428 cycles
cpu3_DTLB TOTAL        ACCESS:          0 HIT:          0 MISS:          0
cpu3_DTLB LOAD         ACCESS:          0 HIT:          0 MISS:          0
cpu3_DTLB RFO          ACCESS:          0 HIT:          0 MISS:          0
cpu3_DTLB PREFETCH     ACCESS:          0 HIT:          0 MISS:          0
cpu3_DTLB WRITE        ACCESS:          0 HIT:          0 MISS:          0
cpu3_DTLB TRANSLATION  ACCESS:          0 HIT:          0 MISS:          0
cpu3_DTLB PREFETCH REQUESTED:          0 ISSUED:          0 USEFUL:          0 USELESS:          0
cpu3_DTLB AVERAGE MISS LATENCY: 7.428 cycles
cpu3_DTLB TOTAL        ACCESS:   97627839 HIT:   96593498 MISS:    1034341
cpu3_DTLB LOAD         ACCESS:   97627839 HIT:   96593498 MISS:    1034341
cpu3_DTLB RFO          ACCESS:          0 HIT:          0 MISS:          0
cpu3_DTLB PREFETCH     ACCESS:          0 HIT:          0 MISS:          0
cpu3_DTLB WRITE        ACCESS:          0 HIT:          0 MISS:          0
cpu3_DTLB TRANSLATION  ACCESS:          0 HIT:          0 MISS:          0
cpu3_DTLB PREFETCH REQUESTED:          0 ISSUED:          0 USEFUL:          0 USELESS:          0
cpu3_DTLB AVERAGE MISS LATENCY: 7.428 cycles
cpu3_ITLB TOTAL        ACCESS:          0 HIT:          0 MISS:          0
cpu3_ITLB LOAD         ACCESS:          0 HIT:          0 MISS:          0
cpu3_ITLB RFO          ACCESS:          0 HIT:          0 MISS:          0
cpu3_ITLB PREFETCH     ACCESS:          0 HIT:          0 MISS:          0
cpu3_ITLB WRITE        ACCESS:          0 HIT:          0 MISS:          0
cpu3_ITLB TRANSLATION  ACCESS:          0 HIT:          0 MISS:          0
cpu3_ITLB PREFETCH REQUESTED:          0 ISSUED:          0 USEFUL:          0 USELESS:          0
[...]
cpu2_L1I PREFETCH REQUESTED:          0 ISSUED:          0 USEFUL:          0 USELESS:          0
cpu2_L1I AVERAGE MISS LATENCY: 10.82 cycles
cpu2_L1I TOTAL        ACCESS:          0 HIT:          0 MISS:          0
cpu2_L1I LOAD         ACCESS:          0 HIT:          0 MISS:          0
cpu2_L1I RFO          ACCESS:          0 HIT:          0 MISS:          0
cpu2_L1I PREFETCH     ACCESS:          0 HIT:          0 MISS:          0
cpu2_L1I WRITE        ACCESS:          0 HIT:          0 MISS:          0
cpu2_L1I TRANSLATION  ACCESS:          0 HIT:          0 MISS:          0
cpu2_L1I PREFETCH REQUESTED:          0 ISSUED:          0 USEFUL:          0 USELESS:          0
cpu2_L1I AVERAGE MISS LATENCY: 10.82 cycles
cpu2_L2C TOTAL        ACCESS:          0 HIT:          0 MISS:          0
cpu2_L2C LOAD         ACCESS:          0 HIT:          0 MISS:          0
cpu2_L2C RFO          ACCESS:          0 HIT:          0 MISS:          0
cpu2_L2C PREFETCH     ACCESS:          0 HIT:          0 MISS:          0
cpu2_L2C WRITE        ACCESS:          0 HIT:          0 MISS:          0
cpu2_L2C TRANSLATION  ACCESS:          0 HIT:          0 MISS:          0
cpu2_L2C PREFETCH REQUESTED:          0 ISSUED:          0 USEFUL:          0 USELESS:          0
cpu2_L2C AVERAGE MISS LATENCY: 421.6 cycles
cpu2_L2C TOTAL        ACCESS:          0 HIT:          0 MISS:          0
cpu2_L2C LOAD         ACCESS:          0 HIT:          0 MISS:          0
cpu2_L2C RFO          ACCESS:          0 HIT:          0 MISS:          0
cpu2_L2C PREFETCH     ACCESS:          0 HIT:          0 MISS:          0
cpu2_L2C WRITE        ACCESS:          0 HIT:          0 MISS:          0
cpu2_L2C TRANSLATION  ACCESS:          0 HIT:          0 MISS:          0
cpu2_L2C PREFETCH REQUESTED:          0 ISSUED:          0 USEFUL:          0 USELESS:          0
cpu2_L2C AVERAGE MISS LATENCY: 421.6 cycles
cpu2_L2C TOTAL        ACCESS:    8579074 HIT:    8065438 MISS:     513636
cpu2_L2C LOAD         ACCESS:    7781050 HIT:    7463061 MISS:     317989
cpu2_L2C RFO          ACCESS:     204230 HIT:      38080 MISS:     166150
cpu2_L2C PREFETCH     ACCESS:          0 HIT:          0 MISS:          0
cpu2_L2C WRITE        ACCESS:     336530 HIT:     336526 MISS:          4
cpu2_L2C TRANSLATION  ACCESS:     257264 HIT:     227771 MISS:      29493
cpu2_L2C PREFETCH REQUESTED:          0 ISSUED:          0 USEFUL:          0 USELESS:          0
cpu2_L2C AVERAGE MISS LATENCY: 421.6 cycles
cpu2_L2C TOTAL        ACCESS:          0 HIT:          0 MISS:          0
cpu2_L2C LOAD         ACCESS:          0 HIT:          0 MISS:          0
cpu2_L2C RFO          ACCESS:          0 HIT:          0 MISS:          0
cpu2_L2C PREFETCH     ACCESS:          0 HIT:          0 MISS:          0
cpu2_L2C WRITE        ACCESS:          0 HIT:          0 MISS:          0
cpu2_L2C TRANSLATION  ACCESS:          0 HIT:          0 MISS:          0
cpu2_L2C PREFETCH REQUESTED:          0 ISSUED:          0 USEFUL:          0 USELESS:          0
cpu2_L2C AVERAGE MISS LATENCY: 421.6 cycles
cpu2_STLB TOTAL        ACCESS:          0 HIT:          0 MISS:          0
cpu2_STLB LOAD         ACCESS:          0 HIT:          0 MISS:          0
cpu2_STLB RFO          ACCESS:          0 HIT:          0 MISS:          0
cpu2_STLB PREFETCH     ACCESS:          0 HIT:          0 MISS:          0
cpu2_STLB WRITE        ACCESS:          0 HIT:          0 MISS:          0
cpu2_STLB TRANSLATION  ACCESS:          0 HIT:          0 MISS:          0
cpu2_STLB PREFETCH REQUESTED:          0 ISSUED:          0 USEFUL:          0 USELESS:          0
cpu2_STLB AVERAGE MISS LATENCY: 48.83 cycles
cpu2_STLB TOTAL        ACCESS:          0 HIT:          0 MISS:          0
cpu2_STLB LOAD         ACCESS:          0 HIT:          0 MISS:          0
cpu2_STLB RFO          ACCESS:          0 HIT:          0 MISS:          0
cpu2_STLB PREFETCH     ACCESS:          0 HIT:          0 MISS:          0
cpu2_STLB WRITE        ACCESS:          0 HIT:          0 MISS:          0
cpu2_STLB TRANSLATION  ACCESS:          0 HIT:          0 MISS:          0
cpu2_STLB PREFETCH REQUESTED:          0 ISSUED:          0 USEFUL:          0 USELESS:          0
cpu2_STLB AVERAGE MISS LATENCY: 48.83 cycles
cpu2_STLB TOTAL        ACCESS:    4507079 HIT:    4238264 MISS:     268815
cpu2_STLB LOAD         ACCESS:    4507079 HIT:    4238264 MISS:     268815
cpu2_STLB RFO          ACCESS:          0 HIT:          0 MISS:          0
cpu2_STLB PREFETCH     ACCESS:          0 HIT:          0 MISS:          0
cpu2_STLB WRITE        ACCESS:          0 HIT:          0 MISS:          0
cpu2_STLB TRANSLATION  ACCESS:          0 HIT:          0 MISS:          0
cpu2_STLB PREFETCH REQUESTED:          0 ISSUED:          0 USEFUL:          0 USELESS:          0
cpu2_STLB AVERAGE MISS LATENCY: 48.83 cycles
cpu2_STLB TOTAL        ACCESS:          0 HIT:          0 MISS:          0
cpu2_STLB LOAD         ACCESS:          0 HIT:          0 MISS:          0
cpu2_STLB RFO          ACCESS:          0 HIT:          0 MISS:          0
cpu2_STLB PREFETCH     ACCESS:          0 HIT:          0 MISS:          0
cpu2_STLB WRITE        ACCESS:          0 HIT:          0 MISS:          0
cpu2_STLB TRANSLATION  ACCESS:          0 HIT:          0 MISS:          0
cpu2_STLB PREFETCH REQUESTED:          0 ISSUED:          0 USEFUL:          0 USELESS:          0
cpu2_STLB AVERAGE MISS LATENCY: 48.83 cycles
cpu3_DTLB TOTAL        ACCESS:          0 HIT:          0 MISS:          0
cpu3_DTLB LOAD         ACCESS:          0 HIT:          0 MISS:          0
cpu3_DTLB RFO          ACCESS:          0 HIT:          0 MISS:          0
cpu3_DTLB PREFETCH     ACCESS:          0 HIT:          0 MISS:          0
cpu3_DTLB WRITE        ACCESS:          0 HIT:          0 MISS:          0
cpu3_DTLB TRANSLATION  ACCESS:          0 HIT:          0 MISS:          0
cpu3_DTLB PREFETCH REQUESTED:          0 ISSUED:          0 USEFUL:          0 USELESS:          0
cpu3_DTLB AVERAGE MISS LATENCY: 7.428 cycles
cpu3_DTLB TOTAL        ACCESS:          0 HIT:          0 MISS:          0
cpu3_DTLB LOAD         ACCESS:          0 HIT:          0 MISS:          0
cpu3_DTLB RFO          ACCESS:          0 HIT:          0 MISS:          0
cpu3_DTLB PREFETCH     ACCESS:          0 HIT:          0 MISS:          0
cpu3_DTLB WRITE        ACCESS:          0 HIT:          0 MISS:          0
cpu3_DTLB TRANSLATION  ACCESS:          0 HIT:          0 MISS:          0
cpu3_DTLB PREFETCH REQUESTED:          0 ISSUED:          0 USEFUL:          0 USELESS:          0
cpu3_DTLB AVERAGE MISS LATENCY: 7.428 cycles
cpu3_DTLB TOTAL        ACCESS:          0 HIT:          0 MISS:          0
cpu3_DTLB LOAD         ACCESS:          0 HIT:          0 MISS:          0
cpu3_DTLB RFO          ACCESS:          0 HIT:          0 MISS:          0
cpu3_DTLB PREFETCH     ACCESS:          0 HIT:          0 MISS:          0
cpu3_DTLB WRITE        ACCESS:          0 HIT:          0 MISS:          0
cpu3_DTLB TRANSLATION  ACCESS:          0 HIT:          0 MISS:          0
cpu3_DTLB PREFETCH REQUESTED:          0 ISSUED:          0 USEFUL:          0 USELESS:          0
cpu3_DTLB AVERAGE MISS LATENCY: 7.428 cycles
cpu3_DTLB TOTAL        ACCESS:   17836425 HIT:   17825984 MISS:      10441
cpu3_DTLB LOAD         ACCESS:   17836425 HIT:   17825984 MISS:      10441
cpu3_DTLB RFO          ACCESS:          0 HIT:          0 MISS:          0
cpu3_DTLB PREFETCH     ACCESS:          0 HIT:          0 MISS:          0
cpu3_DTLB WRITE        ACCESS:          0 HIT:          0 MISS:          0
cpu3_DTLB TRANSLATION  ACCESS:          0 HIT:          0 MISS:          0
cpu3_DTLB PREFETCH REQUESTED:          0 ISSUED:          0 USEFUL:          0 USELESS:          0
cpu3_DTLB AVERAGE MISS LATENCY: 7.428 cycles
cpu3_ITLB TOTAL        ACCESS:          0 HIT:          0 MISS:          0
cpu3_ITLB LOAD         ACCESS:          0 HIT:          0 MISS:          0
cpu3_ITLB RFO          ACCESS:          0 HIT:          0 MISS:          0
cpu3_ITLB PREFETCH     ACCESS:          0 HIT:          0 MISS:          0
cpu3_ITLB WRITE        ACCESS:          0 HIT:          0 MISS:          0
cpu3_ITLB TRANSLATION  ACCESS:          0 HIT:          0 MISS:          0
cpu3_ITLB PREFETCH REQUESTED:          0 ISSUED:          0 USEFUL:          0 USELESS:          0
cpu3_ITLB AVERAGE MISS LATENCY: 225.8 cycles
cpu3_ITLB TOTAL        ACCESS:          0 HIT:          0 MISS:          0
cpu3_ITLB LOAD         ACCESS:          0 HIT:          0 MISS:          0
cpu3_ITLB RFO          ACCESS:          0 HIT:          0 MISS:          0
cpu3_ITLB PREFETCH     ACCESS:          0 HIT:          0 MISS:          0
cpu3_ITLB WRITE        ACCESS:          0 HIT:          0 MISS:          0
cpu3_ITLB TRANSLATION  ACCESS:          0 HIT:          0 MISS:          0
cpu3_ITLB PREFETCH REQUESTED:          0 ISSUED:          0 USEFUL:          0 USELESS:          0
cpu3_ITLB AVERAGE MISS LATENCY: 225.8 cycles
cpu3_ITLB TOTAL        ACCESS:          0 HIT:          0 MISS:          0
cpu3_ITLB LOAD         ACCESS:          0 HIT:          0 MISS:          0
cpu3_ITLB RFO          ACCESS:          0 HIT:          0 MISS:          0
cpu3_ITLB PREFETCH     ACCESS:          0 HIT:          0 MISS:          0
cpu3_ITLB WRITE        ACCESS:          0 HIT:          0 MISS:          0
cpu3_ITLB TRANSLATION  ACCESS:          0 HIT:          0 MISS:          0
cpu3_ITLB PREFETCH REQUESTED:          0 ISSUED:          0 USEFUL:          0 USELESS:          0
cpu3_ITLB AVERAGE MISS LATENCY: 225.8 cycles
cpu3_ITLB TOTAL        ACCESS:     498162 HIT:     498162 MISS:          0
cpu3_ITLB LOAD         ACCESS:     498162 HIT:     498162 MISS:          0
cpu3_ITLB RFO          ACCESS:          0 HIT:          0 MISS:          0
cpu3_ITLB PREFETCH     ACCESS:          0 HIT:          0 MISS:          0
cpu3_ITLB WRITE        ACCESS:          0 HIT:          0 MISS:          0
cpu3_ITLB TRANSLATION  ACCESS:          0 HIT:          0 MISS:          0
cpu3_ITLB PREFETCH REQUESTED:          0 ISSUED:          0 USEFUL:          0 USELESS:          0
cpu3_ITLB AVERAGE MISS LATENCY: 225.8 cycles
cpu3_L1D TOTAL        ACCESS:          0 HIT:          0 MISS:          0
cpu3_L1D LOAD         ACCESS:          0 HIT:          0 MISS:          0
cpu3_L1D RFO          ACCESS:          0 HIT:          0 MISS:          0
cpu3_L1D PREFETCH     ACCESS:          0 HIT:          0 MISS:          0
cpu3_L1D WRITE        ACCESS:          0 HIT:          0 MISS:          0
cpu3_L1D TRANSLATION  ACCESS:          0 HIT:          0 MISS:          0
cpu3_L1D PREFETCH REQUESTED:          0 ISSUED:          0 USEFUL:          0 USELESS:          0
cpu3_L1D AVERAGE MISS LATENCY: 110.3 cycles
cpu3_L1D TOTAL        ACCESS:          0 HIT:          0 MISS:          0
cpu3_L1D LOAD         ACCESS:          0 HIT:          0 MISS:          0
cpu3_L1D RFO          ACCESS:          0 HIT:          0 MISS:          0
cpu3_L1D PREFETCH     ACCESS:          0 HIT:          0 MISS:          0
cpu3_L1D WRITE        ACCESS:          0 HIT:          0 MISS:          0
cpu3_L1D TRANSLATION  ACCESS:          0 HIT:          0 MISS:          0
cpu3_L1D PREFETCH REQUESTED:          0 ISSUED:          0 USEFUL:          0 USELESS:          0
cpu3_L1D AVERAGE MISS LATENCY: 110.3 cycles
cpu3_L1D TOTAL        ACCESS:          0 HIT:          0 MISS:          0
cpu3_L1D LOAD         ACCESS:          0 HIT:          0 MISS:          0
cpu3_L1D RFO          ACCESS:          0 HIT:          0 MISS:          0
cpu3_L1D PREFETCH     ACCESS:          0 HIT:          0 MISS:          0
cpu3_L1D WRITE        ACCESS:          0 HIT:          0 MISS:          0
cpu3_L1D TRANSLATION  ACCESS:          0 HIT:          0 MISS:          0
cpu3_L1D PREFETCH REQUESTED:          0 ISSUED:          0 USEFUL:          0 USELESS:          0
cpu3_L1D AVERAGE MISS LATENCY: 110.3 cycles
cpu3_L1D TOTAL        ACCESS:   21967060 HIT:   21957556 MISS:       9504
cpu3_L1D LOAD         ACCESS:   16404458 HIT:   16401546 MISS:       2912
cpu3_L1D RFO          ACCESS:          0 HIT:          0 MISS:          0
cpu3_L1D PREFETCH     ACCESS:          0 HIT:          0 MISS:          0
cpu3_L1D WRITE        ACCESS:    5562431 HIT:    5555992 MISS:       6439
cpu3_L1D TRANSLATION  ACCESS:        171 HIT:         18 MISS:        153
cpu3_L1D PREFETCH REQUESTED:          0 ISSUED:          0 USEFUL:          0 USELESS:          0
cpu3_L1D AVERAGE MISS LATENCY: 110.3 cycles
cpu3_L1I TOTAL        ACCESS:          0 HIT:          0 MISS:          0
cpu3_L1I LOAD         ACCESS:          0 HIT:          0 MISS:          0
cpu3_L1I RFO          ACCESS:          0 HIT:          0 MISS:          0
cpu3_L1I PREFETCH     ACCESS:          0 HIT:          0 MISS:          0
cpu3_L1I WRITE        ACCESS:          0 HIT:          0 MISS:          0
cpu3_L1I TRANSLATION  ACCESS:          0 HIT:          0 MISS:          0
cpu3_L1I PREFETCH REQUESTED:          0 ISSUED:          0 USEFUL:          0 USELESS:          0
cpu3_L1I AVERAGE MISS LATENCY: 11.43 cycles
cpu3_L1I TOTAL        ACCESS:          0 HIT:          0 MISS:          0
cpu3_L1I LOAD         ACCESS:          0 HIT:          0 MISS:          0
cpu3_L1I RFO          ACCESS:          0 HIT:          0 MISS:          0
cpu3_L1I PREFETCH     ACCESS:          0 HIT:          0 MISS:          0
cpu3_L1I WRITE        ACCESS:          0 HIT:          0 MISS:          0
cpu3_L1I TRANSLATION  ACCESS:          0 HIT:          0 MISS:          0
cpu3_L1I PREFETCH REQUESTED:          0 ISSUED:          0 USEFUL:          0 USELESS:          0
cpu3_L1I AVERAGE MISS LATENCY: 11.43 cycles
cpu3_L1I TOTAL        ACCESS:          0 HIT:          0 MISS:          0
cpu3_L1I LOAD         ACCESS:          0 HIT:          0 MISS:          0
cpu3_L1I RFO          ACCESS:          0 HIT:          0 MISS:          0
cpu3_L1I PREFETCH     ACCESS:          0 HIT:          0 MISS:          0
cpu3_L1I WRITE        ACCESS:          0 HIT:          0 MISS:          0
cpu3_L1I TRANSLATION  ACCESS:          0 HIT:          0 MISS:          0
cpu3_L1I PREFETCH REQUESTED:          0 ISSUED:          0 USEFUL:          0 USELESS:          0
cpu3_L1I AVERAGE MISS LATENCY: 11.43 cycles
cpu3_L1I TOTAL        ACCESS:     551022 HIT:     549579 MISS:       1443
cpu3_L1I LOAD         ACCESS:     551022 HIT:     549579 MISS:       1443
cpu3_L1I RFO          ACCESS:          0 HIT:          0 MISS:          0
cpu3_L1I PREFETCH     ACCESS:          0 HIT:          0 MISS:          0
cpu3_L1I WRITE        ACCESS:          0 HIT:          0 MISS:          0
cpu3_L1I TRANSLATION  ACCESS:          0 HIT:          0 MISS:          0
cpu3_L1I PREFETCH REQUESTED:          0 ISSUED:          0 USEFUL:          0 USELESS:          0
cpu3_L1I AVERAGE MISS LATENCY: 11.43 cycles
cpu3_L2C TOTAL        ACCESS:          0 HIT:          0 MISS:          0
cpu3_L2C LOAD         ACCESS:          0 HIT:          0 MISS:          0
cpu3_L2C RFO          ACCESS:          0 HIT:          0 MISS:          0
cpu3_L2C PREFETCH     ACCESS:          0 HIT:          0 MISS:          0
cpu3_L2C WRITE        ACCESS:          0 HIT:          0 MISS:          0
cpu3_L2C TRANSLATION  ACCESS:          0 HIT:          0 MISS:          0
cpu3_L2C PREFETCH REQUESTED:          0 ISSUED:          0 USEFUL:          0 USELESS:          0
cpu3_L2C AVERAGE MISS LATENCY: 564.9 cycles
cpu3_L2C TOTAL        ACCESS:          0 HIT:          0 MISS:          0
cpu3_L2C LOAD         ACCESS:          0 HIT:          0 MISS:          0
cpu3_L2C RFO          ACCESS:          0 HIT:          0 MISS:          0
cpu3_L2C PREFETCH     ACCESS:          0 HIT:          0 MISS:          0
cpu3_L2C WRITE        ACCESS:          0 HIT:          0 MISS:          0
cpu3_L2C TRANSLATION  ACCESS:          0 HIT:          0 MISS:          0
cpu3_L2C PREFETCH REQUESTED:          0 ISSUED:          0 USEFUL:          0 USELESS:          0
cpu3_L2C AVERAGE MISS LATENCY: 564.9 cycles
cpu3_L2C TOTAL        ACCESS:          0 HIT:          0 MISS:          0
cpu3_L2C LOAD         ACCESS:          0 HIT:          0 MISS:          0
cpu3_L2C RFO          ACCESS:          0 HIT:          0 MISS:          0
cpu3_L2C PREFETCH     ACCESS:          0 HIT:          0 MISS:          0
cpu3_L2C WRITE        ACCESS:          0 HIT:          0 MISS:          0
cpu3_L2C TRANSLATION  ACCESS:          0 HIT:          0 MISS:          0
cpu3_L2C PREFETCH REQUESTED:          0 ISSUED:          0 USEFUL:          0 USELESS:          0
cpu3_L2C AVERAGE MISS LATENCY: 564.9 cycles
cpu3_L2C TOTAL        ACCESS:       8539 HIT:       4377 MISS:       4162
cpu3_L2C LOAD         ACCESS:       2781 HIT:       1206 MISS:       1575
cpu3_L2C RFO          ACCESS:       2554 HIT:         66 MISS:       2488
cpu3_L2C PREFETCH     ACCESS:          0 HIT:          0 MISS:          0
cpu3_L2C WRITE        ACCESS:       3051 HIT:       3048 MISS:          3
cpu3_L2C TRANSLATION  ACCESS:        153 HIT:         57 MISS:         96
cpu3_L2C PREFETCH REQUESTED:          0 ISSUED:          0 USEFUL:          0 USELESS:          0
cpu3_L2C AVERAGE MISS LATENCY: 564.9 cycles
cpu3_STLB TOTAL        ACCESS:          0 HIT:          0 MISS:          0
cpu3_STLB LOAD         ACCESS:          0 HIT:          0 MISS:          0
cpu3_STLB RFO          ACCESS:          0 HIT:          0 MISS:          0
cpu3_STLB PREFETCH     ACCESS:          0 HIT:          0 MISS:          0
cpu3_STLB WRITE        ACCESS:          0 HIT:          0 MISS:          0
cpu3_STLB TRANSLATION  ACCESS:          0 HIT:          0 MISS:          0
cpu3_STLB PREFETCH REQUESTED:          0 ISSUED:          0 USEFUL:          0 USELESS:          0
cpu3_STLB AVERAGE MISS LATENCY: 277.8 cycles
cpu3_STLB TOTAL        ACCESS:          0 HIT:          0 MISS:          0
cpu3_STLB LOAD         ACCESS:          0 HIT:          0 MISS:          0
cpu3_STLB RFO          ACCESS:          0 HIT:          0 MISS:          0
cpu3_STLB PREFETCH     ACCESS:          0 HIT:          0 MISS:          0
cpu3_STLB WRITE        ACCESS:          0 HIT:          0 MISS:          0
cpu3_STLB TRANSLATION  ACCESS:          0 HIT:          0 MISS:          0
cpu3_STLB PREFETCH REQUESTED:          0 ISSUED:          0 USEFUL:          0 USELESS:          0
cpu3_STLB AVERAGE MISS LATENCY: 277.8 cycles
cpu3_STLB TOTAL        ACCESS:          0 HIT:          0 MISS:          0
cpu3_STLB LOAD         ACCESS:          0 HIT:          0 MISS:          0
cpu3_STLB RFO          ACCESS:          0 HIT:          0 MISS:          0
cpu3_STLB PREFETCH     ACCESS:          0 HIT:          0 MISS:          0
cpu3_STLB WRITE        ACCESS:          0 HIT:          0 MISS:          0
cpu3_STLB TRANSLATION  ACCESS:          0 HIT:          0 MISS:          0
cpu3_STLB PREFETCH REQUESTED:          0 ISSUED:          0 USEFUL:          0 USELESS:          0
cpu3_STLB AVERAGE MISS LATENCY: 277.8 cycles
cpu3_STLB TOTAL        ACCESS:       9198 HIT:       9028 MISS:        170
cpu3_STLB LOAD         ACCESS:       9198 HIT:       9028 MISS:        170
cpu3_STLB RFO          ACCESS:          0 HIT:          0 MISS:          0
cpu3_STLB PREFETCH     ACCESS:          0 HIT:          0 MISS:          0
cpu3_STLB WRITE        ACCESS:          0 HIT:          0 MISS:          0
cpu3_STLB TRANSLATION  ACCESS:          0 HIT:          0 MISS:          0
cpu3_STLB PREFETCH REQUESTED:          0 ISSUED:          0 USEFUL:          0 USELESS:          0
cpu3_STLB AVERAGE MISS LATENCY: 277.8 cycles

DRAM Statistics

Channel 0 RQ ROW_BUFFER_HIT:     370809
  ROW_BUFFER_MISS:    3320962
 AVG DBUS CONGESTED CYCLE: 3.98
WQ ROW_BUFFER_HIT: Channel 0 
  ROW_BUFFER_MISS:      61274
  FULL:    2583982

Channel 1 RQ ROW_BUFFER_HIT:     371105
  ROW_BUFFER_MISS:    3314783
 AVG DBUS CONGESTED CYCLE: 3.981
WQ ROW_BUFFER_HIT: Channel 1 
  ROW_BUFFER_MISS:      61626
  FULL:    2582108
