Original cmd-> /home/grads/r/rdas40/ECEN676/ChampSim/bin/multi_core/berti_2ch --warmup_instructions=50000000 --simulation_instructions=150000000  /home/grads/r/rdas40/dpc3_traces/644.nab_s-5853B.champsimtrace.xz /home/grads/r/rdas40/dpc3_traces/620.omnetpp_s-874B.champsimtrace.xz /home/grads/r/rdas40/dpc3_traces/649.fotonik3d_s-1176B.champsimtrace.xz /home/grads/r/rdas40/dpc3_traces/605.mcf_s-665B.champsimtrace.xz
WARNING: physical memory size is smaller than virtual memory size.
WARNING: option --warmup_instructions is deprecated. Use --warmup-instructions instead.
WARNING: option --simulation_instructions is deprecated. Use --simulation-instructions instead.

*** ChampSim Multicore Out-of-Order Simulator ***
Warmup Instructions: 50000000
Simulation Instructions: 150000000
Number of CPUs: 4
Page size: 4096

Berti Prefetcher
BERTI HASH ORIGINAL
BERTI IP MASK ffff
Berti Prefetcher
BERTI HASH ORIGINAL
BERTI IP MASK ffff
Berti Prefetcher
BERTI HASH ORIGINAL
BERTI IP MASK ffff
Berti Prefetcher
BERTI HASH ORIGINAL
BERTI IP MASK ffff
Off-chip DRAM Size: 8 GiB Channels: 2 Width: 64-bit Data Race: 3200 MT/s
Heartbeat CPU 2 instructions: 10000001 cycles: 2500049 heartbeat IPC: 4 cumulative IPC: 4 (Simulation time: 00 hr 03 min 15 sec)
Heartbeat CPU 3 instructions: 10000003 cycles: 3100609 heartbeat IPC: 3.225 cumulative IPC: 3.225 (Simulation time: 00 hr 04 min 01 sec)
Heartbeat CPU 0 instructions: 10000003 cycles: 3453035 heartbeat IPC: 2.896 cumulative IPC: 2.896 (Simulation time: 00 hr 04 min 28 sec)
Heartbeat CPU 1 instructions: 10000000 cycles: 3914705 heartbeat IPC: 2.554 cumulative IPC: 2.554 (Simulation time: 00 hr 05 min 03 sec)
Heartbeat CPU 2 instructions: 20000001 cycles: 5000049 heartbeat IPC: 4 cumulative IPC: 4 (Simulation time: 00 hr 06 min 26 sec)
Heartbeat CPU 3 instructions: 20000003 cycles: 6206878 heartbeat IPC: 3.219 cumulative IPC: 3.222 (Simulation time: 00 hr 08 min 01 sec)
Heartbeat CPU 0 instructions: 20000001 cycles: 6906272 heartbeat IPC: 2.896 cumulative IPC: 2.896 (Simulation time: 00 hr 08 min 56 sec)
Heartbeat CPU 2 instructions: 30000001 cycles: 7500049 heartbeat IPC: 4 cumulative IPC: 4 (Simulation time: 00 hr 09 min 44 sec)
Heartbeat CPU 1 instructions: 20000004 cycles: 7831115 heartbeat IPC: 2.553 cumulative IPC: 2.554 (Simulation time: 00 hr 10 min 10 sec)
Heartbeat CPU 3 instructions: 30000004 cycles: 9305125 heartbeat IPC: 3.228 cumulative IPC: 3.224 (Simulation time: 00 hr 12 min 07 sec)
Heartbeat CPU 2 instructions: 40000001 cycles: 10000049 heartbeat IPC: 4 cumulative IPC: 4 (Simulation time: 00 hr 13 min 04 sec)
Heartbeat CPU 0 instructions: 30000001 cycles: 10365567 heartbeat IPC: 2.891 cumulative IPC: 2.894 (Simulation time: 00 hr 13 min 33 sec)
Heartbeat CPU 1 instructions: 30000001 cycles: 11749399 heartbeat IPC: 2.552 cumulative IPC: 2.553 (Simulation time: 00 hr 15 min 22 sec)
Heartbeat CPU 3 instructions: 40000004 cycles: 12401394 heartbeat IPC: 3.23 cumulative IPC: 3.225 (Simulation time: 00 hr 16 min 14 sec)
Heartbeat CPU 2 instructions: 50000001 cycles: 12500049 heartbeat IPC: 4 cumulative IPC: 4 (Simulation time: 00 hr 16 min 21 sec)
Warmup finished CPU 2 instructions: 50000001 cycles: 12500050 cumulative IPC: 4 (Simulation time: 00 hr 16 min 21 sec)
Heartbeat CPU 0 instructions: 40000004 cycles: 13795157 heartbeat IPC: 2.916 cumulative IPC: 2.9 (Simulation time: 00 hr 18 min 03 sec)
Heartbeat CPU 2 instructions: 60000001 cycles: 15000049 heartbeat IPC: 4 cumulative IPC: 4 (Simulation time: 00 hr 19 min 39 sec)
Heartbeat CPU 3 instructions: 50000000 cycles: 15488054 heartbeat IPC: 3.24 cumulative IPC: 3.228 (Simulation time: 00 hr 20 min 19 sec)
Warmup finished CPU 3 instructions: 50000000 cycles: 15488055 cumulative IPC: 3.228 (Simulation time: 00 hr 20 min 19 sec)
Heartbeat CPU 1 instructions: 40000000 cycles: 15676268 heartbeat IPC: 2.547 cumulative IPC: 2.552 (Simulation time: 00 hr 20 min 34 sec)
Heartbeat CPU 0 instructions: 50000002 cycles: 17228497 heartbeat IPC: 2.913 cumulative IPC: 2.902 (Simulation time: 00 hr 22 min 39 sec)
Warmup finished CPU 0 instructions: 50000002 cycles: 17228498 cumulative IPC: 2.902 (Simulation time: 00 hr 22 min 39 sec)
Heartbeat CPU 2 instructions: 70000001 cycles: 17500049 heartbeat IPC: 4 cumulative IPC: 4 (Simulation time: 00 hr 23 min 01 sec)
Heartbeat CPU 3 instructions: 60000002 cycles: 18586306 heartbeat IPC: 3.228 cumulative IPC: 3.228 (Simulation time: 00 hr 24 min 30 sec)
Heartbeat CPU 1 instructions: 50000003 cycles: 19583590 heartbeat IPC: 2.559 cumulative IPC: 2.553 (Simulation time: 00 hr 25 min 51 sec)
Warmup finished CPU 1 instructions: 50000003 cycles: 19583591 cumulative IPC: 2.553 (Simulation time: 00 hr 25 min 51 sec)
Warmup complete CPU 0 instructions: 56856046 cycles: 19583591 cumulative IPC: 2.903 (Simulation time: 00 hr 25 min 51 sec)
Warmup complete CPU 1 instructions: 50000003 cycles: 19583591 cumulative IPC: 2.553 (Simulation time: 00 hr 25 min 51 sec)
Warmup complete CPU 2 instructions: 78334165 cycles: 19583591 cumulative IPC: 4 (Simulation time: 00 hr 25 min 51 sec)
Warmup complete CPU 3 instructions: 63219290 cycles: 19583591 cumulative IPC: 3.228 (Simulation time: 00 hr 25 min 51 sec)
Heartbeat CPU 2 instructions: 80000004 cycles: 20615246 heartbeat IPC: 3.21 cumulative IPC: 1.615 (Simulation time: 00 hr 26 min 43 sec)
Heartbeat CPU 0 instructions: 60000001 cycles: 20729440 heartbeat IPC: 2.856 cumulative IPC: 2.744 (Simulation time: 00 hr 26 min 49 sec)
Heartbeat CPU 0 instructions: 70000000 cycles: 24373524 heartbeat IPC: 2.744 cumulative IPC: 2.744 (Simulation time: 00 hr 29 min 55 sec)
Heartbeat CPU 2 instructions: 90000004 cycles: 26846056 heartbeat IPC: 1.605 cumulative IPC: 1.606 (Simulation time: 00 hr 31 min 53 sec)
Heartbeat CPU 0 instructions: 80000003 cycles: 28881799 heartbeat IPC: 2.218 cumulative IPC: 2.489 (Simulation time: 00 hr 33 min 26 sec)
Heartbeat CPU 2 instructions: 100000002 cycles: 33583701 heartbeat IPC: 1.484 cumulative IPC: 1.548 (Simulation time: 00 hr 37 min 03 sec)
Heartbeat CPU 0 instructions: 90000002 cycles: 33656623 heartbeat IPC: 2.094 cumulative IPC: 2.355 (Simulation time: 00 hr 37 min 06 sec)
Heartbeat CPU 0 instructions: 100000000 cycles: 38870215 heartbeat IPC: 1.918 cumulative IPC: 2.237 (Simulation time: 00 hr 40 min 52 sec)
Heartbeat CPU 3 instructions: 70000000 cycles: 39245923 heartbeat IPC: 0.484 cumulative IPC: 0.3449 (Simulation time: 00 hr 41 min 10 sec)
Heartbeat CPU 2 instructions: 110000002 cycles: 40220496 heartbeat IPC: 1.507 cumulative IPC: 1.534 (Simulation time: 00 hr 41 min 51 sec)
Heartbeat CPU 0 instructions: 110000003 cycles: 43920245 heartbeat IPC: 1.98 cumulative IPC: 2.184 (Simulation time: 00 hr 44 min 34 sec)
Heartbeat CPU 2 instructions: 120000004 cycles: 46729176 heartbeat IPC: 1.536 cumulative IPC: 1.535 (Simulation time: 00 hr 46 min 43 sec)
Heartbeat CPU 0 instructions: 120000000 cycles: 48561599 heartbeat IPC: 2.155 cumulative IPC: 2.179 (Simulation time: 00 hr 48 min 08 sec)
Heartbeat CPU 1 instructions: 60000003 cycles: 50396409 heartbeat IPC: 0.3245 cumulative IPC: 0.3245 (Simulation time: 00 hr 49 min 33 sec)
Heartbeat CPU 0 instructions: 130000003 cycles: 53202646 heartbeat IPC: 2.155 cumulative IPC: 2.176 (Simulation time: 00 hr 51 min 39 sec)
Heartbeat CPU 2 instructions: 130000001 cycles: 53248433 heartbeat IPC: 1.534 cumulative IPC: 1.535 (Simulation time: 00 hr 51 min 40 sec)
Heartbeat CPU 0 instructions: 140000000 cycles: 57942908 heartbeat IPC: 2.11 cumulative IPC: 2.168 (Simulation time: 00 hr 55 min 06 sec)
Heartbeat CPU 2 instructions: 140000004 cycles: 59840952 heartbeat IPC: 1.517 cumulative IPC: 1.532 (Simulation time: 00 hr 56 min 28 sec)
Heartbeat CPU 0 instructions: 150000003 cycles: 62687711 heartbeat IPC: 2.108 cumulative IPC: 2.161 (Simulation time: 00 hr 58 min 34 sec)
Heartbeat CPU 2 instructions: 150000003 cycles: 66420284 heartbeat IPC: 1.52 cumulative IPC: 1.53 (Simulation time: 01 hr 01 min 17 sec)
Heartbeat CPU 0 instructions: 160000000 cycles: 67445207 heartbeat IPC: 2.102 cumulative IPC: 2.155 (Simulation time: 01 hr 02 min 04 sec)
Heartbeat CPU 3 instructions: 80000000 cycles: 69849212 heartbeat IPC: 0.3268 cumulative IPC: 0.3338 (Simulation time: 01 hr 03 min 49 sec)
Heartbeat CPU 0 instructions: 170000003 cycles: 72205344 heartbeat IPC: 2.101 cumulative IPC: 2.15 (Simulation time: 01 hr 05 min 31 sec)
Heartbeat CPU 2 instructions: 160000004 cycles: 72986403 heartbeat IPC: 1.523 cumulative IPC: 1.529 (Simulation time: 01 hr 06 min 06 sec)
Heartbeat CPU 0 instructions: 180000000 cycles: 76960828 heartbeat IPC: 2.103 cumulative IPC: 2.146 (Simulation time: 01 hr 08 min 59 sec)
Heartbeat CPU 2 instructions: 170000001 cycles: 79536047 heartbeat IPC: 1.527 cumulative IPC: 1.529 (Simulation time: 01 hr 10 min 52 sec)
Heartbeat CPU 0 instructions: 190000000 cycles: 81732313 heartbeat IPC: 2.096 cumulative IPC: 2.142 (Simulation time: 01 hr 12 min 28 sec)
Heartbeat CPU 1 instructions: 70000002 cycles: 81969431 heartbeat IPC: 0.3167 cumulative IPC: 0.3206 (Simulation time: 01 hr 12 min 38 sec)
Heartbeat CPU 2 instructions: 180000003 cycles: 86121645 heartbeat IPC: 1.518 cumulative IPC: 1.528 (Simulation time: 01 hr 15 min 45 sec)
Heartbeat CPU 0 instructions: 200000004 cycles: 86490214 heartbeat IPC: 2.102 cumulative IPC: 2.139 (Simulation time: 01 hr 16 min 01 sec)
Simulation finished CPU 0 instructions: 150000000 cycles: 70156674 cumulative IPC: 2.138 (Simulation time: 01 hr 18 min 25 sec)
Heartbeat CPU 0 instructions: 210000003 cycles: 91230100 heartbeat IPC: 2.11 cumulative IPC: 2.137 (Simulation time: 01 hr 19 min 30 sec)
Heartbeat CPU 2 instructions: 190000001 cycles: 92716340 heartbeat IPC: 1.516 cumulative IPC: 1.527 (Simulation time: 01 hr 20 min 36 sec)
Heartbeat CPU 0 instructions: 220000004 cycles: 95912150 heartbeat IPC: 2.136 cumulative IPC: 2.137 (Simulation time: 01 hr 22 min 56 sec)
Heartbeat CPU 2 instructions: 200000001 cycles: 99377607 heartbeat IPC: 1.501 cumulative IPC: 1.525 (Simulation time: 01 hr 25 min 32 sec)
Heartbeat CPU 3 instructions: 90000004 cycles: 100052445 heartbeat IPC: 0.3311 cumulative IPC: 0.3328 (Simulation time: 01 hr 26 min 01 sec)
Heartbeat CPU 0 instructions: 230000002 cycles: 100549200 heartbeat IPC: 2.157 cumulative IPC: 2.138 (Simulation time: 01 hr 26 min 25 sec)
Heartbeat CPU 0 instructions: 240000002 cycles: 105231811 heartbeat IPC: 2.136 cumulative IPC: 2.138 (Simulation time: 01 hr 29 min 54 sec)
Heartbeat CPU 2 instructions: 210000001 cycles: 105913270 heartbeat IPC: 1.53 cumulative IPC: 1.525 (Simulation time: 01 hr 30 min 25 sec)
Heartbeat CPU 0 instructions: 250000003 cycles: 109826003 heartbeat IPC: 2.177 cumulative IPC: 2.14 (Simulation time: 01 hr 33 min 19 sec)
Heartbeat CPU 2 instructions: 220000004 cycles: 112424787 heartbeat IPC: 1.536 cumulative IPC: 1.526 (Simulation time: 01 hr 35 min 16 sec)
Heartbeat CPU 1 instructions: 80000002 cycles: 114204611 heartbeat IPC: 0.3102 cumulative IPC: 0.3171 (Simulation time: 01 hr 36 min 36 sec)
Heartbeat CPU 0 instructions: 260000001 cycles: 114462042 heartbeat IPC: 2.157 cumulative IPC: 2.141 (Simulation time: 01 hr 36 min 47 sec)
Simulation finished CPU 2 instructions: 150000000 cycles: 98326237 cumulative IPC: 1.526 (Simulation time: 01 hr 39 min 19 sec)
Heartbeat CPU 2 instructions: 230000003 cycles: 118942686 heartbeat IPC: 1.534 cumulative IPC: 1.526 (Simulation time: 01 hr 40 min 04 sec)
Heartbeat CPU 0 instructions: 270000001 cycles: 119156492 heartbeat IPC: 2.13 cumulative IPC: 2.141 (Simulation time: 01 hr 40 min 13 sec)
Heartbeat CPU 0 instructions: 280000001 cycles: 123722735 heartbeat IPC: 2.19 cumulative IPC: 2.143 (Simulation time: 01 hr 43 min 37 sec)
Heartbeat CPU 3 instructions: 100000000 cycles: 125110856 heartbeat IPC: 0.3991 cumulative IPC: 0.3485 (Simulation time: 01 hr 44 min 37 sec)
Heartbeat CPU 2 instructions: 240000003 cycles: 125525352 heartbeat IPC: 1.519 cumulative IPC: 1.526 (Simulation time: 01 hr 44 min 59 sec)
Heartbeat CPU 0 instructions: 290000000 cycles: 128222842 heartbeat IPC: 2.222 cumulative IPC: 2.146 (Simulation time: 01 hr 46 min 56 sec)
Heartbeat CPU 0 instructions: 300000004 cycles: 131848471 heartbeat IPC: 2.758 cumulative IPC: 2.166 (Simulation time: 01 hr 49 min 53 sec)
Heartbeat CPU 2 instructions: 250000000 cycles: 132145909 heartbeat IPC: 1.51 cumulative IPC: 1.525 (Simulation time: 01 hr 50 min 10 sec)
Heartbeat CPU 0 instructions: 310000000 cycles: 135566576 heartbeat IPC: 2.69 cumulative IPC: 2.183 (Simulation time: 01 hr 53 min 02 sec)
Heartbeat CPU 2 instructions: 260000001 cycles: 138590245 heartbeat IPC: 1.552 cumulative IPC: 1.527 (Simulation time: 01 hr 55 min 17 sec)
Heartbeat CPU 0 instructions: 320000000 cycles: 140377003 heartbeat IPC: 2.079 cumulative IPC: 2.178 (Simulation time: 01 hr 56 min 35 sec)
Heartbeat CPU 1 instructions: 90000001 cycles: 144879718 heartbeat IPC: 0.326 cumulative IPC: 0.3192 (Simulation time: 01 hr 59 min 43 sec)
Heartbeat CPU 2 instructions: 270000003 cycles: 144938187 heartbeat IPC: 1.575 cumulative IPC: 1.529 (Simulation time: 01 hr 59 min 46 sec)
Heartbeat CPU 0 instructions: 330000000 cycles: 145339351 heartbeat IPC: 2.015 cumulative IPC: 2.172 (Simulation time: 02 hr 00 min 04 sec)
Heartbeat CPU 3 instructions: 110000000 cycles: 149351530 heartbeat IPC: 0.4125 cumulative IPC: 0.3605 (Simulation time: 02 hr 02 min 56 sec)
Heartbeat CPU 0 instructions: 340000002 cycles: 150111279 heartbeat IPC: 2.096 cumulative IPC: 2.169 (Simulation time: 02 hr 03 min 31 sec)
Heartbeat CPU 2 instructions: 280000002 cycles: 150608671 heartbeat IPC: 1.764 cumulative IPC: 1.539 (Simulation time: 02 hr 03 min 52 sec)
Heartbeat CPU 0 instructions: 350000000 cycles: 153972964 heartbeat IPC: 2.59 cumulative IPC: 2.181 (Simulation time: 02 hr 06 min 30 sec)
Heartbeat CPU 2 instructions: 290000003 cycles: 157084450 heartbeat IPC: 1.544 cumulative IPC: 1.539 (Simulation time: 02 hr 08 min 56 sec)
Heartbeat CPU 0 instructions: 360000002 cycles: 157558187 heartbeat IPC: 2.789 cumulative IPC: 2.197 (Simulation time: 02 hr 09 min 19 sec)
Heartbeat CPU 0 instructions: 370000000 cycles: 161177806 heartbeat IPC: 2.763 cumulative IPC: 2.212 (Simulation time: 02 hr 12 min 09 sec)
Heartbeat CPU 2 instructions: 300000003 cycles: 163548223 heartbeat IPC: 1.547 cumulative IPC: 1.54 (Simulation time: 02 hr 13 min 58 sec)
Heartbeat CPU 0 instructions: 380000004 cycles: 164783809 heartbeat IPC: 2.773 cumulative IPC: 2.226 (Simulation time: 02 hr 14 min 55 sec)
Heartbeat CPU 0 instructions: 390000000 cycles: 168409757 heartbeat IPC: 2.758 cumulative IPC: 2.238 (Simulation time: 02 hr 17 min 40 sec)
Heartbeat CPU 2 instructions: 310000002 cycles: 170055836 heartbeat IPC: 1.537 cumulative IPC: 1.54 (Simulation time: 02 hr 18 min 56 sec)
Heartbeat CPU 0 instructions: 400000004 cycles: 172000861 heartbeat IPC: 2.785 cumulative IPC: 2.251 (Simulation time: 02 hr 20 min 26 sec)
Heartbeat CPU 3 instructions: 120000003 cycles: 174137265 heartbeat IPC: 0.4035 cumulative IPC: 0.3674 (Simulation time: 02 hr 22 min 07 sec)
Heartbeat CPU 0 instructions: 410000002 cycles: 175596940 heartbeat IPC: 2.781 cumulative IPC: 2.264 (Simulation time: 02 hr 23 min 13 sec)
Heartbeat CPU 1 instructions: 100000000 cycles: 176149436 heartbeat IPC: 0.3198 cumulative IPC: 0.3194 (Simulation time: 02 hr 23 min 40 sec)
Heartbeat CPU 2 instructions: 320000002 cycles: 176516641 heartbeat IPC: 1.548 cumulative IPC: 1.54 (Simulation time: 02 hr 23 min 57 sec)
Heartbeat CPU 0 instructions: 420000004 cycles: 179227529 heartbeat IPC: 2.754 cumulative IPC: 2.275 (Simulation time: 02 hr 25 min 59 sec)
Heartbeat CPU 0 instructions: 430000001 cycles: 182854789 heartbeat IPC: 2.757 cumulative IPC: 2.285 (Simulation time: 02 hr 28 min 46 sec)
Heartbeat CPU 2 instructions: 330000003 cycles: 183082818 heartbeat IPC: 1.523 cumulative IPC: 1.539 (Simulation time: 02 hr 28 min 57 sec)
Heartbeat CPU 0 instructions: 440000000 cycles: 186467506 heartbeat IPC: 2.768 cumulative IPC: 2.296 (Simulation time: 02 hr 31 min 36 sec)
Heartbeat CPU 2 instructions: 340000002 cycles: 189611313 heartbeat IPC: 1.532 cumulative IPC: 1.539 (Simulation time: 02 hr 34 min 02 sec)
Heartbeat CPU 0 instructions: 450000003 cycles: 190095751 heartbeat IPC: 2.756 cumulative IPC: 2.306 (Simulation time: 02 hr 34 min 24 sec)
Heartbeat CPU 0 instructions: 460000003 cycles: 193747559 heartbeat IPC: 2.738 cumulative IPC: 2.315 (Simulation time: 02 hr 37 min 13 sec)
Heartbeat CPU 2 instructions: 350000004 cycles: 196271937 heartbeat IPC: 1.501 cumulative IPC: 1.538 (Simulation time: 02 hr 39 min 12 sec)
Heartbeat CPU 0 instructions: 470000002 cycles: 197350387 heartbeat IPC: 2.776 cumulative IPC: 2.324 (Simulation time: 02 hr 40 min 03 sec)
Heartbeat CPU 3 instructions: 130000000 cycles: 199110764 heartbeat IPC: 0.4004 cumulative IPC: 0.372 (Simulation time: 02 hr 41 min 25 sec)
Heartbeat CPU 0 instructions: 480000001 cycles: 200940138 heartbeat IPC: 2.786 cumulative IPC: 2.333 (Simulation time: 02 hr 42 min 49 sec)
Heartbeat CPU 2 instructions: 360000001 cycles: 202801527 heartbeat IPC: 1.531 cumulative IPC: 1.537 (Simulation time: 02 hr 44 min 18 sec)
Heartbeat CPU 0 instructions: 490000001 cycles: 204512688 heartbeat IPC: 2.799 cumulative IPC: 2.342 (Simulation time: 02 hr 45 min 39 sec)
Heartbeat CPU 1 instructions: 110000004 cycles: 207448400 heartbeat IPC: 0.3195 cumulative IPC: 0.3194 (Simulation time: 02 hr 47 min 58 sec)
Heartbeat CPU 0 instructions: 500000002 cycles: 208108987 heartbeat IPC: 2.781 cumulative IPC: 2.351 (Simulation time: 02 hr 48 min 29 sec)
Heartbeat CPU 2 instructions: 370000002 cycles: 209220734 heartbeat IPC: 1.558 cumulative IPC: 1.538 (Simulation time: 02 hr 49 min 21 sec)
Heartbeat CPU 0 instructions: 510000004 cycles: 211713017 heartbeat IPC: 2.775 cumulative IPC: 2.359 (Simulation time: 02 hr 51 min 20 sec)
Heartbeat CPU 0 instructions: 520000004 cycles: 215358338 heartbeat IPC: 2.743 cumulative IPC: 2.366 (Simulation time: 02 hr 54 min 10 sec)
Heartbeat CPU 2 instructions: 380000004 cycles: 215727792 heartbeat IPC: 1.537 cumulative IPC: 1.538 (Simulation time: 02 hr 54 min 27 sec)
Heartbeat CPU 0 instructions: 530000002 cycles: 218976078 heartbeat IPC: 2.764 cumulative IPC: 2.373 (Simulation time: 02 hr 57 min 05 sec)
Heartbeat CPU 2 instructions: 390000003 cycles: 222135758 heartbeat IPC: 1.561 cumulative IPC: 1.539 (Simulation time: 02 hr 59 min 38 sec)
Heartbeat CPU 0 instructions: 540000004 cycles: 222614060 heartbeat IPC: 2.749 cumulative IPC: 2.38 (Simulation time: 03 hr 00 min 01 sec)
Heartbeat CPU 3 instructions: 140000002 cycles: 224693532 heartbeat IPC: 0.3909 cumulative IPC: 0.3743 (Simulation time: 03 hr 01 min 37 sec)
Heartbeat CPU 0 instructions: 550000001 cycles: 226257027 heartbeat IPC: 2.745 cumulative IPC: 2.386 (Simulation time: 03 hr 02 min 50 sec)
Heartbeat CPU 2 instructions: 400000001 cycles: 228802689 heartbeat IPC: 1.5 cumulative IPC: 1.537 (Simulation time: 03 hr 04 min 47 sec)
Heartbeat CPU 0 instructions: 560000002 cycles: 229931184 heartbeat IPC: 2.722 cumulative IPC: 2.392 (Simulation time: 03 hr 05 min 41 sec)
Heartbeat CPU 0 instructions: 570000001 cycles: 233554671 heartbeat IPC: 2.76 cumulative IPC: 2.398 (Simulation time: 03 hr 08 min 32 sec)
Heartbeat CPU 2 instructions: 410000001 cycles: 235277911 heartbeat IPC: 1.544 cumulative IPC: 1.538 (Simulation time: 03 hr 09 min 54 sec)
Heartbeat CPU 0 instructions: 580000004 cycles: 237179459 heartbeat IPC: 2.759 cumulative IPC: 2.404 (Simulation time: 03 hr 11 min 24 sec)
Heartbeat CPU 1 instructions: 120000004 cycles: 239121008 heartbeat IPC: 0.3157 cumulative IPC: 0.3189 (Simulation time: 03 hr 12 min 57 sec)
Heartbeat CPU 0 instructions: 590000000 cycles: 240845627 heartbeat IPC: 2.728 cumulative IPC: 2.41 (Simulation time: 03 hr 14 min 18 sec)
Heartbeat CPU 2 instructions: 420000000 cycles: 241763156 heartbeat IPC: 1.542 cumulative IPC: 1.538 (Simulation time: 03 hr 15 min 03 sec)
Heartbeat CPU 0 instructions: 600000001 cycles: 244501285 heartbeat IPC: 2.735 cumulative IPC: 2.415 (Simulation time: 03 hr 17 min 14 sec)
Heartbeat CPU 0 instructions: 610000000 cycles: 248141429 heartbeat IPC: 2.747 cumulative IPC: 2.42 (Simulation time: 03 hr 20 min 07 sec)
Heartbeat CPU 2 instructions: 430000000 cycles: 248219514 heartbeat IPC: 1.549 cumulative IPC: 1.538 (Simulation time: 03 hr 20 min 11 sec)
Heartbeat CPU 3 instructions: 150000000 cycles: 249665009 heartbeat IPC: 0.4005 cumulative IPC: 0.3772 (Simulation time: 03 hr 21 min 19 sec)
Heartbeat CPU 0 instructions: 620000003 cycles: 251722634 heartbeat IPC: 2.792 cumulative IPC: 2.426 (Simulation time: 03 hr 22 min 56 sec)
Heartbeat CPU 2 instructions: 440000004 cycles: 254819784 heartbeat IPC: 1.515 cumulative IPC: 1.537 (Simulation time: 03 hr 25 min 23 sec)
Heartbeat CPU 0 instructions: 630000002 cycles: 255354407 heartbeat IPC: 2.753 cumulative IPC: 2.431 (Simulation time: 03 hr 25 min 51 sec)
Heartbeat CPU 0 instructions: 640000004 cycles: 258966063 heartbeat IPC: 2.769 cumulative IPC: 2.436 (Simulation time: 03 hr 28 min 42 sec)
Heartbeat CPU 2 instructions: 450000003 cycles: 261315932 heartbeat IPC: 1.539 cumulative IPC: 1.538 (Simulation time: 03 hr 30 min 31 sec)
Heartbeat CPU 0 instructions: 650000002 cycles: 262590581 heartbeat IPC: 2.759 cumulative IPC: 2.441 (Simulation time: 03 hr 31 min 31 sec)
Heartbeat CPU 0 instructions: 660000000 cycles: 266195874 heartbeat IPC: 2.774 cumulative IPC: 2.446 (Simulation time: 03 hr 34 min 22 sec)
Heartbeat CPU 2 instructions: 460000002 cycles: 267716358 heartbeat IPC: 1.562 cumulative IPC: 1.538 (Simulation time: 03 hr 35 min 34 sec)
Heartbeat CPU 0 instructions: 670000003 cycles: 269864935 heartbeat IPC: 2.725 cumulative IPC: 2.45 (Simulation time: 03 hr 37 min 13 sec)
Heartbeat CPU 1 instructions: 130000002 cycles: 270827470 heartbeat IPC: 0.3154 cumulative IPC: 0.3184 (Simulation time: 03 hr 38 min 01 sec)
Heartbeat CPU 0 instructions: 680000002 cycles: 273486091 heartbeat IPC: 2.762 cumulative IPC: 2.454 (Simulation time: 03 hr 40 min 05 sec)
Heartbeat CPU 3 instructions: 160000002 cycles: 274197144 heartbeat IPC: 0.4076 cumulative IPC: 0.3801 (Simulation time: 03 hr 40 min 40 sec)
Heartbeat CPU 2 instructions: 470000002 cycles: 274211671 heartbeat IPC: 1.54 cumulative IPC: 1.538 (Simulation time: 03 hr 40 min 41 sec)
Heartbeat CPU 0 instructions: 690000002 cycles: 277091369 heartbeat IPC: 2.774 cumulative IPC: 2.459 (Simulation time: 03 hr 42 min 53 sec)
Heartbeat CPU 0 instructions: 700000004 cycles: 280750448 heartbeat IPC: 2.733 cumulative IPC: 2.463 (Simulation time: 03 hr 45 min 44 sec)
Heartbeat CPU 2 instructions: 480000000 cycles: 280804920 heartbeat IPC: 1.517 cumulative IPC: 1.538 (Simulation time: 03 hr 45 min 46 sec)
Heartbeat CPU 0 instructions: 710000001 cycles: 284677028 heartbeat IPC: 2.547 cumulative IPC: 2.464 (Simulation time: 03 hr 48 min 46 sec)
Heartbeat CPU 2 instructions: 490000002 cycles: 287350779 heartbeat IPC: 1.528 cumulative IPC: 1.537 (Simulation time: 03 hr 50 min 49 sec)
Heartbeat CPU 0 instructions: 720000002 cycles: 288334947 heartbeat IPC: 2.734 cumulative IPC: 2.467 (Simulation time: 03 hr 51 min 36 sec)
Heartbeat CPU 0 instructions: 730000000 cycles: 291972316 heartbeat IPC: 2.749 cumulative IPC: 2.471 (Simulation time: 03 hr 54 min 28 sec)
Heartbeat CPU 2 instructions: 500000003 cycles: 293679664 heartbeat IPC: 1.58 cumulative IPC: 1.538 (Simulation time: 03 hr 55 min 50 sec)
Heartbeat CPU 0 instructions: 740000001 cycles: 295596993 heartbeat IPC: 2.759 cumulative IPC: 2.475 (Simulation time: 03 hr 57 min 19 sec)
Heartbeat CPU 0 instructions: 750000000 cycles: 299221069 heartbeat IPC: 2.759 cumulative IPC: 2.479 (Simulation time: 04 hr 00 min 12 sec)
Heartbeat CPU 3 instructions: 170000000 cycles: 299844164 heartbeat IPC: 0.3899 cumulative IPC: 0.381 (Simulation time: 04 hr 00 min 44 sec)
Heartbeat CPU 2 instructions: 510000004 cycles: 300131969 heartbeat IPC: 1.55 cumulative IPC: 1.539 (Simulation time: 04 hr 00 min 59 sec)
Heartbeat CPU 1 instructions: 140000001 cycles: 301701926 heartbeat IPC: 0.3239 cumulative IPC: 0.319 (Simulation time: 04 hr 02 min 19 sec)
Heartbeat CPU 0 instructions: 760000002 cycles: 302831354 heartbeat IPC: 2.77 cumulative IPC: 2.482 (Simulation time: 04 hr 03 min 15 sec)
Heartbeat CPU 0 instructions: 770000000 cycles: 306442437 heartbeat IPC: 2.769 cumulative IPC: 2.486 (Simulation time: 04 hr 06 min 11 sec)
Heartbeat CPU 2 instructions: 520000000 cycles: 306564545 heartbeat IPC: 1.555 cumulative IPC: 1.539 (Simulation time: 04 hr 06 min 17 sec)
Heartbeat CPU 0 instructions: 780000002 cycles: 310025447 heartbeat IPC: 2.791 cumulative IPC: 2.49 (Simulation time: 04 hr 08 min 59 sec)
Heartbeat CPU 2 instructions: 530000004 cycles: 313005509 heartbeat IPC: 1.553 cumulative IPC: 1.539 (Simulation time: 04 hr 11 min 19 sec)
Heartbeat CPU 0 instructions: 790000000 cycles: 313628408 heartbeat IPC: 2.775 cumulative IPC: 2.493 (Simulation time: 04 hr 11 min 49 sec)
Heartbeat CPU 0 instructions: 800000000 cycles: 317259249 heartbeat IPC: 2.754 cumulative IPC: 2.496 (Simulation time: 04 hr 14 min 42 sec)
Heartbeat CPU 2 instructions: 540000002 cycles: 319525457 heartbeat IPC: 1.534 cumulative IPC: 1.539 (Simulation time: 04 hr 16 min 28 sec)
Heartbeat CPU 0 instructions: 810000003 cycles: 320892195 heartbeat IPC: 2.753 cumulative IPC: 2.5 (Simulation time: 04 hr 17 min 33 sec)
Heartbeat CPU 3 instructions: 180000004 cycles: 324226823 heartbeat IPC: 0.4101 cumulative IPC: 0.3833 (Simulation time: 04 hr 20 min 12 sec)
Heartbeat CPU 0 instructions: 820000003 cycles: 324502171 heartbeat IPC: 2.77 cumulative IPC: 2.503 (Simulation time: 04 hr 20 min 25 sec)
Heartbeat CPU 2 instructions: 550000003 cycles: 325985879 heartbeat IPC: 1.548 cumulative IPC: 1.539 (Simulation time: 04 hr 21 min 34 sec)
Heartbeat CPU 0 instructions: 830000002 cycles: 328126696 heartbeat IPC: 2.759 cumulative IPC: 2.506 (Simulation time: 04 hr 23 min 14 sec)
Heartbeat CPU 0 instructions: 840000000 cycles: 331725967 heartbeat IPC: 2.778 cumulative IPC: 2.509 (Simulation time: 04 hr 26 min 03 sec)
Heartbeat CPU 2 instructions: 560000004 cycles: 332463136 heartbeat IPC: 1.544 cumulative IPC: 1.539 (Simulation time: 04 hr 26 min 39 sec)
Heartbeat CPU 1 instructions: 150000003 cycles: 333275671 heartbeat IPC: 0.3167 cumulative IPC: 0.3188 (Simulation time: 04 hr 27 min 16 sec)
Heartbeat CPU 0 instructions: 850000002 cycles: 335311800 heartbeat IPC: 2.789 cumulative IPC: 2.512 (Simulation time: 04 hr 28 min 50 sec)
Heartbeat CPU 0 instructions: 860000004 cycles: 338939637 heartbeat IPC: 2.756 cumulative IPC: 2.515 (Simulation time: 04 hr 31 min 38 sec)
Heartbeat CPU 2 instructions: 570000002 cycles: 339066165 heartbeat IPC: 1.514 cumulative IPC: 1.539 (Simulation time: 04 hr 31 min 45 sec)
Heartbeat CPU 0 instructions: 870000002 cycles: 342544264 heartbeat IPC: 2.774 cumulative IPC: 2.518 (Simulation time: 04 hr 34 min 27 sec)
Heartbeat CPU 2 instructions: 580000004 cycles: 345503397 heartbeat IPC: 1.553 cumulative IPC: 1.539 (Simulation time: 04 hr 36 min 44 sec)
Heartbeat CPU 0 instructions: 880000003 cycles: 346144583 heartbeat IPC: 2.778 cumulative IPC: 2.521 (Simulation time: 04 hr 37 min 16 sec)
Heartbeat CPU 3 instructions: 190000003 cycles: 349456216 heartbeat IPC: 0.3964 cumulative IPC: 0.3843 (Simulation time: 04 hr 39 min 45 sec)
Heartbeat CPU 0 instructions: 890000003 cycles: 349753823 heartbeat IPC: 2.771 cumulative IPC: 2.523 (Simulation time: 04 hr 39 min 58 sec)
Heartbeat CPU 2 instructions: 590000001 cycles: 351992691 heartbeat IPC: 1.541 cumulative IPC: 1.539 (Simulation time: 04 hr 41 min 38 sec)
Heartbeat CPU 0 instructions: 900000001 cycles: 353365731 heartbeat IPC: 2.769 cumulative IPC: 2.526 (Simulation time: 04 hr 42 min 40 sec)
Heartbeat CPU 0 instructions: 910000000 cycles: 357021527 heartbeat IPC: 2.735 cumulative IPC: 2.528 (Simulation time: 04 hr 45 min 21 sec)
Heartbeat CPU 2 instructions: 600000003 cycles: 358512335 heartbeat IPC: 1.534 cumulative IPC: 1.539 (Simulation time: 04 hr 46 min 27 sec)
Heartbeat CPU 0 instructions: 920000004 cycles: 360779015 heartbeat IPC: 2.661 cumulative IPC: 2.53 (Simulation time: 04 hr 48 min 06 sec)
Heartbeat CPU 1 instructions: 160000002 cycles: 364494607 heartbeat IPC: 0.3203 cumulative IPC: 0.3189 (Simulation time: 04 hr 50 min 48 sec)
Heartbeat CPU 0 instructions: 930000002 cycles: 364589185 heartbeat IPC: 2.625 cumulative IPC: 2.531 (Simulation time: 04 hr 50 min 53 sec)
Heartbeat CPU 2 instructions: 610000003 cycles: 365243407 heartbeat IPC: 1.486 cumulative IPC: 1.538 (Simulation time: 04 hr 51 min 22 sec)
Heartbeat CPU 0 instructions: 940000000 cycles: 368274945 heartbeat IPC: 2.713 cumulative IPC: 2.533 (Simulation time: 04 hr 53 min 37 sec)
Heartbeat CPU 2 instructions: 620000000 cycles: 371630134 heartbeat IPC: 1.566 cumulative IPC: 1.539 (Simulation time: 04 hr 56 min 09 sec)
Heartbeat CPU 0 instructions: 950000000 cycles: 371893316 heartbeat IPC: 2.764 cumulative IPC: 2.535 (Simulation time: 04 hr 56 min 20 sec)
Heartbeat CPU 3 instructions: 200000000 cycles: 374802513 heartbeat IPC: 0.3945 cumulative IPC: 0.3851 (Simulation time: 04 hr 58 min 29 sec)
Heartbeat CPU 0 instructions: 960000000 cycles: 375541049 heartbeat IPC: 2.741 cumulative IPC: 2.537 (Simulation time: 04 hr 59 min 02 sec)
Heartbeat CPU 2 instructions: 630000003 cycles: 378137072 heartbeat IPC: 1.537 cumulative IPC: 1.539 (Simulation time: 05 hr 00 min 59 sec)
Heartbeat CPU 0 instructions: 970000002 cycles: 379185585 heartbeat IPC: 2.744 cumulative IPC: 2.539 (Simulation time: 05 hr 01 min 46 sec)
Heartbeat CPU 0 instructions: 980000001 cycles: 382832260 heartbeat IPC: 2.742 cumulative IPC: 2.541 (Simulation time: 05 hr 04 min 33 sec)
Heartbeat CPU 2 instructions: 640000003 cycles: 384609839 heartbeat IPC: 1.545 cumulative IPC: 1.539 (Simulation time: 05 hr 05 min 57 sec)
Heartbeat CPU 0 instructions: 990000003 cycles: 386463882 heartbeat IPC: 2.754 cumulative IPC: 2.543 (Simulation time: 05 hr 07 min 26 sec)
Heartbeat CPU 0 instructions: 1000000002 cycles: 390084105 heartbeat IPC: 2.762 cumulative IPC: 2.546 (Simulation time: 05 hr 10 min 19 sec)
Heartbeat CPU 2 instructions: 650000002 cycles: 391103471 heartbeat IPC: 1.54 cumulative IPC: 1.539 (Simulation time: 05 hr 11 min 04 sec)
Heartbeat CPU 0 instructions: 1010000001 cycles: 393724875 heartbeat IPC: 2.747 cumulative IPC: 2.548 (Simulation time: 05 hr 13 min 04 sec)
Heartbeat CPU 1 instructions: 170000001 cycles: 394753745 heartbeat IPC: 0.3305 cumulative IPC: 0.3199 (Simulation time: 05 hr 13 min 48 sec)
Heartbeat CPU 0 instructions: 1020000003 cycles: 397381399 heartbeat IPC: 2.735 cumulative IPC: 2.549 (Simulation time: 05 hr 15 min 47 sec)
Heartbeat CPU 2 instructions: 660000000 cycles: 397456157 heartbeat IPC: 1.574 cumulative IPC: 1.539 (Simulation time: 05 hr 15 min 50 sec)
Heartbeat CPU 3 instructions: 210000000 cycles: 400007834 heartbeat IPC: 0.3967 cumulative IPC: 0.3858 (Simulation time: 05 hr 17 min 44 sec)
Heartbeat CPU 0 instructions: 1030000001 cycles: 401028084 heartbeat IPC: 2.742 cumulative IPC: 2.551 (Simulation time: 05 hr 18 min 30 sec)
Heartbeat CPU 2 instructions: 670000000 cycles: 403803646 heartbeat IPC: 1.575 cumulative IPC: 1.54 (Simulation time: 05 hr 20 min 35 sec)
Heartbeat CPU 0 instructions: 1040000001 cycles: 404678332 heartbeat IPC: 2.74 cumulative IPC: 2.553 (Simulation time: 05 hr 21 min 12 sec)
Simulation finished CPU 3 instructions: 150000001 cycles: 387601649 cumulative IPC: 0.387 (Simulation time: 05 hr 23 min 06 sec)
Heartbeat CPU 0 instructions: 1050000000 cycles: 408395804 heartbeat IPC: 2.69 cumulative IPC: 2.554 (Simulation time: 05 hr 23 min 57 sec)
Heartbeat CPU 2 instructions: 680000002 cycles: 410333032 heartbeat IPC: 1.532 cumulative IPC: 1.54 (Simulation time: 05 hr 25 min 24 sec)
Heartbeat CPU 0 instructions: 1060000001 cycles: 412094119 heartbeat IPC: 2.704 cumulative IPC: 2.556 (Simulation time: 05 hr 26 min 44 sec)
Heartbeat CPU 0 instructions: 1070000001 cycles: 415789744 heartbeat IPC: 2.706 cumulative IPC: 2.557 (Simulation time: 05 hr 29 min 29 sec)
Heartbeat CPU 2 instructions: 690000000 cycles: 416885044 heartbeat IPC: 1.526 cumulative IPC: 1.54 (Simulation time: 05 hr 30 min 16 sec)
Heartbeat CPU 0 instructions: 1080000000 cycles: 419469853 heartbeat IPC: 2.717 cumulative IPC: 2.559 (Simulation time: 05 hr 32 min 14 sec)
Heartbeat CPU 0 instructions: 1090000001 cycles: 423190508 heartbeat IPC: 2.688 cumulative IPC: 2.56 (Simulation time: 05 hr 34 min 59 sec)
Heartbeat CPU 2 instructions: 700000001 cycles: 423334964 heartbeat IPC: 1.55 cumulative IPC: 1.54 (Simulation time: 05 hr 35 min 05 sec)
Heartbeat CPU 3 instructions: 220000004 cycles: 424143992 heartbeat IPC: 0.4143 cumulative IPC: 0.3875 (Simulation time: 05 hr 35 min 42 sec)
Heartbeat CPU 1 instructions: 180000001 cycles: 425733050 heartbeat IPC: 0.3228 cumulative IPC: 0.3201 (Simulation time: 05 hr 36 min 54 sec)
Heartbeat CPU 0 instructions: 1100000003 cycles: 426915697 heartbeat IPC: 2.684 cumulative IPC: 2.561 (Simulation time: 05 hr 37 min 47 sec)
Heartbeat CPU 2 instructions: 710000002 cycles: 429778481 heartbeat IPC: 1.552 cumulative IPC: 1.54 (Simulation time: 05 hr 39 min 54 sec)
Heartbeat CPU 0 instructions: 1110000003 cycles: 430655768 heartbeat IPC: 2.674 cumulative IPC: 2.562 (Simulation time: 05 hr 40 min 33 sec)
Heartbeat CPU 0 instructions: 1120000002 cycles: 434438212 heartbeat IPC: 2.644 cumulative IPC: 2.563 (Simulation time: 05 hr 43 min 22 sec)
Heartbeat CPU 2 instructions: 720000000 cycles: 436201368 heartbeat IPC: 1.557 cumulative IPC: 1.54 (Simulation time: 05 hr 44 min 40 sec)
Heartbeat CPU 0 instructions: 1130000002 cycles: 438083246 heartbeat IPC: 2.743 cumulative IPC: 2.564 (Simulation time: 05 hr 46 min 03 sec)
Heartbeat CPU 0 instructions: 1140000002 cycles: 441721919 heartbeat IPC: 2.748 cumulative IPC: 2.566 (Simulation time: 05 hr 48 min 43 sec)
Heartbeat CPU 2 instructions: 730000001 cycles: 442929586 heartbeat IPC: 1.486 cumulative IPC: 1.539 (Simulation time: 05 hr 49 min 34 sec)
Heartbeat CPU 0 instructions: 1150000000 cycles: 445394151 heartbeat IPC: 2.723 cumulative IPC: 2.567 (Simulation time: 05 hr 51 min 25 sec)
Heartbeat CPU 0 instructions: 1160000000 cycles: 449016485 heartbeat IPC: 2.761 cumulative IPC: 2.569 (Simulation time: 05 hr 54 min 07 sec)
Heartbeat CPU 2 instructions: 740000004 cycles: 449446679 heartbeat IPC: 1.534 cumulative IPC: 1.539 (Simulation time: 05 hr 54 min 25 sec)
Heartbeat CPU 3 instructions: 230000000 cycles: 449688610 heartbeat IPC: 0.3915 cumulative IPC: 0.3878 (Simulation time: 05 hr 54 min 36 sec)
Heartbeat CPU 0 instructions: 1170000000 cycles: 452861586 heartbeat IPC: 2.601 cumulative IPC: 2.569 (Simulation time: 05 hr 56 min 55 sec)
Heartbeat CPU 2 instructions: 750000003 cycles: 456063250 heartbeat IPC: 1.511 cumulative IPC: 1.539 (Simulation time: 05 hr 59 min 15 sec)
Heartbeat CPU 0 instructions: 1180000003 cycles: 456801547 heartbeat IPC: 2.538 cumulative IPC: 2.569 (Simulation time: 05 hr 59 min 47 sec)
Heartbeat CPU 1 instructions: 190000004 cycles: 457249032 heartbeat IPC: 0.3173 cumulative IPC: 0.3199 (Simulation time: 06 hr 00 min 09 sec)
Heartbeat CPU 0 instructions: 1190000001 cycles: 460443345 heartbeat IPC: 2.746 cumulative IPC: 2.57 (Simulation time: 06 hr 02 min 32 sec)
Heartbeat CPU 2 instructions: 760000002 cycles: 462387281 heartbeat IPC: 1.581 cumulative IPC: 1.539 (Simulation time: 06 hr 04 min 00 sec)
Heartbeat CPU 0 instructions: 1200000001 cycles: 464085825 heartbeat IPC: 2.745 cumulative IPC: 2.572 (Simulation time: 06 hr 05 min 16 sec)
Heartbeat CPU 0 instructions: 1210000002 cycles: 467696955 heartbeat IPC: 2.769 cumulative IPC: 2.573 (Simulation time: 06 hr 08 min 01 sec)
Heartbeat CPU 2 instructions: 770000002 cycles: 468924487 heartbeat IPC: 1.53 cumulative IPC: 1.539 (Simulation time: 06 hr 08 min 55 sec)
Heartbeat CPU 0 instructions: 1220000002 cycles: 471318040 heartbeat IPC: 2.762 cumulative IPC: 2.575 (Simulation time: 06 hr 10 min 49 sec)
Heartbeat CPU 3 instructions: 240000002 cycles: 472761878 heartbeat IPC: 0.4334 cumulative IPC: 0.3901 (Simulation time: 06 hr 11 min 56 sec)
Heartbeat CPU 0 instructions: 1230000002 cycles: 474926656 heartbeat IPC: 2.771 cumulative IPC: 2.576 (Simulation time: 06 hr 13 min 38 sec)
Heartbeat CPU 2 instructions: 780000001 cycles: 475362826 heartbeat IPC: 1.553 cumulative IPC: 1.539 (Simulation time: 06 hr 13 min 58 sec)
Heartbeat CPU 0 instructions: 1240000003 cycles: 478543746 heartbeat IPC: 2.765 cumulative IPC: 2.578 (Simulation time: 06 hr 16 min 26 sec)
Heartbeat CPU 2 instructions: 790000000 cycles: 481721136 heartbeat IPC: 1.573 cumulative IPC: 1.54 (Simulation time: 06 hr 18 min 48 sec)
Heartbeat CPU 0 instructions: 1250000001 cycles: 482150434 heartbeat IPC: 2.773 cumulative IPC: 2.579 (Simulation time: 06 hr 19 min 07 sec)
Heartbeat CPU 0 instructions: 1260000000 cycles: 485789290 heartbeat IPC: 2.748 cumulative IPC: 2.581 (Simulation time: 06 hr 21 min 48 sec)
Heartbeat CPU 1 instructions: 200000001 cycles: 488005337 heartbeat IPC: 0.3251 cumulative IPC: 0.3202 (Simulation time: 06 hr 23 min 27 sec)
Simulation finished CPU 1 instructions: 150000003 cycles: 468421748 cumulative IPC: 0.3202 (Simulation time: 06 hr 23 min 27 sec)
Simulation complete CPU 0 instructions: 1209136086 cycles: 468421748 cumulative IPC: 2.581 (Simulation time: 06 hr 23 min 27 sec)
Simulation complete CPU 1 instructions: 150000003 cycles: 468421748 cumulative IPC: 0.3202 (Simulation time: 06 hr 23 min 27 sec)
Simulation complete CPU 2 instructions: 721331861 cycles: 468421748 cumulative IPC: 1.54 (Simulation time: 06 hr 23 min 27 sec)
Simulation complete CPU 3 instructions: 183145906 cycles: 468421748 cumulative IPC: 0.391 (Simulation time: 06 hr 23 min 27 sec)

ChampSim completed all CPUs

=== Simulation ===
CPU 0 runs /home/grads/r/rdas40/dpc3_traces/644.nab_s-5853B.champsimtrace.xzCPU 1 runs /home/grads/r/rdas40/dpc3_traces/620.omnetpp_s-874B.champsimtrace.xzCPU 2 runs /home/grads/r/rdas40/dpc3_traces/649.fotonik3d_s-1176B.champsimtrace.xzCPU 3 runs /home/grads/r/rdas40/dpc3_traces/605.mcf_s-665B.champsimtrace.xz
Total Simulation Statistics (not including warmup)

CPU 0 cumulative IPC: 2.581 instructions: 1209136086 cycles: 468421748
CPU 0 Branch Prediction Accuracy: 87.93% MPKI: 11.68 Average ROB Occupancy at Mispredict: 194.1
Branch type MPKI
BRANCH_DIRECT_JUMP: 0.000121
BRANCH_INDIRECT: 8.27e-07
BRANCH_CONDITIONAL: 6.16
BRANCH_DIRECT_CALL: 8.27e-07
BRANCH_INDIRECT_CALL: 0
BRANCH_RETURN: 5.53


CPU 1 cumulative IPC: 0.3202 instructions: 150000003 cycles: 468421748
CPU 1 Branch Prediction Accuracy: 94.9% MPKI: 10.6 Average ROB Occupancy at Mispredict: 84.09
Branch type MPKI
BRANCH_DIRECT_JUMP: 0.923
BRANCH_INDIRECT: 0.128
BRANCH_CONDITIONAL: 8.42
BRANCH_DIRECT_CALL: 0.00016
BRANCH_INDIRECT_CALL: 0.734
BRANCH_RETURN: 0.399


CPU 2 cumulative IPC: 1.54 instructions: 721331861 cycles: 468421748
CPU 2 Branch Prediction Accuracy: 99.73% MPKI: 0.04854 Average ROB Occupancy at Mispredict: 89.51
Branch type MPKI
BRANCH_DIRECT_JUMP: 0.000123
BRANCH_INDIRECT: 0
BRANCH_CONDITIONAL: 0.0373
BRANCH_DIRECT_CALL: 2.22e-05
BRANCH_INDIRECT_CALL: 0
BRANCH_RETURN: 0.0111


CPU 3 cumulative IPC: 0.391 instructions: 183145906 cycles: 468421748
CPU 3 Branch Prediction Accuracy: 90.38% MPKI: 23.79 Average ROB Occupancy at Mispredict: 18.54
Branch type MPKI
BRANCH_DIRECT_JUMP: 0.257
BRANCH_INDIRECT: 0
BRANCH_CONDITIONAL: 23.5
BRANCH_DIRECT_CALL: 0
BRANCH_INDIRECT_CALL: 0.000579
BRANCH_RETURN: 0

LLC TOTAL        ACCESS:     325905 HIT:      47720 MISS:     278185
LLC LOAD         ACCESS:      42493 HIT:       8664 MISS:      33829
LLC RFO          ACCESS:        710 HIT:        230 MISS:        480
LLC PREFETCH     ACCESS:     269459 HIT:      38111 MISS:     231348
LLC WRITE        ACCESS:       9113 HIT:        329 MISS:       8784
LLC TRANSLATION  ACCESS:       4130 HIT:        386 MISS:       3744
LLC PREFETCH REQUESTED:          0 ISSUED:          0 USEFUL:          0 USELESS:          0
LLC AVERAGE MISS LATENCY: 461.7 cycles
LLC TOTAL        ACCESS:    3524523 HIT:    1465250 MISS:    2059273
LLC LOAD         ACCESS:    1684989 HIT:     348844 MISS:    1336145
LLC RFO          ACCESS:     258103 HIT:     100600 MISS:     157503
LLC PREFETCH     ACCESS:      14381 HIT:       1363 MISS:      13018
LLC WRITE        ACCESS:     970876 HIT:     957869 MISS:      13007
LLC TRANSLATION  ACCESS:     596174 HIT:      56574 MISS:     539600
LLC PREFETCH REQUESTED:          0 ISSUED:          0 USEFUL:          0 USELESS:          0
LLC AVERAGE MISS LATENCY: 461.7 cycles
LLC TOTAL        ACCESS:   14248329 HIT:    7883195 MISS:    6365134
LLC LOAD         ACCESS:    1895733 HIT:     293131 MISS:    1602602
LLC RFO          ACCESS:       7827 HIT:       7814 MISS:         13
LLC PREFETCH     ACCESS:    6039277 HIT:    1278250 MISS:    4761027
LLC WRITE        ACCESS:    6302559 HIT:    6301568 MISS:        991
LLC TRANSLATION  ACCESS:       2933 HIT:       2432 MISS:        501
LLC PREFETCH REQUESTED:          0 ISSUED:          0 USEFUL:          0 USELESS:          0
LLC AVERAGE MISS LATENCY: 461.7 cycles
LLC TOTAL        ACCESS:    5288010 HIT:    3208063 MISS:    2079947
LLC LOAD         ACCESS:    2481865 HIT:    1848883 MISS:     632982
LLC RFO          ACCESS:     337376 HIT:     334669 MISS:       2707
LLC PREFETCH     ACCESS:    1931780 HIT:     501669 MISS:    1430111
LLC WRITE        ACCESS:     519788 HIT:     512348 MISS:       7440
LLC TRANSLATION  ACCESS:      17201 HIT:      10494 MISS:       6707
LLC PREFETCH REQUESTED:          0 ISSUED:          0 USEFUL:          0 USELESS:          0
LLC AVERAGE MISS LATENCY: 461.7 cycles
cpu0_DTLB TOTAL        ACCESS:  212862644 HIT:  210669683 MISS:    2192961
cpu0_DTLB LOAD         ACCESS:  212862644 HIT:  210669683 MISS:    2192961
cpu0_DTLB RFO          ACCESS:          0 HIT:          0 MISS:          0
cpu0_DTLB PREFETCH     ACCESS:          0 HIT:          0 MISS:          0
cpu0_DTLB WRITE        ACCESS:          0 HIT:          0 MISS:          0
cpu0_DTLB TRANSLATION  ACCESS:          0 HIT:          0 MISS:          0
cpu0_DTLB PREFETCH REQUESTED:          0 ISSUED:          0 USEFUL:          0 USELESS:          0
cpu0_DTLB AVERAGE MISS LATENCY: 9.252 cycles
cpu0_DTLB TOTAL        ACCESS:          0 HIT:          0 MISS:          0
cpu0_DTLB LOAD         ACCESS:          0 HIT:          0 MISS:          0
cpu0_DTLB RFO          ACCESS:          0 HIT:          0 MISS:          0
cpu0_DTLB PREFETCH     ACCESS:          0 HIT:          0 MISS:          0
cpu0_DTLB WRITE        ACCESS:          0 HIT:          0 MISS:          0
cpu0_DTLB TRANSLATION  ACCESS:          0 HIT:          0 MISS:          0
cpu0_DTLB PREFETCH REQUESTED:          0 ISSUED:          0 USEFUL:          0 USELESS:          0
cpu0_DTLB AVERAGE MISS LATENCY: 9.252 cycles
cpu0_DTLB TOTAL        ACCESS:          0 HIT:          0 MISS:          0
cpu0_DTLB LOAD         ACCESS:          0 HIT:          0 MISS:          0
cpu0_DTLB RFO          ACCESS:          0 HIT:          0 MISS:          0
cpu0_DTLB PREFETCH     ACCESS:          0 HIT:          0 MISS:          0
cpu0_DTLB WRITE        ACCESS:          0 HIT:          0 MISS:          0
cpu0_DTLB TRANSLATION  ACCESS:          0 HIT:          0 MISS:          0
cpu0_DTLB PREFETCH REQUESTED:          0 ISSUED:          0 USEFUL:          0 USELESS:          0
cpu0_DTLB AVERAGE MISS LATENCY: 9.252 cycles
cpu0_DTLB TOTAL        ACCESS:          0 HIT:          0 MISS:          0
cpu0_DTLB LOAD         ACCESS:          0 HIT:          0 MISS:          0
cpu0_DTLB RFO          ACCESS:          0 HIT:          0 MISS:          0
cpu0_DTLB PREFETCH     ACCESS:          0 HIT:          0 MISS:          0
cpu0_DTLB WRITE        ACCESS:          0 HIT:          0 MISS:          0
cpu0_DTLB TRANSLATION  ACCESS:          0 HIT:          0 MISS:          0
cpu0_DTLB PREFETCH REQUESTED:          0 ISSUED:          0 USEFUL:          0 USELESS:          0
cpu0_DTLB AVERAGE MISS LATENCY: 9.252 cycles
cpu0_ITLB TOTAL        ACCESS:      11469 HIT:      11469 MISS:          0
cpu0_ITLB LOAD         ACCESS:      11469 HIT:      11469 MISS:          0
cpu0_ITLB RFO          ACCESS:          0 HIT:          0 MISS:          0
cpu0_ITLB PREFETCH     ACCESS:          0 HIT:          0 MISS:          0
cpu0_ITLB WRITE        ACCESS:          0 HIT:          0 MISS:          0
cpu0_ITLB TRANSLATION  ACCESS:          0 HIT:          0 MISS:          0
cpu0_ITLB PREFETCH REQUESTED:          0 ISSUED:          0 USEFUL:          0 USELESS:          0
cpu0_ITLB AVERAGE MISS LATENCY: -nan cycles
cpu0_ITLB TOTAL        ACCESS:          0 HIT:          0 MISS:          0
cpu0_ITLB LOAD         ACCESS:          0 HIT:          0 MISS:          0
cpu0_ITLB RFO          ACCESS:          0 HIT:          0 MISS:          0
cpu0_ITLB PREFETCH     ACCESS:          0 HIT:          0 MISS:          0
cpu0_ITLB WRITE        ACCESS:          0 HIT:          0 MISS:          0
cpu0_ITLB TRANSLATION  ACCESS:          0 HIT:          0 MISS:          0
cpu0_ITLB PREFETCH REQUESTED:          0 ISSUED:          0 USEFUL:          0 USELESS:          0
cpu0_ITLB AVERAGE MISS LATENCY: -nan cycles
cpu0_ITLB TOTAL        ACCESS:          0 HIT:          0 MISS:          0
cpu0_ITLB LOAD         ACCESS:          0 HIT:          0 MISS:          0
cpu0_ITLB RFO          ACCESS:          0 HIT:          0 MISS:          0
cpu0_ITLB PREFETCH     ACCESS:          0 HIT:          0 MISS:          0
cpu0_ITLB WRITE        ACCESS:          0 HIT:          0 MISS:          0
cpu0_ITLB TRANSLATION  ACCESS:          0 HIT:          0 MISS:          0
cpu0_ITLB PREFETCH REQUESTED:          0 ISSUED:          0 USEFUL:          0 USELESS:          0
cpu0_ITLB AVERAGE MISS LATENCY: -nan cycles
cpu0_ITLB TOTAL        ACCESS:          0 HIT:          0 MISS:          0
cpu0_ITLB LOAD         ACCESS:          0 HIT:          0 MISS:          0
cpu0_ITLB RFO          ACCESS:          0 HIT:          0 MISS:          0
cpu0_ITLB PREFETCH     ACCESS:          0 HIT:          0 MISS:          0
cpu0_ITLB WRITE        ACCESS:          0 HIT:          0 MISS:          0
cpu0_ITLB TRANSLATION  ACCESS:          0 HIT:          0 MISS:          0
cpu0_ITLB PREFETCH REQUESTED:          0 ISSUED:          0 USEFUL:          0 USELESS:          0
cpu0_ITLB AVERAGE MISS LATENCY: -nan cycles
cpu0_L1D TOTAL        ACCESS:  297513156 HIT:  288397219 MISS:    9115937
cpu0_L1D LOAD         ACCESS:  153908031 HIT:  149627837 MISS:    4280194
cpu0_L1D RFO          ACCESS:          0 HIT:          0 MISS:          0
cpu0_L1D PREFETCH     ACCESS:   13038580 HIT:    8274846 MISS:    4763734
cpu0_L1D WRITE        ACCESS:  130557123 HIT:  130494319 MISS:      62804
cpu0_L1D TRANSLATION  ACCESS:       9422 HIT:        217 MISS:       9205
cpu0_L1D PREFETCH REQUESTED:  152020476 ISSUED:   13038580 USEFUL:     628136 USELESS:     238399
cpu0_L1D AVERAGE MISS LATENCY: 16.75 cycles
cpu0_L1D TOTAL        ACCESS:          0 HIT:          0 MISS:          0
cpu0_L1D LOAD         ACCESS:          0 HIT:          0 MISS:          0
cpu0_L1D RFO          ACCESS:          0 HIT:          0 MISS:          0
cpu0_L1D PREFETCH     ACCESS:          0 HIT:          0 MISS:          0
cpu0_L1D WRITE        ACCESS:          0 HIT:          0 MISS:          0
cpu0_L1D TRANSLATION  ACCESS:          0 HIT:          0 MISS:          0
cpu0_L1D PREFETCH REQUESTED:  152020476 ISSUED:   13038580 USEFUL:     628136 USELESS:     238399
cpu0_L1D AVERAGE MISS LATENCY: 16.75 cycles
cpu0_L1D TOTAL        ACCESS:          0 HIT:          0 MISS:          0
cpu0_L1D LOAD         ACCESS:          0 HIT:          0 MISS:          0
cpu0_L1D RFO          ACCESS:          0 HIT:          0 MISS:          0
cpu0_L1D PREFETCH     ACCESS:          0 HIT:          0 MISS:          0
cpu0_L1D WRITE        ACCESS:          0 HIT:          0 MISS:          0
cpu0_L1D TRANSLATION  ACCESS:          0 HIT:          0 MISS:          0
cpu0_L1D PREFETCH REQUESTED:  152020476 ISSUED:   13038580 USEFUL:     628136 USELESS:     238399
cpu0_L1D AVERAGE MISS LATENCY: 16.75 cycles
cpu0_L1D TOTAL        ACCESS:          0 HIT:          0 MISS:          0
cpu0_L1D LOAD         ACCESS:          0 HIT:          0 MISS:          0
cpu0_L1D RFO          ACCESS:          0 HIT:          0 MISS:          0
cpu0_L1D PREFETCH     ACCESS:          0 HIT:          0 MISS:          0
cpu0_L1D WRITE        ACCESS:          0 HIT:          0 MISS:          0
cpu0_L1D TRANSLATION  ACCESS:          0 HIT:          0 MISS:          0
cpu0_L1D PREFETCH REQUESTED:  152020476 ISSUED:   13038580 USEFUL:     628136 USELESS:     238399
cpu0_L1D AVERAGE MISS LATENCY: 16.75 cycles
cpu0_L1I TOTAL        ACCESS:      14016 HIT:      14014 MISS:          2
cpu0_L1I LOAD         ACCESS:      14016 HIT:      14014 MISS:          2
cpu0_L1I RFO          ACCESS:          0 HIT:          0 MISS:          0
cpu0_L1I PREFETCH     ACCESS:          0 HIT:          0 MISS:          0
cpu0_L1I WRITE        ACCESS:          0 HIT:          0 MISS:          0
cpu0_L1I TRANSLATION  ACCESS:          0 HIT:          0 MISS:          0
cpu0_L1I PREFETCH REQUESTED:          0 ISSUED:          0 USEFUL:          0 USELESS:          0
cpu0_L1I AVERAGE MISS LATENCY: 373.5 cycles
cpu0_L1I TOTAL        ACCESS:          0 HIT:          0 MISS:          0
cpu0_L1I LOAD         ACCESS:          0 HIT:          0 MISS:          0
cpu0_L1I RFO          ACCESS:          0 HIT:          0 MISS:          0
cpu0_L1I PREFETCH     ACCESS:          0 HIT:          0 MISS:          0
cpu0_L1I WRITE        ACCESS:          0 HIT:          0 MISS:          0
cpu0_L1I TRANSLATION  ACCESS:          0 HIT:          0 MISS:          0
cpu0_L1I PREFETCH REQUESTED:          0 ISSUED:          0 USEFUL:          0 USELESS:          0
cpu0_L1I AVERAGE MISS LATENCY: 373.5 cycles
cpu0_L1I TOTAL        ACCESS:          0 HIT:          0 MISS:          0
cpu0_L1I LOAD         ACCESS:          0 HIT:          0 MISS:          0
cpu0_L1I RFO          ACCESS:          0 HIT:          0 MISS:          0
cpu0_L1I PREFETCH     ACCESS:          0 HIT:          0 MISS:          0
cpu0_L1I WRITE        ACCESS:          0 HIT:          0 MISS:          0
cpu0_L1I TRANSLATION  ACCESS:          0 HIT:          0 MISS:          0
cpu0_L1I PREFETCH REQUESTED:          0 ISSUED:          0 USEFUL:          0 USELESS:          0
cpu0_L1I AVERAGE MISS LATENCY: 373.5 cycles
cpu0_L1I TOTAL        ACCESS:          0 HIT:          0 MISS:          0
cpu0_L1I LOAD         ACCESS:          0 HIT:          0 MISS:          0
cpu0_L1I RFO          ACCESS:          0 HIT:          0 MISS:          0
cpu0_L1I PREFETCH     ACCESS:          0 HIT:          0 MISS:          0
cpu0_L1I WRITE        ACCESS:          0 HIT:          0 MISS:          0
cpu0_L1I TRANSLATION  ACCESS:          0 HIT:          0 MISS:          0
cpu0_L1I PREFETCH REQUESTED:          0 ISSUED:          0 USEFUL:          0 USELESS:          0
cpu0_L1I AVERAGE MISS LATENCY: 373.5 cycles
cpu0_L2C TOTAL        ACCESS:   10710502 HIT:   10367577 MISS:     342925
cpu0_L2C LOAD         ACCESS:    4267135 HIT:    4224494 MISS:      42641
cpu0_L2C RFO          ACCESS:      16001 HIT:      15291 MISS:        710
cpu0_L2C PREFETCH     ACCESS:    4758671 HIT:    4463261 MISS:     295410
cpu0_L2C WRITE        ACCESS:    1659490 HIT:    1659456 MISS:         34
cpu0_L2C TRANSLATION  ACCESS:       9205 HIT:       5075 MISS:       4130
cpu0_L2C PREFETCH REQUESTED:          0 ISSUED:          0 USEFUL:          0 USELESS:          0
cpu0_L2C AVERAGE MISS LATENCY: 467.5 cycles
cpu0_L2C TOTAL        ACCESS:          0 HIT:          0 MISS:          0
cpu0_L2C LOAD         ACCESS:          0 HIT:          0 MISS:          0
cpu0_L2C RFO          ACCESS:          0 HIT:          0 MISS:          0
cpu0_L2C PREFETCH     ACCESS:          0 HIT:          0 MISS:          0
cpu0_L2C WRITE        ACCESS:          0 HIT:          0 MISS:          0
cpu0_L2C TRANSLATION  ACCESS:          0 HIT:          0 MISS:          0
cpu0_L2C PREFETCH REQUESTED:          0 ISSUED:          0 USEFUL:          0 USELESS:          0
cpu0_L2C AVERAGE MISS LATENCY: 467.5 cycles
cpu0_L2C TOTAL        ACCESS:          0 HIT:          0 MISS:          0
cpu0_L2C LOAD         ACCESS:          0 HIT:          0 MISS:          0
cpu0_L2C RFO          ACCESS:          0 HIT:          0 MISS:          0
cpu0_L2C PREFETCH     ACCESS:          0 HIT:          0 MISS:          0
cpu0_L2C WRITE        ACCESS:          0 HIT:          0 MISS:          0
cpu0_L2C TRANSLATION  ACCESS:          0 HIT:          0 MISS:          0
cpu0_L2C PREFETCH REQUESTED:          0 ISSUED:          0 USEFUL:          0 USELESS:          0
cpu0_L2C AVERAGE MISS LATENCY: 467.5 cycles
cpu0_L2C TOTAL        ACCESS:          0 HIT:          0 MISS:          0
cpu0_L2C LOAD         ACCESS:          0 HIT:          0 MISS:          0
cpu0_L2C RFO          ACCESS:          0 HIT:          0 MISS:          0
cpu0_L2C PREFETCH     ACCESS:          0 HIT:          0 MISS:          0
cpu0_L2C WRITE        ACCESS:          0 HIT:          0 MISS:          0
cpu0_L2C TRANSLATION  ACCESS:          0 HIT:          0 MISS:          0
cpu0_L2C PREFETCH REQUESTED:          0 ISSUED:          0 USEFUL:          0 USELESS:          0
cpu0_L2C AVERAGE MISS LATENCY: 467.5 cycles
cpu0_STLB TOTAL        ACCESS:    2098923 HIT:    2089797 MISS:       9126
cpu0_STLB LOAD         ACCESS:    2098923 HIT:    2089797 MISS:       9126
cpu0_STLB RFO          ACCESS:          0 HIT:          0 MISS:          0
cpu0_STLB PREFETCH     ACCESS:          0 HIT:          0 MISS:          0
cpu0_STLB WRITE        ACCESS:          0 HIT:          0 MISS:          0
cpu0_STLB TRANSLATION  ACCESS:          0 HIT:          0 MISS:          0
cpu0_STLB PREFETCH REQUESTED:          0 ISSUED:          0 USEFUL:          0 USELESS:          0
cpu0_STLB AVERAGE MISS LATENCY: 453.8 cycles
cpu0_STLB TOTAL        ACCESS:          0 HIT:          0 MISS:          0
cpu0_STLB LOAD         ACCESS:          0 HIT:          0 MISS:          0
cpu0_STLB RFO          ACCESS:          0 HIT:          0 MISS:          0
cpu0_STLB PREFETCH     ACCESS:          0 HIT:          0 MISS:          0
cpu0_STLB WRITE        ACCESS:          0 HIT:          0 MISS:          0
cpu0_STLB TRANSLATION  ACCESS:          0 HIT:          0 MISS:          0
cpu0_STLB PREFETCH REQUESTED:          0 ISSUED:          0 USEFUL:          0 USELESS:          0
cpu0_STLB AVERAGE MISS LATENCY: 453.8 cycles
cpu0_STLB TOTAL        ACCESS:          0 HIT:          0 MISS:          0
cpu0_STLB LOAD         ACCESS:          0 HIT:          0 MISS:          0
cpu0_STLB RFO          ACCESS:          0 HIT:          0 MISS:          0
cpu0_STLB PREFETCH     ACCESS:          0 HIT:          0 MISS:          0
cpu0_STLB WRITE        ACCESS:          0 HIT:          0 MISS:          0
cpu0_STLB TRANSLATION  ACCESS:          0 HIT:          0 MISS:          0
cpu0_STLB PREFETCH REQUESTED:          0 ISSUED:          0 USEFUL:          0 USELESS:          0
cpu0_STLB AVERAGE MISS LATENCY: 453.8 cycles
cpu0_STLB TOTAL        ACCESS:          0 HIT:          0 MISS:          0
cpu0_STLB LOAD         ACCESS:          0 HIT:          0 MISS:          0
cpu0_STLB RFO          ACCESS:          0 HIT:          0 MISS:          0
cpu0_STLB PREFETCH     ACCESS:          0 HIT:          0 MISS:          0
cpu0_STLB WRITE        ACCESS:          0 HIT:          0 MISS:          0
cpu0_STLB TRANSLATION  ACCESS:          0 HIT:          0 MISS:          0
cpu0_STLB PREFETCH REQUESTED:          0 ISSUED:          0 USEFUL:          0 USELESS:          0
cpu0_STLB AVERAGE MISS LATENCY: 453.8 cycles
cpu1_DTLB TOTAL        ACCESS:          0 HIT:          0 MISS:          0
cpu1_DTLB LOAD         ACCESS:          0 HIT:          0 MISS:          0
cpu1_DTLB RFO          ACCESS:          0 HIT:          0 MISS:          0
cpu1_DTLB PREFETCH     ACCESS:          0 HIT:          0 MISS:          0
cpu1_DTLB WRITE        ACCESS:          0 HIT:          0 MISS:          0
cpu1_DTLB TRANSLATION  ACCESS:          0 HIT:          0 MISS:          0
cpu1_DTLB PREFETCH REQUESTED:          0 ISSUED:          0 USEFUL:          0 USELESS:          0
cpu1_DTLB AVERAGE MISS LATENCY: 90.18 cycles
cpu1_DTLB TOTAL        ACCESS:   38245885 HIT:   34955126 MISS:    3290759
cpu1_DTLB LOAD         ACCESS:   38245885 HIT:   34955126 MISS:    3290759
cpu1_DTLB RFO          ACCESS:          0 HIT:          0 MISS:          0
cpu1_DTLB PREFETCH     ACCESS:          0 HIT:          0 MISS:          0
cpu1_DTLB WRITE        ACCESS:          0 HIT:          0 MISS:          0
cpu1_DTLB TRANSLATION  ACCESS:          0 HIT:          0 MISS:          0
cpu1_DTLB PREFETCH REQUESTED:          0 ISSUED:          0 USEFUL:          0 USELESS:          0
cpu1_DTLB AVERAGE MISS LATENCY: 90.18 cycles
cpu1_DTLB TOTAL        ACCESS:          0 HIT:          0 MISS:          0
cpu1_DTLB LOAD         ACCESS:          0 HIT:          0 MISS:          0
cpu1_DTLB RFO          ACCESS:          0 HIT:          0 MISS:          0
cpu1_DTLB PREFETCH     ACCESS:          0 HIT:          0 MISS:          0
cpu1_DTLB WRITE        ACCESS:          0 HIT:          0 MISS:          0
cpu1_DTLB TRANSLATION  ACCESS:          0 HIT:          0 MISS:          0
cpu1_DTLB PREFETCH REQUESTED:          0 ISSUED:          0 USEFUL:          0 USELESS:          0
cpu1_DTLB AVERAGE MISS LATENCY: 90.18 cycles
cpu1_DTLB TOTAL        ACCESS:          0 HIT:          0 MISS:          0
cpu1_DTLB LOAD         ACCESS:          0 HIT:          0 MISS:          0
cpu1_DTLB RFO          ACCESS:          0 HIT:          0 MISS:          0
cpu1_DTLB PREFETCH     ACCESS:          0 HIT:          0 MISS:          0
cpu1_DTLB WRITE        ACCESS:          0 HIT:          0 MISS:          0
cpu1_DTLB TRANSLATION  ACCESS:          0 HIT:          0 MISS:          0
cpu1_DTLB PREFETCH REQUESTED:          0 ISSUED:          0 USEFUL:          0 USELESS:          0
cpu1_DTLB AVERAGE MISS LATENCY: 90.18 cycles
cpu1_ITLB TOTAL        ACCESS:          0 HIT:          0 MISS:          0
cpu1_ITLB LOAD         ACCESS:          0 HIT:          0 MISS:          0
cpu1_ITLB RFO          ACCESS:          0 HIT:          0 MISS:          0
cpu1_ITLB PREFETCH     ACCESS:          0 HIT:          0 MISS:          0
cpu1_ITLB WRITE        ACCESS:          0 HIT:          0 MISS:          0
cpu1_ITLB TRANSLATION  ACCESS:          0 HIT:          0 MISS:          0
cpu1_ITLB PREFETCH REQUESTED:          0 ISSUED:          0 USEFUL:          0 USELESS:          0
cpu1_ITLB AVERAGE MISS LATENCY: 7.938 cycles
cpu1_ITLB TOTAL        ACCESS:   10584172 HIT:   10308734 MISS:     275438
cpu1_ITLB LOAD         ACCESS:   10584172 HIT:   10308734 MISS:     275438
cpu1_ITLB RFO          ACCESS:          0 HIT:          0 MISS:          0
cpu1_ITLB PREFETCH     ACCESS:          0 HIT:          0 MISS:          0
cpu1_ITLB WRITE        ACCESS:          0 HIT:          0 MISS:          0
cpu1_ITLB TRANSLATION  ACCESS:          0 HIT:          0 MISS:          0
cpu1_ITLB PREFETCH REQUESTED:          0 ISSUED:          0 USEFUL:          0 USELESS:          0
cpu1_ITLB AVERAGE MISS LATENCY: 7.938 cycles
cpu1_ITLB TOTAL        ACCESS:          0 HIT:          0 MISS:          0
cpu1_ITLB LOAD         ACCESS:          0 HIT:          0 MISS:          0
cpu1_ITLB RFO          ACCESS:          0 HIT:          0 MISS:          0
cpu1_ITLB PREFETCH     ACCESS:          0 HIT:          0 MISS:          0
cpu1_ITLB WRITE        ACCESS:          0 HIT:          0 MISS:          0
cpu1_ITLB TRANSLATION  ACCESS:          0 HIT:          0 MISS:          0
cpu1_ITLB PREFETCH REQUESTED:          0 ISSUED:          0 USEFUL:          0 USELESS:          0
cpu1_ITLB AVERAGE MISS LATENCY: 7.938 cycles
cpu1_ITLB TOTAL        ACCESS:          0 HIT:          0 MISS:          0
cpu1_ITLB LOAD         ACCESS:          0 HIT:          0 MISS:          0
cpu1_ITLB RFO          ACCESS:          0 HIT:          0 MISS:          0
cpu1_ITLB PREFETCH     ACCESS:          0 HIT:          0 MISS:          0
cpu1_ITLB WRITE        ACCESS:          0 HIT:          0 MISS:          0
cpu1_ITLB TRANSLATION  ACCESS:          0 HIT:          0 MISS:          0
cpu1_ITLB PREFETCH REQUESTED:          0 ISSUED:          0 USEFUL:          0 USELESS:          0
cpu1_ITLB AVERAGE MISS LATENCY: 7.938 cycles
cpu1_L1D TOTAL        ACCESS:          0 HIT:          0 MISS:          0
cpu1_L1D LOAD         ACCESS:          0 HIT:          0 MISS:          0
cpu1_L1D RFO          ACCESS:          0 HIT:          0 MISS:          0
cpu1_L1D PREFETCH     ACCESS:          0 HIT:          0 MISS:          0
cpu1_L1D WRITE        ACCESS:          0 HIT:          0 MISS:          0
cpu1_L1D TRANSLATION  ACCESS:          0 HIT:          0 MISS:          0
cpu1_L1D PREFETCH REQUESTED:      25345 ISSUED:      25345 USEFUL:       1289 USELESS:       1054
cpu1_L1D AVERAGE MISS LATENCY: 213.9 cycles
cpu1_L1D TOTAL        ACCESS:   49722438 HIT:   44774264 MISS:    4948174
cpu1_L1D LOAD         ACCESS:   22874694 HIT:   19815383 MISS:    3059311
cpu1_L1D RFO          ACCESS:          0 HIT:          0 MISS:          0
cpu1_L1D PREFETCH     ACCESS:      25346 HIT:       2709 MISS:      22637
cpu1_L1D WRITE        ACCESS:   25931042 HIT:   24810940 MISS:    1120102
cpu1_L1D TRANSLATION  ACCESS:     891356 HIT:     145232 MISS:     746124
cpu1_L1D PREFETCH REQUESTED:      25345 ISSUED:      25345 USEFUL:       1289 USELESS:       1054
cpu1_L1D AVERAGE MISS LATENCY: 213.9 cycles
cpu1_L1D TOTAL        ACCESS:          0 HIT:          0 MISS:          0
cpu1_L1D LOAD         ACCESS:          0 HIT:          0 MISS:          0
cpu1_L1D RFO          ACCESS:          0 HIT:          0 MISS:          0
cpu1_L1D PREFETCH     ACCESS:          0 HIT:          0 MISS:          0
cpu1_L1D WRITE        ACCESS:          0 HIT:          0 MISS:          0
cpu1_L1D TRANSLATION  ACCESS:          0 HIT:          0 MISS:          0
cpu1_L1D PREFETCH REQUESTED:      25345 ISSUED:      25345 USEFUL:       1289 USELESS:       1054
cpu1_L1D AVERAGE MISS LATENCY: 213.9 cycles
cpu1_L1D TOTAL        ACCESS:          0 HIT:          0 MISS:          0
cpu1_L1D LOAD         ACCESS:          0 HIT:          0 MISS:          0
cpu1_L1D RFO          ACCESS:          0 HIT:          0 MISS:          0
cpu1_L1D PREFETCH     ACCESS:          0 HIT:          0 MISS:          0
cpu1_L1D WRITE        ACCESS:          0 HIT:          0 MISS:          0
cpu1_L1D TRANSLATION  ACCESS:          0 HIT:          0 MISS:          0
cpu1_L1D PREFETCH REQUESTED:      25345 ISSUED:      25345 USEFUL:       1289 USELESS:       1054
cpu1_L1D AVERAGE MISS LATENCY: 213.9 cycles
cpu1_L1I TOTAL        ACCESS:          0 HIT:          0 MISS:          0
cpu1_L1I LOAD         ACCESS:          0 HIT:          0 MISS:          0
cpu1_L1I RFO          ACCESS:          0 HIT:          0 MISS:          0
cpu1_L1I PREFETCH     ACCESS:          0 HIT:          0 MISS:          0
cpu1_L1I WRITE        ACCESS:          0 HIT:          0 MISS:          0
cpu1_L1I TRANSLATION  ACCESS:          0 HIT:          0 MISS:          0
cpu1_L1I PREFETCH REQUESTED:          0 ISSUED:          0 USEFUL:          0 USELESS:          0
cpu1_L1I AVERAGE MISS LATENCY: 36.68 cycles
cpu1_L1I TOTAL        ACCESS:   12882794 HIT:   12808867 MISS:      73927
cpu1_L1I LOAD         ACCESS:   12882794 HIT:   12808867 MISS:      73927
cpu1_L1I RFO          ACCESS:          0 HIT:          0 MISS:          0
cpu1_L1I PREFETCH     ACCESS:          0 HIT:          0 MISS:          0
cpu1_L1I WRITE        ACCESS:          0 HIT:          0 MISS:          0
cpu1_L1I TRANSLATION  ACCESS:          0 HIT:          0 MISS:          0
cpu1_L1I PREFETCH REQUESTED:          0 ISSUED:          0 USEFUL:          0 USELESS:          0
cpu1_L1I AVERAGE MISS LATENCY: 36.68 cycles
cpu1_L1I TOTAL        ACCESS:          0 HIT:          0 MISS:          0
cpu1_L1I LOAD         ACCESS:          0 HIT:          0 MISS:          0
cpu1_L1I RFO          ACCESS:          0 HIT:          0 MISS:          0
cpu1_L1I PREFETCH     ACCESS:          0 HIT:          0 MISS:          0
cpu1_L1I WRITE        ACCESS:          0 HIT:          0 MISS:          0
cpu1_L1I TRANSLATION  ACCESS:          0 HIT:          0 MISS:          0
cpu1_L1I PREFETCH REQUESTED:          0 ISSUED:          0 USEFUL:          0 USELESS:          0
cpu1_L1I AVERAGE MISS LATENCY: 36.68 cycles
cpu1_L1I TOTAL        ACCESS:          0 HIT:          0 MISS:          0
cpu1_L1I LOAD         ACCESS:          0 HIT:          0 MISS:          0
cpu1_L1I RFO          ACCESS:          0 HIT:          0 MISS:          0
cpu1_L1I PREFETCH     ACCESS:          0 HIT:          0 MISS:          0
cpu1_L1I WRITE        ACCESS:          0 HIT:          0 MISS:          0
cpu1_L1I TRANSLATION  ACCESS:          0 HIT:          0 MISS:          0
cpu1_L1I PREFETCH REQUESTED:          0 ISSUED:          0 USEFUL:          0 USELESS:          0
cpu1_L1I AVERAGE MISS LATENCY: 36.68 cycles
cpu1_L2C TOTAL        ACCESS:          0 HIT:          0 MISS:          0
cpu1_L2C LOAD         ACCESS:          0 HIT:          0 MISS:          0
cpu1_L2C RFO          ACCESS:          0 HIT:          0 MISS:          0
cpu1_L2C PREFETCH     ACCESS:          0 HIT:          0 MISS:          0
cpu1_L2C WRITE        ACCESS:          0 HIT:          0 MISS:          0
cpu1_L2C TRANSLATION  ACCESS:          0 HIT:          0 MISS:          0
cpu1_L2C PREFETCH REQUESTED:          0 ISSUED:          0 USEFUL:          0 USELESS:          0
cpu1_L2C AVERAGE MISS LATENCY: 413.9 cycles
cpu1_L2C TOTAL        ACCESS:    5071038 HIT:    2514278 MISS:    2556760
cpu1_L2C LOAD         ACCESS:    2538407 HIT:     852826 MISS:    1685581
cpu1_L2C RFO          ACCESS:     365281 HIT:     107178 MISS:     258103
cpu1_L2C PREFETCH     ACCESS:      22042 HIT:       7470 MISS:      14572
cpu1_L2C WRITE        ACCESS:    1400048 HIT:    1397718 MISS:       2330
cpu1_L2C TRANSLATION  ACCESS:     745260 HIT:     149086 MISS:     596174
cpu1_L2C PREFETCH REQUESTED:          0 ISSUED:          0 USEFUL:          0 USELESS:          0
cpu1_L2C AVERAGE MISS LATENCY: 413.9 cycles
cpu1_L2C TOTAL        ACCESS:          0 HIT:          0 MISS:          0
cpu1_L2C LOAD         ACCESS:          0 HIT:          0 MISS:          0
cpu1_L2C RFO          ACCESS:          0 HIT:          0 MISS:          0
cpu1_L2C PREFETCH     ACCESS:          0 HIT:          0 MISS:          0
cpu1_L2C WRITE        ACCESS:          0 HIT:          0 MISS:          0
cpu1_L2C TRANSLATION  ACCESS:          0 HIT:          0 MISS:          0
cpu1_L2C PREFETCH REQUESTED:          0 ISSUED:          0 USEFUL:          0 USELESS:          0
cpu1_L2C AVERAGE MISS LATENCY: 413.9 cycles
cpu1_L2C TOTAL        ACCESS:          0 HIT:          0 MISS:          0
cpu1_L2C LOAD         ACCESS:          0 HIT:          0 MISS:          0
cpu1_L2C RFO          ACCESS:          0 HIT:          0 MISS:          0
cpu1_L2C PREFETCH     ACCESS:          0 HIT:          0 MISS:          0
cpu1_L2C WRITE        ACCESS:          0 HIT:          0 MISS:          0
cpu1_L2C TRANSLATION  ACCESS:          0 HIT:          0 MISS:          0
cpu1_L2C PREFETCH REQUESTED:          0 ISSUED:          0 USEFUL:          0 USELESS:          0
cpu1_L2C AVERAGE MISS LATENCY: 413.9 cycles
cpu1_STLB TOTAL        ACCESS:          0 HIT:          0 MISS:          0
cpu1_STLB LOAD         ACCESS:          0 HIT:          0 MISS:          0
cpu1_STLB RFO          ACCESS:          0 HIT:          0 MISS:          0
cpu1_STLB PREFETCH     ACCESS:          0 HIT:          0 MISS:          0
cpu1_STLB WRITE        ACCESS:          0 HIT:          0 MISS:          0
cpu1_STLB TRANSLATION  ACCESS:          0 HIT:          0 MISS:          0
cpu1_STLB PREFETCH REQUESTED:          0 ISSUED:          0 USEFUL:          0 USELESS:          0
cpu1_STLB AVERAGE MISS LATENCY: 441.2 cycles
cpu1_STLB TOTAL        ACCESS:    3015414 HIT:    2372960 MISS:     642454
cpu1_STLB LOAD         ACCESS:    3015414 HIT:    2372960 MISS:     642454
cpu1_STLB RFO          ACCESS:          0 HIT:          0 MISS:          0
cpu1_STLB PREFETCH     ACCESS:          0 HIT:          0 MISS:          0
cpu1_STLB WRITE        ACCESS:          0 HIT:          0 MISS:          0
cpu1_STLB TRANSLATION  ACCESS:          0 HIT:          0 MISS:          0
cpu1_STLB PREFETCH REQUESTED:          0 ISSUED:          0 USEFUL:          0 USELESS:          0
cpu1_STLB AVERAGE MISS LATENCY: 441.2 cycles
cpu1_STLB TOTAL        ACCESS:          0 HIT:          0 MISS:          0
cpu1_STLB LOAD         ACCESS:          0 HIT:          0 MISS:          0
cpu1_STLB RFO          ACCESS:          0 HIT:          0 MISS:          0
cpu1_STLB PREFETCH     ACCESS:          0 HIT:          0 MISS:          0
cpu1_STLB WRITE        ACCESS:          0 HIT:          0 MISS:          0
cpu1_STLB TRANSLATION  ACCESS:          0 HIT:          0 MISS:          0
cpu1_STLB PREFETCH REQUESTED:          0 ISSUED:          0 USEFUL:          0 USELESS:          0
cpu1_STLB AVERAGE MISS LATENCY: 441.2 cycles
cpu1_STLB TOTAL        ACCESS:          0 HIT:          0 MISS:          0
cpu1_STLB LOAD         ACCESS:          0 HIT:          0 MISS:          0
cpu1_STLB RFO          ACCESS:          0 HIT:          0 MISS:          0
cpu1_STLB PREFETCH     ACCESS:          0 HIT:          0 MISS:          0
cpu1_STLB WRITE        ACCESS:          0 HIT:          0 MISS:          0
cpu1_STLB TRANSLATION  ACCESS:          0 HIT:          0 MISS:          0
cpu1_STLB PREFETCH REQUESTED:          0 ISSUED:          0 USEFUL:          0 USELESS:          0
cpu1_STLB AVERAGE MISS LATENCY: 441.2 cycles
cpu2_DTLB TOTAL        ACCESS:          0 HIT:          0 MISS:          0
cpu2_DTLB LOAD         ACCESS:          0 HIT:          0 MISS:          0
cpu2_DTLB RFO          ACCESS:          0 HIT:          0 MISS:          0
cpu2_DTLB PREFETCH     ACCESS:          0 HIT:          0 MISS:          0
cpu2_DTLB WRITE        ACCESS:          0 HIT:          0 MISS:          0
cpu2_DTLB TRANSLATION  ACCESS:          0 HIT:          0 MISS:          0
cpu2_DTLB PREFETCH REQUESTED:          0 ISSUED:          0 USEFUL:          0 USELESS:          0
cpu2_DTLB AVERAGE MISS LATENCY: 21.23 cycles
cpu2_DTLB TOTAL        ACCESS:          0 HIT:          0 MISS:          0
cpu2_DTLB LOAD         ACCESS:          0 HIT:          0 MISS:          0
cpu2_DTLB RFO          ACCESS:          0 HIT:          0 MISS:          0
cpu2_DTLB PREFETCH     ACCESS:          0 HIT:          0 MISS:          0
cpu2_DTLB WRITE        ACCESS:          0 HIT:          0 MISS:          0
cpu2_DTLB TRANSLATION  ACCESS:          0 HIT:          0 MISS:          0
cpu2_DTLB PREFETCH REQUESTED:          0 ISSUED:          0 USEFUL:          0 USELESS:          0
cpu2_DTLB AVERAGE MISS LATENCY: 21.23 cycles
cpu2_DTLB TOTAL        ACCESS:   79198566 HIT:   78509353 MISS:     689213
cpu2_DTLB LOAD         ACCESS:   79198566 HIT:   78509353 MISS:     689213
cpu2_DTLB RFO          ACCESS:          0 HIT:          0 MISS:          0
cpu2_DTLB PREFETCH     ACCESS:          0 HIT:          0 MISS:          0
cpu2_DTLB WRITE        ACCESS:          0 HIT:          0 MISS:          0
cpu2_DTLB TRANSLATION  ACCESS:          0 HIT:          0 MISS:          0
cpu2_DTLB PREFETCH REQUESTED:          0 ISSUED:          0 USEFUL:          0 USELESS:          0
cpu2_DTLB AVERAGE MISS LATENCY: 21.23 cycles
cpu2_DTLB TOTAL        ACCESS:          0 HIT:          0 MISS:          0
cpu2_DTLB LOAD         ACCESS:          0 HIT:          0 MISS:          0
cpu2_DTLB RFO          ACCESS:          0 HIT:          0 MISS:          0
cpu2_DTLB PREFETCH     ACCESS:          0 HIT:          0 MISS:          0
cpu2_DTLB WRITE        ACCESS:          0 HIT:          0 MISS:          0
cpu2_DTLB TRANSLATION  ACCESS:          0 HIT:          0 MISS:          0
cpu2_DTLB PREFETCH REQUESTED:          0 ISSUED:          0 USEFUL:          0 USELESS:          0
cpu2_DTLB AVERAGE MISS LATENCY: 21.23 cycles
cpu2_ITLB TOTAL        ACCESS:          0 HIT:          0 MISS:          0
cpu2_ITLB LOAD         ACCESS:          0 HIT:          0 MISS:          0
cpu2_ITLB RFO          ACCESS:          0 HIT:          0 MISS:          0
cpu2_ITLB PREFETCH     ACCESS:          0 HIT:          0 MISS:          0
cpu2_ITLB WRITE        ACCESS:          0 HIT:          0 MISS:          0
cpu2_ITLB TRANSLATION  ACCESS:          0 HIT:          0 MISS:          0
cpu2_ITLB PREFETCH REQUESTED:          0 ISSUED:          0 USEFUL:          0 USELESS:          0
cpu2_ITLB AVERAGE MISS LATENCY: 275.5 cycles
cpu2_ITLB TOTAL        ACCESS:          0 HIT:          0 MISS:          0
cpu2_ITLB LOAD         ACCESS:          0 HIT:          0 MISS:          0
cpu2_ITLB RFO          ACCESS:          0 HIT:          0 MISS:          0
cpu2_ITLB PREFETCH     ACCESS:          0 HIT:          0 MISS:          0
cpu2_ITLB WRITE        ACCESS:          0 HIT:          0 MISS:          0
cpu2_ITLB TRANSLATION  ACCESS:          0 HIT:          0 MISS:          0
cpu2_ITLB PREFETCH REQUESTED:          0 ISSUED:          0 USEFUL:          0 USELESS:          0
cpu2_ITLB AVERAGE MISS LATENCY: 275.5 cycles
cpu2_ITLB TOTAL        ACCESS:       2821 HIT:       2800 MISS:         21
cpu2_ITLB LOAD         ACCESS:       2821 HIT:       2800 MISS:         21
cpu2_ITLB RFO          ACCESS:          0 HIT:          0 MISS:          0
cpu2_ITLB PREFETCH     ACCESS:          0 HIT:          0 MISS:          0
cpu2_ITLB WRITE        ACCESS:          0 HIT:          0 MISS:          0
cpu2_ITLB TRANSLATION  ACCESS:          0 HIT:          0 MISS:          0
cpu2_ITLB PREFETCH REQUESTED:          0 ISSUED:          0 USEFUL:          0 USELESS:          0
cpu2_ITLB AVERAGE MISS LATENCY: 275.5 cycles
cpu2_ITLB TOTAL        ACCESS:          0 HIT:          0 MISS:          0
cpu2_ITLB LOAD         ACCESS:          0 HIT:          0 MISS:          0
cpu2_ITLB RFO          ACCESS:          0 HIT:          0 MISS:          0
cpu2_ITLB PREFETCH     ACCESS:          0 HIT:          0 MISS:          0
cpu2_ITLB WRITE        ACCESS:          0 HIT:          0 MISS:          0
cpu2_ITLB TRANSLATION  ACCESS:          0 HIT:          0 MISS:          0
cpu2_ITLB PREFETCH REQUESTED:          0 ISSUED:          0 USEFUL:          0 USELESS:          0
cpu2_ITLB AVERAGE MISS LATENCY: 275.5 cycles
cpu2_L1D TOTAL        ACCESS:          0 HIT:          0 MISS:          0
cpu2_L1D LOAD         ACCESS:          0 HIT:          0 MISS:          0
cpu2_L1D RFO          ACCESS:          0 HIT:          0 MISS:          0
cpu2_L1D PREFETCH     ACCESS:          0 HIT:          0 MISS:          0
cpu2_L1D WRITE        ACCESS:          0 HIT:          0 MISS:          0
cpu2_L1D TRANSLATION  ACCESS:          0 HIT:          0 MISS:          0
cpu2_L1D PREFETCH REQUESTED:  172744697 ISSUED:   35807531 USEFUL:    6242683 USELESS:     932778
cpu2_L1D AVERAGE MISS LATENCY: 95.53 cycles
cpu2_L1D TOTAL        ACCESS:          0 HIT:          0 MISS:          0
cpu2_L1D LOAD         ACCESS:          0 HIT:          0 MISS:          0
cpu2_L1D RFO          ACCESS:          0 HIT:          0 MISS:          0
cpu2_L1D PREFETCH     ACCESS:          0 HIT:          0 MISS:          0
cpu2_L1D WRITE        ACCESS:          0 HIT:          0 MISS:          0
cpu2_L1D TRANSLATION  ACCESS:          0 HIT:          0 MISS:          0
cpu2_L1D PREFETCH REQUESTED:  172744697 ISSUED:   35807531 USEFUL:    6242683 USELESS:     932778
cpu2_L1D AVERAGE MISS LATENCY: 95.53 cycles
cpu2_L1D TOTAL        ACCESS:  153035704 HIT:  131829456 MISS:   21206248
cpu2_L1D LOAD         ACCESS:   66399358 HIT:   59381707 MISS:    7017651
cpu2_L1D RFO          ACCESS:          0 HIT:          0 MISS:          0
cpu2_L1D PREFETCH     ACCESS:   35807563 HIT:   21671450 MISS:   14136113
cpu2_L1D WRITE        ACCESS:   50729837 HIT:   50681277 MISS:      48560
cpu2_L1D TRANSLATION  ACCESS:      98946 HIT:      95022 MISS:       3924
cpu2_L1D PREFETCH REQUESTED:  172744697 ISSUED:   35807531 USEFUL:    6242683 USELESS:     932778
cpu2_L1D AVERAGE MISS LATENCY: 95.53 cycles
cpu2_L1D TOTAL        ACCESS:          0 HIT:          0 MISS:          0
cpu2_L1D LOAD         ACCESS:          0 HIT:          0 MISS:          0
cpu2_L1D RFO          ACCESS:          0 HIT:          0 MISS:          0
cpu2_L1D PREFETCH     ACCESS:          0 HIT:          0 MISS:          0
cpu2_L1D WRITE        ACCESS:          0 HIT:          0 MISS:          0
cpu2_L1D TRANSLATION  ACCESS:          0 HIT:          0 MISS:          0
cpu2_L1D PREFETCH REQUESTED:  172744697 ISSUED:   35807531 USEFUL:    6242683 USELESS:     932778
cpu2_L1D AVERAGE MISS LATENCY: 95.53 cycles
cpu2_L1I TOTAL        ACCESS:          0 HIT:          0 MISS:          0
cpu2_L1I LOAD         ACCESS:          0 HIT:          0 MISS:          0
cpu2_L1I RFO          ACCESS:          0 HIT:          0 MISS:          0
cpu2_L1I PREFETCH     ACCESS:          0 HIT:          0 MISS:          0
cpu2_L1I WRITE        ACCESS:          0 HIT:          0 MISS:          0
cpu2_L1I TRANSLATION  ACCESS:          0 HIT:          0 MISS:          0
cpu2_L1I PREFETCH REQUESTED:          0 ISSUED:          0 USEFUL:          0 USELESS:          0
cpu2_L1I AVERAGE MISS LATENCY: 242 cycles
cpu2_L1I TOTAL        ACCESS:          0 HIT:          0 MISS:          0
cpu2_L1I LOAD         ACCESS:          0 HIT:          0 MISS:          0
cpu2_L1I RFO          ACCESS:          0 HIT:          0 MISS:          0
cpu2_L1I PREFETCH     ACCESS:          0 HIT:          0 MISS:          0
cpu2_L1I WRITE        ACCESS:          0 HIT:          0 MISS:          0
cpu2_L1I TRANSLATION  ACCESS:          0 HIT:          0 MISS:          0
cpu2_L1I PREFETCH REQUESTED:          0 ISSUED:          0 USEFUL:          0 USELESS:          0
cpu2_L1I AVERAGE MISS LATENCY: 242 cycles
cpu2_L1I TOTAL        ACCESS:       3218 HIT:       2874 MISS:        344
cpu2_L1I LOAD         ACCESS:       3218 HIT:       2874 MISS:        344
cpu2_L1I RFO          ACCESS:          0 HIT:          0 MISS:          0
cpu2_L1I PREFETCH     ACCESS:          0 HIT:          0 MISS:          0
cpu2_L1I WRITE        ACCESS:          0 HIT:          0 MISS:          0
cpu2_L1I TRANSLATION  ACCESS:          0 HIT:          0 MISS:          0
cpu2_L1I PREFETCH REQUESTED:          0 ISSUED:          0 USEFUL:          0 USELESS:          0
cpu2_L1I AVERAGE MISS LATENCY: 242 cycles
cpu2_L1I TOTAL        ACCESS:          0 HIT:          0 MISS:          0
cpu2_L1I LOAD         ACCESS:          0 HIT:          0 MISS:          0
cpu2_L1I RFO          ACCESS:          0 HIT:          0 MISS:          0
cpu2_L1I PREFETCH     ACCESS:          0 HIT:          0 MISS:          0
cpu2_L1I WRITE        ACCESS:          0 HIT:          0 MISS:          0
cpu2_L1I TRANSLATION  ACCESS:          0 HIT:          0 MISS:          0
cpu2_L1I PREFETCH REQUESTED:          0 ISSUED:          0 USEFUL:          0 USELESS:          0
cpu2_L1I AVERAGE MISS LATENCY: 242 cycles
cpu2_L2C TOTAL        ACCESS:          0 HIT:          0 MISS:          0
cpu2_L2C LOAD         ACCESS:          0 HIT:          0 MISS:          0
cpu2_L2C RFO          ACCESS:          0 HIT:          0 MISS:          0
cpu2_L2C PREFETCH     ACCESS:          0 HIT:          0 MISS:          0
cpu2_L2C WRITE        ACCESS:          0 HIT:          0 MISS:          0
cpu2_L2C TRANSLATION  ACCESS:          0 HIT:          0 MISS:          0
[...]
cpu2_L2C TRANSLATION  ACCESS:          0 HIT:          0 MISS:          0
cpu2_L2C PREFETCH REQUESTED:          0 ISSUED:          0 USEFUL:          0 USELESS:          0
cpu2_L2C AVERAGE MISS LATENCY: 297.9 cycles
cpu2_L2C TOTAL        ACCESS:          0 HIT:          0 MISS:          0
cpu2_L2C LOAD         ACCESS:          0 HIT:          0 MISS:          0
cpu2_L2C RFO          ACCESS:          0 HIT:          0 MISS:          0
cpu2_L2C PREFETCH     ACCESS:          0 HIT:          0 MISS:          0
cpu2_L2C WRITE        ACCESS:          0 HIT:          0 MISS:          0
cpu2_L2C TRANSLATION  ACCESS:          0 HIT:          0 MISS:          0
cpu2_L2C PREFETCH REQUESTED:          0 ISSUED:          0 USEFUL:          0 USELESS:          0
cpu2_L2C AVERAGE MISS LATENCY: 297.9 cycles
cpu2_L2C TOTAL        ACCESS:    4864678 HIT:    2825364 MISS:    2039314
cpu2_L2C LOAD         ACCESS:     686715 HIT:     250422 MISS:     436293
cpu2_L2C RFO          ACCESS:       2296 HIT:        714 MISS:       1582
cpu2_L2C PREFETCH     ACCESS:    2857097 HIT:    1256287 MISS:    1600810
cpu2_L2C WRITE        ACCESS:    1317761 HIT:    1317761 MISS:          0
cpu2_L2C TRANSLATION  ACCESS:        809 HIT:        180 MISS:        629
cpu2_L2C PREFETCH REQUESTED:          0 ISSUED:          0 USEFUL:          0 USELESS:          0
cpu2_L2C AVERAGE MISS LATENCY: 297.9 cycles
cpu2_L2C TOTAL        ACCESS:          0 HIT:          0 MISS:          0
cpu2_L2C LOAD         ACCESS:          0 HIT:          0 MISS:          0
cpu2_L2C RFO          ACCESS:          0 HIT:          0 MISS:          0
cpu2_L2C PREFETCH     ACCESS:          0 HIT:          0 MISS:          0
cpu2_L2C WRITE        ACCESS:          0 HIT:          0 MISS:          0
cpu2_L2C TRANSLATION  ACCESS:          0 HIT:          0 MISS:          0
cpu2_L2C PREFETCH REQUESTED:          0 ISSUED:          0 USEFUL:          0 USELESS:          0
cpu2_L2C AVERAGE MISS LATENCY: 297.9 cycles
cpu2_STLB TOTAL        ACCESS:          0 HIT:          0 MISS:          0
cpu2_STLB LOAD         ACCESS:          0 HIT:          0 MISS:          0
cpu2_STLB RFO          ACCESS:          0 HIT:          0 MISS:          0
cpu2_STLB PREFETCH     ACCESS:          0 HIT:          0 MISS:          0
cpu2_STLB WRITE        ACCESS:          0 HIT:          0 MISS:          0
cpu2_STLB TRANSLATION  ACCESS:          0 HIT:          0 MISS:          0
cpu2_STLB PREFETCH REQUESTED:          0 ISSUED:          0 USEFUL:          0 USELESS:          0
cpu2_STLB AVERAGE MISS LATENCY: 211 cycles
cpu2_STLB TOTAL        ACCESS:          0 HIT:          0 MISS:          0
cpu2_STLB LOAD         ACCESS:          0 HIT:          0 MISS:          0
cpu2_STLB RFO          ACCESS:          0 HIT:          0 MISS:          0
cpu2_STLB PREFETCH     ACCESS:          0 HIT:          0 MISS:          0
cpu2_STLB WRITE        ACCESS:          0 HIT:          0 MISS:          0
cpu2_STLB TRANSLATION  ACCESS:          0 HIT:          0 MISS:          0
cpu2_STLB PREFETCH REQUESTED:          0 ISSUED:          0 USEFUL:          0 USELESS:          0
cpu2_STLB AVERAGE MISS LATENCY: 211 cycles
cpu2_STLB TOTAL        ACCESS:      34979 HIT:      14389 MISS:      20590
cpu2_STLB LOAD         ACCESS:      34979 HIT:      14389 MISS:      20590
cpu2_STLB RFO          ACCESS:          0 HIT:          0 MISS:          0
cpu2_STLB PREFETCH     ACCESS:          0 HIT:          0 MISS:          0
cpu2_STLB WRITE        ACCESS:          0 HIT:          0 MISS:          0
cpu2_STLB TRANSLATION  ACCESS:          0 HIT:          0 MISS:          0
cpu2_STLB PREFETCH REQUESTED:          0 ISSUED:          0 USEFUL:          0 USELESS:          0
cpu2_STLB AVERAGE MISS LATENCY: 211 cycles
cpu2_STLB TOTAL        ACCESS:          0 HIT:          0 MISS:          0
cpu2_STLB LOAD         ACCESS:          0 HIT:          0 MISS:          0
cpu2_STLB RFO          ACCESS:          0 HIT:          0 MISS:          0
cpu2_STLB PREFETCH     ACCESS:          0 HIT:          0 MISS:          0
cpu2_STLB WRITE        ACCESS:          0 HIT:          0 MISS:          0
cpu2_STLB TRANSLATION  ACCESS:          0 HIT:          0 MISS:          0
cpu2_STLB PREFETCH REQUESTED:          0 ISSUED:          0 USEFUL:          0 USELESS:          0
cpu2_STLB AVERAGE MISS LATENCY: 211 cycles
cpu3_DTLB TOTAL        ACCESS:          0 HIT:          0 MISS:          0
cpu3_DTLB LOAD         ACCESS:          0 HIT:          0 MISS:          0
cpu3_DTLB RFO          ACCESS:          0 HIT:          0 MISS:          0
cpu3_DTLB PREFETCH     ACCESS:          0 HIT:          0 MISS:          0
cpu3_DTLB WRITE        ACCESS:          0 HIT:          0 MISS:          0
cpu3_DTLB TRANSLATION  ACCESS:          0 HIT:          0 MISS:          0
cpu3_DTLB PREFETCH REQUESTED:          0 ISSUED:          0 USEFUL:          0 USELESS:          0
cpu3_DTLB AVERAGE MISS LATENCY: 8.992 cycles
cpu3_DTLB TOTAL        ACCESS:          0 HIT:          0 MISS:          0
cpu3_DTLB LOAD         ACCESS:          0 HIT:          0 MISS:          0
cpu3_DTLB RFO          ACCESS:          0 HIT:          0 MISS:          0
cpu3_DTLB PREFETCH     ACCESS:          0 HIT:          0 MISS:          0
cpu3_DTLB WRITE        ACCESS:          0 HIT:          0 MISS:          0
cpu3_DTLB TRANSLATION  ACCESS:          0 HIT:          0 MISS:          0
cpu3_DTLB PREFETCH REQUESTED:          0 ISSUED:          0 USEFUL:          0 USELESS:          0
cpu3_DTLB AVERAGE MISS LATENCY: 8.992 cycles
cpu3_DTLB TOTAL        ACCESS:          0 HIT:          0 MISS:          0
cpu3_DTLB LOAD         ACCESS:          0 HIT:          0 MISS:          0
cpu3_DTLB RFO          ACCESS:          0 HIT:          0 MISS:          0
cpu3_DTLB PREFETCH     ACCESS:          0 HIT:          0 MISS:          0
cpu3_DTLB WRITE        ACCESS:          0 HIT:          0 MISS:          0
cpu3_DTLB TRANSLATION  ACCESS:          0 HIT:          0 MISS:          0
cpu3_DTLB PREFETCH REQUESTED:          0 ISSUED:          0 USEFUL:          0 USELESS:          0
cpu3_DTLB AVERAGE MISS LATENCY: 8.992 cycles
cpu3_DTLB TOTAL        ACCESS:   41265495 HIT:   38672688 MISS:    2592807
cpu3_DTLB LOAD         ACCESS:   41265495 HIT:   38672688 MISS:    2592807
cpu3_DTLB RFO          ACCESS:          0 HIT:          0 MISS:          0
cpu3_DTLB PREFETCH     ACCESS:          0 HIT:          0 MISS:          0
cpu3_DTLB WRITE        ACCESS:          0 HIT:          0 MISS:          0
cpu3_DTLB TRANSLATION  ACCESS:          0 HIT:          0 MISS:          0
cpu3_DTLB PREFETCH REQUESTED:          0 ISSUED:          0 USEFUL:          0 USELESS:          0
cpu3_DTLB AVERAGE MISS LATENCY: 8.992 cycles
cpu3_ITLB TOTAL        ACCESS:          0 HIT:          0 MISS:          0
cpu3_ITLB LOAD         ACCESS:          0 HIT:          0 MISS:          0
cpu3_ITLB RFO          ACCESS:          0 HIT:          0 MISS:          0
cpu3_ITLB PREFETCH     ACCESS:          0 HIT:          0 MISS:          0
cpu3_ITLB WRITE        ACCESS:          0 HIT:          0 MISS:          0
cpu3_ITLB TRANSLATION  ACCESS:          0 HIT:          0 MISS:          0
cpu3_ITLB PREFETCH REQUESTED:          0 ISSUED:          0 USEFUL:          0 USELESS:          0
cpu3_ITLB AVERAGE MISS LATENCY: -nan cycles
cpu3_ITLB TOTAL        ACCESS:          0 HIT:          0 MISS:          0
cpu3_ITLB LOAD         ACCESS:          0 HIT:          0 MISS:          0
cpu3_ITLB RFO          ACCESS:          0 HIT:          0 MISS:          0
cpu3_ITLB PREFETCH     ACCESS:          0 HIT:          0 MISS:          0
cpu3_ITLB WRITE        ACCESS:          0 HIT:          0 MISS:          0
cpu3_ITLB TRANSLATION  ACCESS:          0 HIT:          0 MISS:          0
cpu3_ITLB PREFETCH REQUESTED:          0 ISSUED:          0 USEFUL:          0 USELESS:          0
cpu3_ITLB AVERAGE MISS LATENCY: -nan cycles
cpu3_ITLB TOTAL        ACCESS:          0 HIT:          0 MISS:          0
cpu3_ITLB LOAD         ACCESS:          0 HIT:          0 MISS:          0
cpu3_ITLB RFO          ACCESS:          0 HIT:          0 MISS:          0
cpu3_ITLB PREFETCH     ACCESS:          0 HIT:          0 MISS:          0
cpu3_ITLB WRITE        ACCESS:          0 HIT:          0 MISS:          0
cpu3_ITLB TRANSLATION  ACCESS:          0 HIT:          0 MISS:          0
cpu3_ITLB PREFETCH REQUESTED:          0 ISSUED:          0 USEFUL:          0 USELESS:          0
cpu3_ITLB AVERAGE MISS LATENCY: -nan cycles
cpu3_ITLB TOTAL        ACCESS:      47827 HIT:      47827 MISS:          0
cpu3_ITLB LOAD         ACCESS:      47827 HIT:      47827 MISS:          0
cpu3_ITLB RFO          ACCESS:          0 HIT:          0 MISS:          0
cpu3_ITLB PREFETCH     ACCESS:          0 HIT:          0 MISS:          0
cpu3_ITLB WRITE        ACCESS:          0 HIT:          0 MISS:          0
cpu3_ITLB TRANSLATION  ACCESS:          0 HIT:          0 MISS:          0
cpu3_ITLB PREFETCH REQUESTED:          0 ISSUED:          0 USEFUL:          0 USELESS:          0
cpu3_ITLB AVERAGE MISS LATENCY: -nan cycles
cpu3_L1D TOTAL        ACCESS:          0 HIT:          0 MISS:          0
cpu3_L1D LOAD         ACCESS:          0 HIT:          0 MISS:          0
cpu3_L1D RFO          ACCESS:          0 HIT:          0 MISS:          0
cpu3_L1D PREFETCH     ACCESS:          0 HIT:          0 MISS:          0
cpu3_L1D WRITE        ACCESS:          0 HIT:          0 MISS:          0
cpu3_L1D TRANSLATION  ACCESS:          0 HIT:          0 MISS:          0
cpu3_L1D PREFETCH REQUESTED:   39981785 ISSUED:   35675064 USEFUL:    1237756 USELESS:     265761
cpu3_L1D AVERAGE MISS LATENCY: 50.69 cycles
cpu3_L1D TOTAL        ACCESS:          0 HIT:          0 MISS:          0
cpu3_L1D LOAD         ACCESS:          0 HIT:          0 MISS:          0
cpu3_L1D RFO          ACCESS:          0 HIT:          0 MISS:          0
cpu3_L1D PREFETCH     ACCESS:          0 HIT:          0 MISS:          0
cpu3_L1D WRITE        ACCESS:          0 HIT:          0 MISS:          0
cpu3_L1D TRANSLATION  ACCESS:          0 HIT:          0 MISS:          0
cpu3_L1D PREFETCH REQUESTED:   39981785 ISSUED:   35675064 USEFUL:    1237756 USELESS:     265761
cpu3_L1D AVERAGE MISS LATENCY: 50.69 cycles
cpu3_L1D TOTAL        ACCESS:          0 HIT:          0 MISS:          0
cpu3_L1D LOAD         ACCESS:          0 HIT:          0 MISS:          0
cpu3_L1D RFO          ACCESS:          0 HIT:          0 MISS:          0
cpu3_L1D PREFETCH     ACCESS:          0 HIT:          0 MISS:          0
cpu3_L1D WRITE        ACCESS:          0 HIT:          0 MISS:          0
cpu3_L1D TRANSLATION  ACCESS:          0 HIT:          0 MISS:          0
cpu3_L1D PREFETCH REQUESTED:   39981785 ISSUED:   35675064 USEFUL:    1237756 USELESS:     265761
cpu3_L1D AVERAGE MISS LATENCY: 50.69 cycles
cpu3_L1D TOTAL        ACCESS:   81810289 HIT:   69767748 MISS:   12042541
cpu3_L1D LOAD         ACCESS:   34735703 HIT:   30991414 MISS:    3744289
cpu3_L1D RFO          ACCESS:          0 HIT:          0 MISS:          0
cpu3_L1D PREFETCH     ACCESS:   29364717 HIT:   22652540 MISS:    6712177
cpu3_L1D WRITE        ACCESS:   17677940 HIT:   16109477 MISS:    1568463
cpu3_L1D TRANSLATION  ACCESS:      31929 HIT:      14317 MISS:      17612
cpu3_L1D PREFETCH REQUESTED:   39981785 ISSUED:   35675064 USEFUL:    1237756 USELESS:     265761
cpu3_L1D AVERAGE MISS LATENCY: 50.69 cycles
cpu3_L1I TOTAL        ACCESS:          0 HIT:          0 MISS:          0
cpu3_L1I LOAD         ACCESS:          0 HIT:          0 MISS:          0
cpu3_L1I RFO          ACCESS:          0 HIT:          0 MISS:          0
cpu3_L1I PREFETCH     ACCESS:          0 HIT:          0 MISS:          0
cpu3_L1I WRITE        ACCESS:          0 HIT:          0 MISS:          0
cpu3_L1I TRANSLATION  ACCESS:          0 HIT:          0 MISS:          0
cpu3_L1I PREFETCH REQUESTED:          0 ISSUED:          0 USEFUL:          0 USELESS:          0
cpu3_L1I AVERAGE MISS LATENCY: 425.5 cycles
cpu3_L1I TOTAL        ACCESS:          0 HIT:          0 MISS:          0
cpu3_L1I LOAD         ACCESS:          0 HIT:          0 MISS:          0
cpu3_L1I RFO          ACCESS:          0 HIT:          0 MISS:          0
cpu3_L1I PREFETCH     ACCESS:          0 HIT:          0 MISS:          0
cpu3_L1I WRITE        ACCESS:          0 HIT:          0 MISS:          0
cpu3_L1I TRANSLATION  ACCESS:          0 HIT:          0 MISS:          0
cpu3_L1I PREFETCH REQUESTED:          0 ISSUED:          0 USEFUL:          0 USELESS:          0
cpu3_L1I AVERAGE MISS LATENCY: 425.5 cycles
cpu3_L1I TOTAL        ACCESS:          0 HIT:          0 MISS:          0
cpu3_L1I LOAD         ACCESS:          0 HIT:          0 MISS:          0
cpu3_L1I RFO          ACCESS:          0 HIT:          0 MISS:          0
cpu3_L1I PREFETCH     ACCESS:          0 HIT:          0 MISS:          0
cpu3_L1I WRITE        ACCESS:          0 HIT:          0 MISS:          0
cpu3_L1I TRANSLATION  ACCESS:          0 HIT:          0 MISS:          0
cpu3_L1I PREFETCH REQUESTED:          0 ISSUED:          0 USEFUL:          0 USELESS:          0
cpu3_L1I AVERAGE MISS LATENCY: 425.5 cycles
cpu3_L1I TOTAL        ACCESS:      54266 HIT:      54264 MISS:          2
cpu3_L1I LOAD         ACCESS:      54266 HIT:      54264 MISS:          2
cpu3_L1I RFO          ACCESS:          0 HIT:          0 MISS:          0
cpu3_L1I PREFETCH     ACCESS:          0 HIT:          0 MISS:          0
cpu3_L1I WRITE        ACCESS:          0 HIT:          0 MISS:          0
cpu3_L1I TRANSLATION  ACCESS:          0 HIT:          0 MISS:          0
cpu3_L1I PREFETCH REQUESTED:          0 ISSUED:          0 USEFUL:          0 USELESS:          0
cpu3_L1I AVERAGE MISS LATENCY: 425.5 cycles
cpu3_L2C TOTAL        ACCESS:          0 HIT:          0 MISS:          0
cpu3_L2C LOAD         ACCESS:          0 HIT:          0 MISS:          0
cpu3_L2C RFO          ACCESS:          0 HIT:          0 MISS:          0
cpu3_L2C PREFETCH     ACCESS:          0 HIT:          0 MISS:          0
cpu3_L2C WRITE        ACCESS:          0 HIT:          0 MISS:          0
cpu3_L2C TRANSLATION  ACCESS:          0 HIT:          0 MISS:          0
cpu3_L2C PREFETCH REQUESTED:          0 ISSUED:          0 USEFUL:          0 USELESS:          0
cpu3_L2C AVERAGE MISS LATENCY: 233.1 cycles
cpu3_L2C TOTAL        ACCESS:          0 HIT:          0 MISS:          0
cpu3_L2C LOAD         ACCESS:          0 HIT:          0 MISS:          0
cpu3_L2C RFO          ACCESS:          0 HIT:          0 MISS:          0
cpu3_L2C PREFETCH     ACCESS:          0 HIT:          0 MISS:          0
cpu3_L2C WRITE        ACCESS:          0 HIT:          0 MISS:          0
cpu3_L2C TRANSLATION  ACCESS:          0 HIT:          0 MISS:          0
cpu3_L2C PREFETCH REQUESTED:          0 ISSUED:          0 USEFUL:          0 USELESS:          0
cpu3_L2C AVERAGE MISS LATENCY: 233.1 cycles
cpu3_L2C TOTAL        ACCESS:          0 HIT:          0 MISS:          0
cpu3_L2C LOAD         ACCESS:          0 HIT:          0 MISS:          0
cpu3_L2C RFO          ACCESS:          0 HIT:          0 MISS:          0
cpu3_L2C PREFETCH     ACCESS:          0 HIT:          0 MISS:          0
cpu3_L2C WRITE        ACCESS:          0 HIT:          0 MISS:          0
cpu3_L2C TRANSLATION  ACCESS:          0 HIT:          0 MISS:          0
cpu3_L2C PREFETCH REQUESTED:          0 ISSUED:          0 USEFUL:          0 USELESS:          0
cpu3_L2C AVERAGE MISS LATENCY: 233.1 cycles
cpu3_L2C TOTAL        ACCESS:   11671014 HIT:    7541202 MISS:    4129812
cpu3_L2C LOAD         ACCESS:    3619644 HIT:    1569104 MISS:    2050540
cpu3_L2C RFO          ACCESS:     573422 HIT:     296598 MISS:     276824
cpu3_L2C PREFETCH     ACCESS:    6682697 HIT:    4895343 MISS:    1787354
cpu3_L2C WRITE        ACCESS:     777641 HIT:     777174 MISS:        467
cpu3_L2C TRANSLATION  ACCESS:      17610 HIT:       2983 MISS:      14627
cpu3_L2C PREFETCH REQUESTED:          0 ISSUED:          0 USEFUL:          0 USELESS:          0
cpu3_L2C AVERAGE MISS LATENCY: 233.1 cycles
cpu3_STLB TOTAL        ACCESS:          0 HIT:          0 MISS:          0
cpu3_STLB LOAD         ACCESS:          0 HIT:          0 MISS:          0
cpu3_STLB RFO          ACCESS:          0 HIT:          0 MISS:          0
cpu3_STLB PREFETCH     ACCESS:          0 HIT:          0 MISS:          0
cpu3_STLB WRITE        ACCESS:          0 HIT:          0 MISS:          0
cpu3_STLB TRANSLATION  ACCESS:          0 HIT:          0 MISS:          0
cpu3_STLB PREFETCH REQUESTED:          0 ISSUED:          0 USEFUL:          0 USELESS:          0
cpu3_STLB AVERAGE MISS LATENCY: 221 cycles
cpu3_STLB TOTAL        ACCESS:          0 HIT:          0 MISS:          0
cpu3_STLB LOAD         ACCESS:          0 HIT:          0 MISS:          0
cpu3_STLB RFO          ACCESS:          0 HIT:          0 MISS:          0
cpu3_STLB PREFETCH     ACCESS:          0 HIT:          0 MISS:          0
cpu3_STLB WRITE        ACCESS:          0 HIT:          0 MISS:          0
cpu3_STLB TRANSLATION  ACCESS:          0 HIT:          0 MISS:          0
cpu3_STLB PREFETCH REQUESTED:          0 ISSUED:          0 USEFUL:          0 USELESS:          0
cpu3_STLB AVERAGE MISS LATENCY: 221 cycles
cpu3_STLB TOTAL        ACCESS:          0 HIT:          0 MISS:          0
cpu3_STLB LOAD         ACCESS:          0 HIT:          0 MISS:          0
cpu3_STLB RFO          ACCESS:          0 HIT:          0 MISS:          0
cpu3_STLB PREFETCH     ACCESS:          0 HIT:          0 MISS:          0
cpu3_STLB WRITE        ACCESS:          0 HIT:          0 MISS:          0
cpu3_STLB TRANSLATION  ACCESS:          0 HIT:          0 MISS:          0
cpu3_STLB PREFETCH REQUESTED:          0 ISSUED:          0 USEFUL:          0 USELESS:          0
cpu3_STLB AVERAGE MISS LATENCY: 221 cycles
cpu3_STLB TOTAL        ACCESS:    2240020 HIT:    2208332 MISS:      31688
cpu3_STLB LOAD         ACCESS:    2240020 HIT:    2208332 MISS:      31688
cpu3_STLB RFO          ACCESS:          0 HIT:          0 MISS:          0
cpu3_STLB PREFETCH     ACCESS:          0 HIT:          0 MISS:          0
cpu3_STLB WRITE        ACCESS:          0 HIT:          0 MISS:          0
cpu3_STLB TRANSLATION  ACCESS:          0 HIT:          0 MISS:          0
cpu3_STLB PREFETCH REQUESTED:          0 ISSUED:          0 USEFUL:          0 USELESS:          0
cpu3_STLB AVERAGE MISS LATENCY: 221 cycles

DRAM Statistics

Channel 0 RQ ROW_BUFFER_HIT:    1417970
  ROW_BUFFER_MISS:    3944969
 AVG DBUS CONGESTED CYCLE: 3.959
WQ ROW_BUFFER_HIT: Channel 0 
  ROW_BUFFER_MISS:     142856
  FULL:    3374851

Channel 1 RQ ROW_BUFFER_HIT:    1408482
  ROW_BUFFER_MISS:    3942954
 AVG DBUS CONGESTED CYCLE: 3.959
WQ ROW_BUFFER_HIT: Channel 1 
  ROW_BUFFER_MISS:     143416
  FULL:    3373513
BERTI TO_L1: 246572718 TO_L2: 158204766 TO_L2_BC_MSHR: 3934
BERTI AVG_LAT: 335.631 NUM_TRACK_LATENCY: 28083782 NUM_CANT_TRACK_LATENCY: 99320
BERTI CROSS_PAGE 52851126 NO_CROSS_PAGE: 351926358
BERTI FOUND_BERTI: 119728417 NO_FOUND_BERTI: 188836963
BERTI AVERAGE_ISSUED: 5.65352
BERTI TO_L1: 246572718 TO_L2: 158204766 TO_L2_BC_MSHR: 3934
BERTI AVG_LAT: 335.631 NUM_TRACK_LATENCY: 28083782 NUM_CANT_TRACK_LATENCY: 99320
BERTI CROSS_PAGE 52851126 NO_CROSS_PAGE: 351926358
BERTI FOUND_BERTI: 119728417 NO_FOUND_BERTI: 188836963
BERTI AVERAGE_ISSUED: 5.65352
BERTI TO_L1: 246572718 TO_L2: 158204766 TO_L2_BC_MSHR: 3934
BERTI AVG_LAT: 335.631 NUM_TRACK_LATENCY: 28083782 NUM_CANT_TRACK_LATENCY: 99320
BERTI CROSS_PAGE 52851126 NO_CROSS_PAGE: 351926358
BERTI FOUND_BERTI: 119728417 NO_FOUND_BERTI: 188836963
BERTI AVERAGE_ISSUED: 5.65352
BERTI TO_L1: 246572718 TO_L2: 158204766 TO_L2_BC_MSHR: 3934
BERTI AVG_LAT: 335.631 NUM_TRACK_LATENCY: 28083782 NUM_CANT_TRACK_LATENCY: 99320
BERTI CROSS_PAGE 52851126 NO_CROSS_PAGE: 351926358
BERTI FOUND_BERTI: 119728417 NO_FOUND_BERTI: 188836963
BERTI AVERAGE_ISSUED: 5.65352
