Original cmd-> /home/grads/r/rdas40/ECEN676/ChampSim/bin/multi_core/berti_2ch --warmup_instructions=50000000 --simulation_instructions=150000000  /home/grads/r/rdas40/dpc3_traces/603.bwaves_s-3699B.champsimtrace.xz /home/grads/r/rdas40/dpc3_traces/654.roms_s-842B.champsimtrace.xz /home/grads/r/rdas40/dpc3_traces/649.fotonik3d_s-1176B.champsimtrace.xz /home/grads/r/rdas40/dpc3_traces/628.pop2_s-17B.champsimtrace.xz
WARNING: physical memory size is smaller than virtual memory size.
WARNING: option --warmup_instructions is deprecated. Use --warmup-instructions instead.
WARNING: option --simulation_instructions is deprecated. Use --simulation-instructions instead.

*** ChampSim Multicore Out-of-Order Simulator ***
Warmup Instructions: 50000000
Simulation Instructions: 150000000
Number of CPUs: 4
Page size: 4096

Berti Prefetcher
BERTI HASH ORIGINAL
BERTI IP MASK ffff
Berti Prefetcher
BERTI HASH ORIGINAL
BERTI IP MASK ffff
Berti Prefetcher
BERTI HASH ORIGINAL
BERTI IP MASK ffff
Berti Prefetcher
BERTI HASH ORIGINAL
BERTI IP MASK ffff
Off-chip DRAM Size: 8 GiB Channels: 2 Width: 64-bit Data Race: 3200 MT/s
Heartbeat CPU 2 instructions: 10000003 cycles: 2500048 heartbeat IPC: 4 cumulative IPC: 4 (Simulation time: 00 hr 02 min 52 sec)
Heartbeat CPU 1 instructions: 10000003 cycles: 2506018 heartbeat IPC: 3.99 cumulative IPC: 3.99 (Simulation time: 00 hr 02 min 53 sec)
Heartbeat CPU 0 instructions: 10000001 cycles: 2521903 heartbeat IPC: 3.965 cumulative IPC: 3.965 (Simulation time: 00 hr 02 min 54 sec)
Heartbeat CPU 3 instructions: 10000002 cycles: 2653959 heartbeat IPC: 3.768 cumulative IPC: 3.768 (Simulation time: 00 hr 03 min 03 sec)
Heartbeat CPU 2 instructions: 20000003 cycles: 5000048 heartbeat IPC: 4 cumulative IPC: 4 (Simulation time: 00 hr 05 min 46 sec)
Heartbeat CPU 1 instructions: 20000000 cycles: 5014185 heartbeat IPC: 3.987 cumulative IPC: 3.989 (Simulation time: 00 hr 05 min 47 sec)
Heartbeat CPU 0 instructions: 20000001 cycles: 5038282 heartbeat IPC: 3.974 cumulative IPC: 3.97 (Simulation time: 00 hr 05 min 49 sec)
Heartbeat CPU 3 instructions: 20000000 cycles: 5307540 heartbeat IPC: 3.768 cumulative IPC: 3.768 (Simulation time: 00 hr 06 min 08 sec)
Heartbeat CPU 2 instructions: 30000003 cycles: 7500048 heartbeat IPC: 4 cumulative IPC: 4 (Simulation time: 00 hr 08 min 41 sec)
Heartbeat CPU 1 instructions: 30000000 cycles: 7517839 heartbeat IPC: 3.994 cumulative IPC: 3.991 (Simulation time: 00 hr 08 min 42 sec)
Heartbeat CPU 0 instructions: 30000001 cycles: 7553327 heartbeat IPC: 3.976 cumulative IPC: 3.972 (Simulation time: 00 hr 08 min 45 sec)
Heartbeat CPU 3 instructions: 30000003 cycles: 7960590 heartbeat IPC: 3.769 cumulative IPC: 3.769 (Simulation time: 00 hr 09 min 13 sec)
Heartbeat CPU 2 instructions: 40000003 cycles: 10000048 heartbeat IPC: 4 cumulative IPC: 4 (Simulation time: 00 hr 11 min 34 sec)
Heartbeat CPU 1 instructions: 40000000 cycles: 10026884 heartbeat IPC: 3.986 cumulative IPC: 3.989 (Simulation time: 00 hr 11 min 36 sec)
Heartbeat CPU 0 instructions: 40000000 cycles: 10077359 heartbeat IPC: 3.962 cumulative IPC: 3.969 (Simulation time: 00 hr 11 min 39 sec)
Heartbeat CPU 3 instructions: 40000002 cycles: 10612653 heartbeat IPC: 3.771 cumulative IPC: 3.769 (Simulation time: 00 hr 12 min 16 sec)
Heartbeat CPU 2 instructions: 50000003 cycles: 12500048 heartbeat IPC: 4 cumulative IPC: 4 (Simulation time: 00 hr 14 min 28 sec)
Warmup finished CPU 2 instructions: 50000003 cycles: 12500049 cumulative IPC: 4 (Simulation time: 00 hr 14 min 28 sec)
Heartbeat CPU 1 instructions: 50000000 cycles: 12547392 heartbeat IPC: 3.967 cumulative IPC: 3.985 (Simulation time: 00 hr 14 min 31 sec)
Warmup finished CPU 1 instructions: 50000000 cycles: 12547393 cumulative IPC: 3.985 (Simulation time: 00 hr 14 min 31 sec)
Heartbeat CPU 0 instructions: 50000000 cycles: 12599190 heartbeat IPC: 3.965 cumulative IPC: 3.969 (Simulation time: 00 hr 14 min 35 sec)
Warmup finished CPU 0 instructions: 50000000 cycles: 12599191 cumulative IPC: 3.969 (Simulation time: 00 hr 14 min 35 sec)
Heartbeat CPU 3 instructions: 50000001 cycles: 13266251 heartbeat IPC: 3.768 cumulative IPC: 3.769 (Simulation time: 00 hr 15 min 21 sec)
Warmup finished CPU 3 instructions: 50000001 cycles: 13266252 cumulative IPC: 3.769 (Simulation time: 00 hr 15 min 21 sec)
Warmup complete CPU 0 instructions: 52642249 cycles: 13266252 cumulative IPC: 3.968 (Simulation time: 00 hr 15 min 21 sec)
Warmup complete CPU 1 instructions: 52869537 cycles: 13266252 cumulative IPC: 3.985 (Simulation time: 00 hr 15 min 21 sec)
Warmup complete CPU 2 instructions: 53064815 cycles: 13266252 cumulative IPC: 4 (Simulation time: 00 hr 15 min 21 sec)
Warmup complete CPU 3 instructions: 50000001 cycles: 13266252 cumulative IPC: 3.769 (Simulation time: 00 hr 15 min 21 sec)
Heartbeat CPU 1 instructions: 60000002 cycles: 15600853 heartbeat IPC: 3.275 cumulative IPC: 3.054 (Simulation time: 00 hr 17 min 40 sec)
Heartbeat CPU 0 instructions: 60000002 cycles: 16449694 heartbeat IPC: 2.597 cumulative IPC: 2.311 (Simulation time: 00 hr 18 min 31 sec)
Heartbeat CPU 2 instructions: 60000004 cycles: 17242442 heartbeat IPC: 2.109 cumulative IPC: 1.744 (Simulation time: 00 hr 19 min 16 sec)
Heartbeat CPU 3 instructions: 60000004 cycles: 18916963 heartbeat IPC: 1.77 cumulative IPC: 1.77 (Simulation time: 00 hr 20 min 55 sec)
Heartbeat CPU 1 instructions: 70000003 cycles: 19164562 heartbeat IPC: 2.806 cumulative IPC: 2.904 (Simulation time: 00 hr 21 min 11 sec)
Heartbeat CPU 0 instructions: 70000004 cycles: 20775541 heartbeat IPC: 2.312 cumulative IPC: 2.312 (Simulation time: 00 hr 22 min 47 sec)
Heartbeat CPU 1 instructions: 80000000 cycles: 22501450 heartbeat IPC: 2.997 cumulative IPC: 2.938 (Simulation time: 00 hr 24 min 31 sec)
Heartbeat CPU 2 instructions: 70000004 cycles: 22762044 heartbeat IPC: 1.812 cumulative IPC: 1.783 (Simulation time: 00 hr 24 min 47 sec)
Heartbeat CPU 3 instructions: 70000002 cycles: 24205603 heartbeat IPC: 1.891 cumulative IPC: 1.828 (Simulation time: 00 hr 26 min 13 sec)
Heartbeat CPU 0 instructions: 80000000 cycles: 25056136 heartbeat IPC: 2.336 cumulative IPC: 2.32 (Simulation time: 00 hr 27 min 04 sec)
Heartbeat CPU 1 instructions: 90000001 cycles: 25937474 heartbeat IPC: 2.91 cumulative IPC: 2.93 (Simulation time: 00 hr 27 min 58 sec)
Heartbeat CPU 2 instructions: 80000002 cycles: 28773675 heartbeat IPC: 1.663 cumulative IPC: 1.737 (Simulation time: 00 hr 30 min 44 sec)
Heartbeat CPU 3 instructions: 80000000 cycles: 28862224 heartbeat IPC: 2.147 cumulative IPC: 1.924 (Simulation time: 00 hr 30 min 49 sec)
Heartbeat CPU 1 instructions: 100000004 cycles: 29341885 heartbeat IPC: 2.937 cumulative IPC: 2.932 (Simulation time: 00 hr 31 min 16 sec)
Heartbeat CPU 0 instructions: 90000001 cycles: 29359708 heartbeat IPC: 2.324 cumulative IPC: 2.321 (Simulation time: 00 hr 31 min 17 sec)
Heartbeat CPU 1 instructions: 110000001 cycles: 32697996 heartbeat IPC: 2.98 cumulative IPC: 2.94 (Simulation time: 00 hr 34 min 40 sec)
Heartbeat CPU 3 instructions: 90000001 cycles: 33394442 heartbeat IPC: 2.206 cumulative IPC: 1.987 (Simulation time: 00 hr 35 min 23 sec)
Heartbeat CPU 0 instructions: 100000000 cycles: 33660595 heartbeat IPC: 2.325 cumulative IPC: 2.322 (Simulation time: 00 hr 35 min 38 sec)
Heartbeat CPU 2 instructions: 90000003 cycles: 33992247 heartbeat IPC: 1.916 cumulative IPC: 1.782 (Simulation time: 00 hr 35 min 58 sec)
Heartbeat CPU 1 instructions: 120000002 cycles: 36087105 heartbeat IPC: 2.951 cumulative IPC: 2.942 (Simulation time: 00 hr 38 min 01 sec)
Heartbeat CPU 0 instructions: 110000003 cycles: 38038331 heartbeat IPC: 2.284 cumulative IPC: 2.315 (Simulation time: 00 hr 39 min 57 sec)
Heartbeat CPU 3 instructions: 100000003 cycles: 38535317 heartbeat IPC: 1.945 cumulative IPC: 1.979 (Simulation time: 00 hr 40 min 25 sec)
Heartbeat CPU 1 instructions: 130000003 cycles: 39496381 heartbeat IPC: 2.933 cumulative IPC: 2.941 (Simulation time: 00 hr 41 min 22 sec)
Heartbeat CPU 2 instructions: 100000002 cycles: 40856182 heartbeat IPC: 1.457 cumulative IPC: 1.701 (Simulation time: 00 hr 42 min 39 sec)
Heartbeat CPU 0 instructions: 120000001 cycles: 42335110 heartbeat IPC: 2.327 cumulative IPC: 2.317 (Simulation time: 00 hr 44 min 05 sec)
Heartbeat CPU 1 instructions: 140000003 cycles: 42909748 heartbeat IPC: 2.93 cumulative IPC: 2.939 (Simulation time: 00 hr 44 min 37 sec)
Heartbeat CPU 3 instructions: 110000001 cycles: 43833381 heartbeat IPC: 1.887 cumulative IPC: 1.963 (Simulation time: 00 hr 45 min 31 sec)
Heartbeat CPU 1 instructions: 150000003 cycles: 46259666 heartbeat IPC: 2.985 cumulative IPC: 2.944 (Simulation time: 00 hr 47 min 48 sec)
Heartbeat CPU 0 instructions: 130000000 cycles: 46747633 heartbeat IPC: 2.266 cumulative IPC: 2.31 (Simulation time: 00 hr 48 min 16 sec)
Heartbeat CPU 2 instructions: 110000001 cycles: 48633484 heartbeat IPC: 1.286 cumulative IPC: 1.61 (Simulation time: 00 hr 50 min 08 sec)
Heartbeat CPU 3 instructions: 120000003 cycles: 49188855 heartbeat IPC: 1.867 cumulative IPC: 1.949 (Simulation time: 00 hr 50 min 42 sec)
Heartbeat CPU 1 instructions: 160000001 cycles: 49512596 heartbeat IPC: 3.074 cumulative IPC: 2.956 (Simulation time: 00 hr 51 min 02 sec)
Heartbeat CPU 0 instructions: 140000000 cycles: 51154597 heartbeat IPC: 2.269 cumulative IPC: 2.306 (Simulation time: 00 hr 52 min 36 sec)
Heartbeat CPU 1 instructions: 170000002 cycles: 52792143 heartbeat IPC: 3.049 cumulative IPC: 2.963 (Simulation time: 00 hr 54 min 16 sec)
Heartbeat CPU 3 instructions: 130000001 cycles: 54222586 heartbeat IPC: 1.987 cumulative IPC: 1.953 (Simulation time: 00 hr 55 min 34 sec)
Heartbeat CPU 2 instructions: 120000001 cycles: 54508510 heartbeat IPC: 1.702 cumulative IPC: 1.623 (Simulation time: 00 hr 55 min 51 sec)
Heartbeat CPU 0 instructions: 150000002 cycles: 55540658 heartbeat IPC: 2.28 cumulative IPC: 2.303 (Simulation time: 00 hr 56 min 47 sec)
Heartbeat CPU 1 instructions: 180000003 cycles: 56371926 heartbeat IPC: 2.793 cumulative IPC: 2.949 (Simulation time: 00 hr 57 min 27 sec)
Heartbeat CPU 3 instructions: 140000003 cycles: 59167498 heartbeat IPC: 2.022 cumulative IPC: 1.961 (Simulation time: 01 hr 00 min 14 sec)
Heartbeat CPU 1 instructions: 190000001 cycles: 59806763 heartbeat IPC: 2.911 cumulative IPC: 2.946 (Simulation time: 01 hr 00 min 54 sec)
Heartbeat CPU 0 instructions: 160000001 cycles: 59916669 heartbeat IPC: 2.285 cumulative IPC: 2.301 (Simulation time: 01 hr 01 min 01 sec)
Heartbeat CPU 2 instructions: 130000000 cycles: 60279617 heartbeat IPC: 1.733 cumulative IPC: 1.636 (Simulation time: 01 hr 01 min 24 sec)
Heartbeat CPU 1 instructions: 200000004 cycles: 63236801 heartbeat IPC: 2.915 cumulative IPC: 2.944 (Simulation time: 01 hr 04 min 09 sec)
Heartbeat CPU 3 instructions: 150000000 cycles: 63809587 heartbeat IPC: 2.154 cumulative IPC: 1.979 (Simulation time: 01 hr 04 min 41 sec)
Simulation finished CPU 1 instructions: 150000004 cycles: 50982869 cumulative IPC: 2.942 (Simulation time: 01 hr 05 min 06 sec)
Heartbeat CPU 0 instructions: 170000000 cycles: 64297317 heartbeat IPC: 2.283 cumulative IPC: 2.3 (Simulation time: 01 hr 05 min 09 sec)
Heartbeat CPU 1 instructions: 210000004 cycles: 66718720 heartbeat IPC: 2.872 cumulative IPC: 2.94 (Simulation time: 01 hr 07 min 23 sec)
Heartbeat CPU 2 instructions: 140000001 cycles: 66992477 heartbeat IPC: 1.49 cumulative IPC: 1.618 (Simulation time: 01 hr 07 min 36 sec)
Heartbeat CPU 0 instructions: 180000000 cycles: 68712946 heartbeat IPC: 2.265 cumulative IPC: 2.297 (Simulation time: 01 hr 09 min 14 sec)
Heartbeat CPU 3 instructions: 160000000 cycles: 69147060 heartbeat IPC: 1.874 cumulative IPC: 1.968 (Simulation time: 01 hr 09 min 40 sec)
Heartbeat CPU 1 instructions: 220000001 cycles: 70139250 heartbeat IPC: 2.924 cumulative IPC: 2.939 (Simulation time: 01 hr 10 min 41 sec)
Heartbeat CPU 2 instructions: 150000004 cycles: 72091397 heartbeat IPC: 1.961 cumulative IPC: 1.648 (Simulation time: 01 hr 12 min 40 sec)
Heartbeat CPU 0 instructions: 190000000 cycles: 73076610 heartbeat IPC: 2.292 cumulative IPC: 2.297 (Simulation time: 01 hr 13 min 38 sec)
Heartbeat CPU 3 instructions: 170000000 cycles: 73234629 heartbeat IPC: 2.446 cumulative IPC: 2.001 (Simulation time: 01 hr 13 min 48 sec)
Heartbeat CPU 1 instructions: 230000000 cycles: 73593325 heartbeat IPC: 2.895 cumulative IPC: 2.936 (Simulation time: 01 hr 14 min 09 sec)
Heartbeat CPU 1 instructions: 240000002 cycles: 77043644 heartbeat IPC: 2.898 cumulative IPC: 2.934 (Simulation time: 01 hr 17 min 24 sec)
Heartbeat CPU 0 instructions: 200000004 cycles: 77426307 heartbeat IPC: 2.299 cumulative IPC: 2.297 (Simulation time: 01 hr 17 min 45 sec)
Heartbeat CPU 2 instructions: 160000004 cycles: 78511592 heartbeat IPC: 1.558 cumulative IPC: 1.639 (Simulation time: 01 hr 18 min 48 sec)
Simulation finished CPU 0 instructions: 150000000 cycles: 65318798 cumulative IPC: 2.296 (Simulation time: 01 hr 18 min 52 sec)
Heartbeat CPU 3 instructions: 180000000 cycles: 79838441 heartbeat IPC: 1.514 cumulative IPC: 1.953 (Simulation time: 01 hr 20 min 05 sec)
Heartbeat CPU 1 instructions: 250000004 cycles: 80478155 heartbeat IPC: 2.912 cumulative IPC: 2.933 (Simulation time: 01 hr 20 min 44 sec)
Heartbeat CPU 0 instructions: 210000001 cycles: 81834039 heartbeat IPC: 2.269 cumulative IPC: 2.295 (Simulation time: 01 hr 22 min 04 sec)
Heartbeat CPU 1 instructions: 260000002 cycles: 83909239 heartbeat IPC: 2.915 cumulative IPC: 2.932 (Simulation time: 01 hr 24 min 06 sec)
Heartbeat CPU 2 instructions: 170000001 cycles: 84339561 heartbeat IPC: 1.716 cumulative IPC: 1.645 (Simulation time: 01 hr 24 min 31 sec)
Heartbeat CPU 3 instructions: 190000004 cycles: 85784487 heartbeat IPC: 1.682 cumulative IPC: 1.931 (Simulation time: 01 hr 25 min 56 sec)
Heartbeat CPU 0 instructions: 220000002 cycles: 86267930 heartbeat IPC: 2.255 cumulative IPC: 2.293 (Simulation time: 01 hr 26 min 25 sec)
Heartbeat CPU 1 instructions: 270000004 cycles: 87329240 heartbeat IPC: 2.924 cumulative IPC: 2.932 (Simulation time: 01 hr 27 min 28 sec)
Heartbeat CPU 2 instructions: 180000000 cycles: 90078780 heartbeat IPC: 1.742 cumulative IPC: 1.653 (Simulation time: 01 hr 30 min 12 sec)
Heartbeat CPU 0 instructions: 230000000 cycles: 90653318 heartbeat IPC: 2.28 cumulative IPC: 2.292 (Simulation time: 01 hr 30 min 46 sec)
Heartbeat CPU 1 instructions: 280000004 cycles: 90750137 heartbeat IPC: 2.923 cumulative IPC: 2.931 (Simulation time: 01 hr 30 min 51 sec)
Heartbeat CPU 3 instructions: 200000002 cycles: 91765925 heartbeat IPC: 1.672 cumulative IPC: 1.911 (Simulation time: 01 hr 31 min 51 sec)
Simulation finished CPU 3 instructions: 150000001 cycles: 78499674 cumulative IPC: 1.911 (Simulation time: 01 hr 31 min 51 sec)
Heartbeat CPU 1 instructions: 290000003 cycles: 94166692 heartbeat IPC: 2.927 cumulative IPC: 2.931 (Simulation time: 01 hr 34 min 12 sec)
Heartbeat CPU 0 instructions: 240000001 cycles: 95075341 heartbeat IPC: 2.261 cumulative IPC: 2.29 (Simulation time: 01 hr 35 min 06 sec)
Heartbeat CPU 2 instructions: 190000001 cycles: 95718366 heartbeat IPC: 1.773 cumulative IPC: 1.661 (Simulation time: 01 hr 35 min 44 sec)
Heartbeat CPU 1 instructions: 300000000 cycles: 97603989 heartbeat IPC: 2.909 cumulative IPC: 2.93 (Simulation time: 01 hr 37 min 35 sec)
Heartbeat CPU 3 instructions: 210000002 cycles: 97684343 heartbeat IPC: 1.69 cumulative IPC: 1.895 (Simulation time: 01 hr 37 min 40 sec)
Heartbeat CPU 0 instructions: 250000001 cycles: 99446837 heartbeat IPC: 2.288 cumulative IPC: 2.29 (Simulation time: 01 hr 39 min 25 sec)
Heartbeat CPU 1 instructions: 310000004 cycles: 101016075 heartbeat IPC: 2.931 cumulative IPC: 2.93 (Simulation time: 01 hr 40 min 58 sec)
Heartbeat CPU 2 instructions: 200000000 cycles: 101393114 heartbeat IPC: 1.762 cumulative IPC: 1.667 (Simulation time: 01 hr 41 min 19 sec)
Simulation finished CPU 2 instructions: 150000000 cycles: 89842602 cumulative IPC: 1.67 (Simulation time: 01 hr 43 min 01 sec)
Simulation complete CPU 0 instructions: 205727948 cycles: 89842602 cumulative IPC: 2.29 (Simulation time: 01 hr 43 min 01 sec)
Simulation complete CPU 1 instructions: 263269355 cycles: 89842602 cumulative IPC: 2.93 (Simulation time: 01 hr 43 min 01 sec)
Simulation complete CPU 2 instructions: 150000000 cycles: 89842602 cumulative IPC: 1.67 (Simulation time: 01 hr 43 min 01 sec)
Simulation complete CPU 3 instructions: 169425310 cycles: 89842602 cumulative IPC: 1.886 (Simulation time: 01 hr 43 min 01 sec)

ChampSim completed all CPUs

=== Simulation ===
CPU 0 runs /home/grads/r/rdas40/dpc3_traces/603.bwaves_s-3699B.champsimtrace.xzCPU 1 runs /home/grads/r/rdas40/dpc3_traces/654.roms_s-842B.champsimtrace.xzCPU 2 runs /home/grads/r/rdas40/dpc3_traces/649.fotonik3d_s-1176B.champsimtrace.xzCPU 3 runs /home/grads/r/rdas40/dpc3_traces/628.pop2_s-17B.champsimtrace.xz
Total Simulation Statistics (not including warmup)

CPU 0 cumulative IPC: 2.29 instructions: 205727948 cycles: 89842602
CPU 0 Branch Prediction Accuracy: 90.08% MPKI: 14.5 Average ROB Occupancy at Mispredict: 30.37
Branch type MPKI
BRANCH_DIRECT_JUMP: 0.061
BRANCH_INDIRECT: 0
BRANCH_CONDITIONAL: 14.4
BRANCH_DIRECT_CALL: 0
BRANCH_INDIRECT_CALL: 0
BRANCH_RETURN: 0.0683


CPU 1 cumulative IPC: 2.93 instructions: 263269355 cycles: 89842602
CPU 1 Branch Prediction Accuracy: 95.14% MPKI: 8.028 Average ROB Occupancy at Mispredict: 82.67
Branch type MPKI
BRANCH_DIRECT_JUMP: 0.158
BRANCH_INDIRECT: 0
BRANCH_CONDITIONAL: 6.76
BRANCH_DIRECT_CALL: 0
BRANCH_INDIRECT_CALL: 0
BRANCH_RETURN: 1.11


CPU 2 cumulative IPC: 1.67 instructions: 150000000 cycles: 89842602
CPU 2 Branch Prediction Accuracy: 99.98% MPKI: 0.00438 Average ROB Occupancy at Mispredict: 352
Branch type MPKI
BRANCH_DIRECT_JUMP: 0
BRANCH_INDIRECT: 0
BRANCH_CONDITIONAL: 0.00438
BRANCH_DIRECT_CALL: 0
BRANCH_INDIRECT_CALL: 0
BRANCH_RETURN: 0


CPU 3 cumulative IPC: 1.886 instructions: 169425310 cycles: 89842602
CPU 3 Branch Prediction Accuracy: 97.77% MPKI: 3.549 Average ROB Occupancy at Mispredict: 102.5
Branch type MPKI
BRANCH_DIRECT_JUMP: 0.0285
BRANCH_INDIRECT: 0.000761
BRANCH_CONDITIONAL: 3.48
BRANCH_DIRECT_CALL: 0.00163
BRANCH_INDIRECT_CALL: 0
BRANCH_RETURN: 0.0359

LLC TOTAL        ACCESS:      41463 HIT:       1913 MISS:      39550
LLC LOAD         ACCESS:        308 HIT:         37 MISS:        271
LLC RFO          ACCESS:      18150 HIT:        915 MISS:      17235
LLC PREFETCH     ACCESS:       4640 HIT:        959 MISS:       3681
LLC WRITE        ACCESS:      18363 HIT:          1 MISS:      18362
LLC TRANSLATION  ACCESS:          2 HIT:          1 MISS:          1
LLC PREFETCH REQUESTED:          0 ISSUED:          0 USEFUL:          0 USELESS:          0
LLC AVERAGE MISS LATENCY: 558.5 cycles
LLC TOTAL        ACCESS:      53222 HIT:       6261 MISS:      46961
LLC LOAD         ACCESS:       1708 HIT:        114 MISS:       1594
LLC RFO          ACCESS:      13227 HIT:       1666 MISS:      11561
LLC PREFETCH     ACCESS:      24903 HIT:       3960 MISS:      20943
LLC WRITE        ACCESS:      13301 HIT:        521 MISS:      12780
LLC TRANSLATION  ACCESS:         83 HIT:          0 MISS:         83
LLC PREFETCH REQUESTED:          0 ISSUED:          0 USEFUL:          0 USELESS:          0
LLC AVERAGE MISS LATENCY: 558.5 cycles
LLC TOTAL        ACCESS:    2971584 HIT:    1611881 MISS:    1359703
LLC LOAD         ACCESS:     363877 HIT:      34260 MISS:     329617
LLC RFO          ACCESS:        560 HIT:        560 MISS:          0
LLC PREFETCH     ACCESS:    1290649 HIT:     260676 MISS:    1029973
LLC WRITE        ACCESS:    1315971 HIT:    1315951 MISS:         20
LLC TRANSLATION  ACCESS:        527 HIT:        434 MISS:         93
LLC PREFETCH REQUESTED:          0 ISSUED:          0 USEFUL:          0 USELESS:          0
LLC AVERAGE MISS LATENCY: 558.5 cycles
LLC TOTAL        ACCESS:    1715228 HIT:    1120368 MISS:     594860
LLC LOAD         ACCESS:     447422 HIT:     314708 MISS:     132714
LLC RFO          ACCESS:     348211 HIT:     133761 MISS:     214450
LLC PREFETCH     ACCESS:     416258 HIT:     175324 MISS:     240934
LLC WRITE        ACCESS:     498544 HIT:     494552 MISS:       3992
LLC TRANSLATION  ACCESS:       4793 HIT:       2023 MISS:       2770
LLC PREFETCH REQUESTED:          0 ISSUED:          0 USEFUL:          0 USELESS:          0
LLC AVERAGE MISS LATENCY: 558.5 cycles
cpu0_DTLB TOTAL        ACCESS:   25624557 HIT:   25621798 MISS:       2759
cpu0_DTLB LOAD         ACCESS:   25624557 HIT:   25621798 MISS:       2759
cpu0_DTLB RFO          ACCESS:          0 HIT:          0 MISS:          0
cpu0_DTLB PREFETCH     ACCESS:          0 HIT:          0 MISS:          0
cpu0_DTLB WRITE        ACCESS:          0 HIT:          0 MISS:          0
cpu0_DTLB TRANSLATION  ACCESS:          0 HIT:          0 MISS:          0
cpu0_DTLB PREFETCH REQUESTED:          0 ISSUED:          0 USEFUL:          0 USELESS:          0
cpu0_DTLB AVERAGE MISS LATENCY: 21.96 cycles
cpu0_DTLB TOTAL        ACCESS:          0 HIT:          0 MISS:          0
cpu0_DTLB LOAD         ACCESS:          0 HIT:          0 MISS:          0
cpu0_DTLB RFO          ACCESS:          0 HIT:          0 MISS:          0
cpu0_DTLB PREFETCH     ACCESS:          0 HIT:          0 MISS:          0
cpu0_DTLB WRITE        ACCESS:          0 HIT:          0 MISS:          0
cpu0_DTLB TRANSLATION  ACCESS:          0 HIT:          0 MISS:          0
cpu0_DTLB PREFETCH REQUESTED:          0 ISSUED:          0 USEFUL:          0 USELESS:          0
cpu0_DTLB AVERAGE MISS LATENCY: 21.96 cycles
cpu0_DTLB TOTAL        ACCESS:          0 HIT:          0 MISS:          0
cpu0_DTLB LOAD         ACCESS:          0 HIT:          0 MISS:          0
cpu0_DTLB RFO          ACCESS:          0 HIT:          0 MISS:          0
cpu0_DTLB PREFETCH     ACCESS:          0 HIT:          0 MISS:          0
cpu0_DTLB WRITE        ACCESS:          0 HIT:          0 MISS:          0
cpu0_DTLB TRANSLATION  ACCESS:          0 HIT:          0 MISS:          0
cpu0_DTLB PREFETCH REQUESTED:          0 ISSUED:          0 USEFUL:          0 USELESS:          0
cpu0_DTLB AVERAGE MISS LATENCY: 21.96 cycles
cpu0_DTLB TOTAL        ACCESS:          0 HIT:          0 MISS:          0
cpu0_DTLB LOAD         ACCESS:          0 HIT:          0 MISS:          0
cpu0_DTLB RFO          ACCESS:          0 HIT:          0 MISS:          0
cpu0_DTLB PREFETCH     ACCESS:          0 HIT:          0 MISS:          0
cpu0_DTLB WRITE        ACCESS:          0 HIT:          0 MISS:          0
cpu0_DTLB TRANSLATION  ACCESS:          0 HIT:          0 MISS:          0
cpu0_DTLB PREFETCH REQUESTED:          0 ISSUED:          0 USEFUL:          0 USELESS:          0
cpu0_DTLB AVERAGE MISS LATENCY: 21.96 cycles
cpu0_ITLB TOTAL        ACCESS:     666444 HIT:     666444 MISS:          0
cpu0_ITLB LOAD         ACCESS:     666444 HIT:     666444 MISS:          0
cpu0_ITLB RFO          ACCESS:          0 HIT:          0 MISS:          0
cpu0_ITLB PREFETCH     ACCESS:          0 HIT:          0 MISS:          0
cpu0_ITLB WRITE        ACCESS:          0 HIT:          0 MISS:          0
cpu0_ITLB TRANSLATION  ACCESS:          0 HIT:          0 MISS:          0
cpu0_ITLB PREFETCH REQUESTED:          0 ISSUED:          0 USEFUL:          0 USELESS:          0
cpu0_ITLB AVERAGE MISS LATENCY: -nan cycles
cpu0_ITLB TOTAL        ACCESS:          0 HIT:          0 MISS:          0
cpu0_ITLB LOAD         ACCESS:          0 HIT:          0 MISS:          0
cpu0_ITLB RFO          ACCESS:          0 HIT:          0 MISS:          0
cpu0_ITLB PREFETCH     ACCESS:          0 HIT:          0 MISS:          0
cpu0_ITLB WRITE        ACCESS:          0 HIT:          0 MISS:          0
cpu0_ITLB TRANSLATION  ACCESS:          0 HIT:          0 MISS:          0
cpu0_ITLB PREFETCH REQUESTED:          0 ISSUED:          0 USEFUL:          0 USELESS:          0
cpu0_ITLB AVERAGE MISS LATENCY: -nan cycles
cpu0_ITLB TOTAL        ACCESS:          0 HIT:          0 MISS:          0
cpu0_ITLB LOAD         ACCESS:          0 HIT:          0 MISS:          0
cpu0_ITLB RFO          ACCESS:          0 HIT:          0 MISS:          0
cpu0_ITLB PREFETCH     ACCESS:          0 HIT:          0 MISS:          0
cpu0_ITLB WRITE        ACCESS:          0 HIT:          0 MISS:          0
cpu0_ITLB TRANSLATION  ACCESS:          0 HIT:          0 MISS:          0
cpu0_ITLB PREFETCH REQUESTED:          0 ISSUED:          0 USEFUL:          0 USELESS:          0
cpu0_ITLB AVERAGE MISS LATENCY: -nan cycles
cpu0_ITLB TOTAL        ACCESS:          0 HIT:          0 MISS:          0
cpu0_ITLB LOAD         ACCESS:          0 HIT:          0 MISS:          0
cpu0_ITLB RFO          ACCESS:          0 HIT:          0 MISS:          0
cpu0_ITLB PREFETCH     ACCESS:          0 HIT:          0 MISS:          0
cpu0_ITLB WRITE        ACCESS:          0 HIT:          0 MISS:          0
cpu0_ITLB TRANSLATION  ACCESS:          0 HIT:          0 MISS:          0
cpu0_ITLB PREFETCH REQUESTED:          0 ISSUED:          0 USEFUL:          0 USELESS:          0
cpu0_ITLB AVERAGE MISS LATENCY: -nan cycles
cpu0_L1D TOTAL        ACCESS:   38753603 HIT:   38569698 MISS:     183905
cpu0_L1D LOAD         ACCESS:   30631099 HIT:   30628573 MISS:       2526
cpu0_L1D RFO          ACCESS:          0 HIT:          0 MISS:          0
cpu0_L1D PREFETCH     ACCESS:     242163 HIT:     201153 MISS:      41010
cpu0_L1D WRITE        ACCESS:    7879995 HIT:    7739656 MISS:     140339
cpu0_L1D TRANSLATION  ACCESS:        346 HIT:        316 MISS:         30
cpu0_L1D PREFETCH REQUESTED:     374632 ISSUED:     242163 USEFUL:       2060 USELESS:        203
cpu0_L1D AVERAGE MISS LATENCY: 201.6 cycles
cpu0_L1D TOTAL        ACCESS:          0 HIT:          0 MISS:          0
cpu0_L1D LOAD         ACCESS:          0 HIT:          0 MISS:          0
cpu0_L1D RFO          ACCESS:          0 HIT:          0 MISS:          0
cpu0_L1D PREFETCH     ACCESS:          0 HIT:          0 MISS:          0
cpu0_L1D WRITE        ACCESS:          0 HIT:          0 MISS:          0
cpu0_L1D TRANSLATION  ACCESS:          0 HIT:          0 MISS:          0
cpu0_L1D PREFETCH REQUESTED:     374632 ISSUED:     242163 USEFUL:       2060 USELESS:        203
cpu0_L1D AVERAGE MISS LATENCY: 201.6 cycles
cpu0_L1D TOTAL        ACCESS:          0 HIT:          0 MISS:          0
cpu0_L1D LOAD         ACCESS:          0 HIT:          0 MISS:          0
cpu0_L1D RFO          ACCESS:          0 HIT:          0 MISS:          0
cpu0_L1D PREFETCH     ACCESS:          0 HIT:          0 MISS:          0
cpu0_L1D WRITE        ACCESS:          0 HIT:          0 MISS:          0
cpu0_L1D TRANSLATION  ACCESS:          0 HIT:          0 MISS:          0
cpu0_L1D PREFETCH REQUESTED:     374632 ISSUED:     242163 USEFUL:       2060 USELESS:        203
cpu0_L1D AVERAGE MISS LATENCY: 201.6 cycles
cpu0_L1D TOTAL        ACCESS:          0 HIT:          0 MISS:          0
cpu0_L1D LOAD         ACCESS:          0 HIT:          0 MISS:          0
cpu0_L1D RFO          ACCESS:          0 HIT:          0 MISS:          0
cpu0_L1D PREFETCH     ACCESS:          0 HIT:          0 MISS:          0
cpu0_L1D WRITE        ACCESS:          0 HIT:          0 MISS:          0
cpu0_L1D TRANSLATION  ACCESS:          0 HIT:          0 MISS:          0
cpu0_L1D PREFETCH REQUESTED:     374632 ISSUED:     242163 USEFUL:       2060 USELESS:        203
cpu0_L1D AVERAGE MISS LATENCY: 201.6 cycles
cpu0_L1I TOTAL        ACCESS:     791468 HIT:     791468 MISS:          0
cpu0_L1I LOAD         ACCESS:     791468 HIT:     791468 MISS:          0
cpu0_L1I RFO          ACCESS:          0 HIT:          0 MISS:          0
cpu0_L1I PREFETCH     ACCESS:          0 HIT:          0 MISS:          0
cpu0_L1I WRITE        ACCESS:          0 HIT:          0 MISS:          0
cpu0_L1I TRANSLATION  ACCESS:          0 HIT:          0 MISS:          0
cpu0_L1I PREFETCH REQUESTED:          0 ISSUED:          0 USEFUL:          0 USELESS:          0
cpu0_L1I AVERAGE MISS LATENCY: -nan cycles
cpu0_L1I TOTAL        ACCESS:          0 HIT:          0 MISS:          0
cpu0_L1I LOAD         ACCESS:          0 HIT:          0 MISS:          0
cpu0_L1I RFO          ACCESS:          0 HIT:          0 MISS:          0
cpu0_L1I PREFETCH     ACCESS:          0 HIT:          0 MISS:          0
cpu0_L1I WRITE        ACCESS:          0 HIT:          0 MISS:          0
cpu0_L1I TRANSLATION  ACCESS:          0 HIT:          0 MISS:          0
cpu0_L1I PREFETCH REQUESTED:          0 ISSUED:          0 USEFUL:          0 USELESS:          0
cpu0_L1I AVERAGE MISS LATENCY: -nan cycles
cpu0_L1I TOTAL        ACCESS:          0 HIT:          0 MISS:          0
cpu0_L1I LOAD         ACCESS:          0 HIT:          0 MISS:          0
cpu0_L1I RFO          ACCESS:          0 HIT:          0 MISS:          0
cpu0_L1I PREFETCH     ACCESS:          0 HIT:          0 MISS:          0
cpu0_L1I WRITE        ACCESS:          0 HIT:          0 MISS:          0
cpu0_L1I TRANSLATION  ACCESS:          0 HIT:          0 MISS:          0
cpu0_L1I PREFETCH REQUESTED:          0 ISSUED:          0 USEFUL:          0 USELESS:          0
cpu0_L1I AVERAGE MISS LATENCY: -nan cycles
cpu0_L1I TOTAL        ACCESS:          0 HIT:          0 MISS:          0
cpu0_L1I LOAD         ACCESS:          0 HIT:          0 MISS:          0
cpu0_L1I RFO          ACCESS:          0 HIT:          0 MISS:          0
cpu0_L1I PREFETCH     ACCESS:          0 HIT:          0 MISS:          0
cpu0_L1I WRITE        ACCESS:          0 HIT:          0 MISS:          0
cpu0_L1I TRANSLATION  ACCESS:          0 HIT:          0 MISS:          0
cpu0_L1I PREFETCH REQUESTED:          0 ISSUED:          0 USEFUL:          0 USELESS:          0
cpu0_L1I AVERAGE MISS LATENCY: -nan cycles
cpu0_L2C TOTAL        ACCESS:      79644 HIT:      54130 MISS:      25514
cpu0_L2C LOAD         ACCESS:       1899 HIT:       1572 MISS:        327
cpu0_L2C RFO          ACCESS:      18645 HIT:        321 MISS:      18324
cpu0_L2C PREFETCH     ACCESS:      40421 HIT:      33586 MISS:       6835
cpu0_L2C WRITE        ACCESS:      18649 HIT:      18623 MISS:         26
cpu0_L2C TRANSLATION  ACCESS:         30 HIT:         28 MISS:          2
cpu0_L2C PREFETCH REQUESTED:          0 ISSUED:          0 USEFUL:          0 USELESS:          0
cpu0_L2C AVERAGE MISS LATENCY: 1774 cycles
cpu0_L2C TOTAL        ACCESS:          0 HIT:          0 MISS:          0
cpu0_L2C LOAD         ACCESS:          0 HIT:          0 MISS:          0
cpu0_L2C RFO          ACCESS:          0 HIT:          0 MISS:          0
cpu0_L2C PREFETCH     ACCESS:          0 HIT:          0 MISS:          0
cpu0_L2C WRITE        ACCESS:          0 HIT:          0 MISS:          0
cpu0_L2C TRANSLATION  ACCESS:          0 HIT:          0 MISS:          0
cpu0_L2C PREFETCH REQUESTED:          0 ISSUED:          0 USEFUL:          0 USELESS:          0
cpu0_L2C AVERAGE MISS LATENCY: 1774 cycles
cpu0_L2C TOTAL        ACCESS:          0 HIT:          0 MISS:          0
cpu0_L2C LOAD         ACCESS:          0 HIT:          0 MISS:          0
cpu0_L2C RFO          ACCESS:          0 HIT:          0 MISS:          0
cpu0_L2C PREFETCH     ACCESS:          0 HIT:          0 MISS:          0
cpu0_L2C WRITE        ACCESS:          0 HIT:          0 MISS:          0
cpu0_L2C TRANSLATION  ACCESS:          0 HIT:          0 MISS:          0
cpu0_L2C PREFETCH REQUESTED:          0 ISSUED:          0 USEFUL:          0 USELESS:          0
cpu0_L2C AVERAGE MISS LATENCY: 1774 cycles
cpu0_L2C TOTAL        ACCESS:          0 HIT:          0 MISS:          0
cpu0_L2C LOAD         ACCESS:          0 HIT:          0 MISS:          0
cpu0_L2C RFO          ACCESS:          0 HIT:          0 MISS:          0
cpu0_L2C PREFETCH     ACCESS:          0 HIT:          0 MISS:          0
cpu0_L2C WRITE        ACCESS:          0 HIT:          0 MISS:          0
cpu0_L2C TRANSLATION  ACCESS:          0 HIT:          0 MISS:          0
cpu0_L2C PREFETCH REQUESTED:          0 ISSUED:          0 USEFUL:          0 USELESS:          0
cpu0_L2C AVERAGE MISS LATENCY: 1774 cycles
cpu0_STLB TOTAL        ACCESS:        352 HIT:          7 MISS:        345
cpu0_STLB LOAD         ACCESS:        352 HIT:          7 MISS:        345
cpu0_STLB RFO          ACCESS:          0 HIT:          0 MISS:          0
cpu0_STLB PREFETCH     ACCESS:          0 HIT:          0 MISS:          0
cpu0_STLB WRITE        ACCESS:          0 HIT:          0 MISS:          0
cpu0_STLB TRANSLATION  ACCESS:          0 HIT:          0 MISS:          0
cpu0_STLB PREFETCH REQUESTED:          0 ISSUED:          0 USEFUL:          0 USELESS:          0
cpu0_STLB AVERAGE MISS LATENCY: 216 cycles
cpu0_STLB TOTAL        ACCESS:          0 HIT:          0 MISS:          0
cpu0_STLB LOAD         ACCESS:          0 HIT:          0 MISS:          0
cpu0_STLB RFO          ACCESS:          0 HIT:          0 MISS:          0
cpu0_STLB PREFETCH     ACCESS:          0 HIT:          0 MISS:          0
cpu0_STLB WRITE        ACCESS:          0 HIT:          0 MISS:          0
cpu0_STLB TRANSLATION  ACCESS:          0 HIT:          0 MISS:          0
cpu0_STLB PREFETCH REQUESTED:          0 ISSUED:          0 USEFUL:          0 USELESS:          0
cpu0_STLB AVERAGE MISS LATENCY: 216 cycles
cpu0_STLB TOTAL        ACCESS:          0 HIT:          0 MISS:          0
cpu0_STLB LOAD         ACCESS:          0 HIT:          0 MISS:          0
cpu0_STLB RFO          ACCESS:          0 HIT:          0 MISS:          0
cpu0_STLB PREFETCH     ACCESS:          0 HIT:          0 MISS:          0
cpu0_STLB WRITE        ACCESS:          0 HIT:          0 MISS:          0
cpu0_STLB TRANSLATION  ACCESS:          0 HIT:          0 MISS:          0
cpu0_STLB PREFETCH REQUESTED:          0 ISSUED:          0 USEFUL:          0 USELESS:          0
cpu0_STLB AVERAGE MISS LATENCY: 216 cycles
cpu0_STLB TOTAL        ACCESS:          0 HIT:          0 MISS:          0
cpu0_STLB LOAD         ACCESS:          0 HIT:          0 MISS:          0
cpu0_STLB RFO          ACCESS:          0 HIT:          0 MISS:          0
cpu0_STLB PREFETCH     ACCESS:          0 HIT:          0 MISS:          0
cpu0_STLB WRITE        ACCESS:          0 HIT:          0 MISS:          0
cpu0_STLB TRANSLATION  ACCESS:          0 HIT:          0 MISS:          0
cpu0_STLB PREFETCH REQUESTED:          0 ISSUED:          0 USEFUL:          0 USELESS:          0
cpu0_STLB AVERAGE MISS LATENCY: 216 cycles
cpu1_DTLB TOTAL        ACCESS:          0 HIT:          0 MISS:          0
cpu1_DTLB LOAD         ACCESS:          0 HIT:          0 MISS:          0
cpu1_DTLB RFO          ACCESS:          0 HIT:          0 MISS:          0
cpu1_DTLB PREFETCH     ACCESS:          0 HIT:          0 MISS:          0
cpu1_DTLB WRITE        ACCESS:          0 HIT:          0 MISS:          0
cpu1_DTLB TRANSLATION  ACCESS:          0 HIT:          0 MISS:          0
cpu1_DTLB PREFETCH REQUESTED:          0 ISSUED:          0 USEFUL:          0 USELESS:          0
cpu1_DTLB AVERAGE MISS LATENCY: 52.01 cycles
cpu1_DTLB TOTAL        ACCESS:   32319585 HIT:   32316196 MISS:       3389
cpu1_DTLB LOAD         ACCESS:   32319585 HIT:   32316196 MISS:       3389
cpu1_DTLB RFO          ACCESS:          0 HIT:          0 MISS:          0
cpu1_DTLB PREFETCH     ACCESS:          0 HIT:          0 MISS:          0
cpu1_DTLB WRITE        ACCESS:          0 HIT:          0 MISS:          0
cpu1_DTLB TRANSLATION  ACCESS:          0 HIT:          0 MISS:          0
cpu1_DTLB PREFETCH REQUESTED:          0 ISSUED:          0 USEFUL:          0 USELESS:          0
cpu1_DTLB AVERAGE MISS LATENCY: 52.01 cycles
cpu1_DTLB TOTAL        ACCESS:          0 HIT:          0 MISS:          0
cpu1_DTLB LOAD         ACCESS:          0 HIT:          0 MISS:          0
cpu1_DTLB RFO          ACCESS:          0 HIT:          0 MISS:          0
cpu1_DTLB PREFETCH     ACCESS:          0 HIT:          0 MISS:          0
cpu1_DTLB WRITE        ACCESS:          0 HIT:          0 MISS:          0
cpu1_DTLB TRANSLATION  ACCESS:          0 HIT:          0 MISS:          0
cpu1_DTLB PREFETCH REQUESTED:          0 ISSUED:          0 USEFUL:          0 USELESS:          0
cpu1_DTLB AVERAGE MISS LATENCY: 52.01 cycles
cpu1_DTLB TOTAL        ACCESS:          0 HIT:          0 MISS:          0
cpu1_DTLB LOAD         ACCESS:          0 HIT:          0 MISS:          0
cpu1_DTLB RFO          ACCESS:          0 HIT:          0 MISS:          0
cpu1_DTLB PREFETCH     ACCESS:          0 HIT:          0 MISS:          0
cpu1_DTLB WRITE        ACCESS:          0 HIT:          0 MISS:          0
cpu1_DTLB TRANSLATION  ACCESS:          0 HIT:          0 MISS:          0
cpu1_DTLB PREFETCH REQUESTED:          0 ISSUED:          0 USEFUL:          0 USELESS:          0
cpu1_DTLB AVERAGE MISS LATENCY: 52.01 cycles
cpu1_ITLB TOTAL        ACCESS:          0 HIT:          0 MISS:          0
cpu1_ITLB LOAD         ACCESS:          0 HIT:          0 MISS:          0
cpu1_ITLB RFO          ACCESS:          0 HIT:          0 MISS:          0
cpu1_ITLB PREFETCH     ACCESS:          0 HIT:          0 MISS:          0
cpu1_ITLB WRITE        ACCESS:          0 HIT:          0 MISS:          0
cpu1_ITLB TRANSLATION  ACCESS:          0 HIT:          0 MISS:          0
cpu1_ITLB PREFETCH REQUESTED:          0 ISSUED:          0 USEFUL:          0 USELESS:          0
cpu1_ITLB AVERAGE MISS LATENCY: -nan cycles
cpu1_ITLB TOTAL        ACCESS:    2541308 HIT:    2541308 MISS:          0
cpu1_ITLB LOAD         ACCESS:    2541308 HIT:    2541308 MISS:          0
cpu1_ITLB RFO          ACCESS:          0 HIT:          0 MISS:          0
cpu1_ITLB PREFETCH     ACCESS:          0 HIT:          0 MISS:          0
cpu1_ITLB WRITE        ACCESS:          0 HIT:          0 MISS:          0
cpu1_ITLB TRANSLATION  ACCESS:          0 HIT:          0 MISS:          0
cpu1_ITLB PREFETCH REQUESTED:          0 ISSUED:          0 USEFUL:          0 USELESS:          0
cpu1_ITLB AVERAGE MISS LATENCY: -nan cycles
cpu1_ITLB TOTAL        ACCESS:          0 HIT:          0 MISS:          0
cpu1_ITLB LOAD         ACCESS:          0 HIT:          0 MISS:          0
cpu1_ITLB RFO          ACCESS:          0 HIT:          0 MISS:          0
cpu1_ITLB PREFETCH     ACCESS:          0 HIT:          0 MISS:          0
cpu1_ITLB WRITE        ACCESS:          0 HIT:          0 MISS:          0
cpu1_ITLB TRANSLATION  ACCESS:          0 HIT:          0 MISS:          0
cpu1_ITLB PREFETCH REQUESTED:          0 ISSUED:          0 USEFUL:          0 USELESS:          0
cpu1_ITLB AVERAGE MISS LATENCY: -nan cycles
cpu1_ITLB TOTAL        ACCESS:          0 HIT:          0 MISS:          0
cpu1_ITLB LOAD         ACCESS:          0 HIT:          0 MISS:          0
cpu1_ITLB RFO          ACCESS:          0 HIT:          0 MISS:          0
cpu1_ITLB PREFETCH     ACCESS:          0 HIT:          0 MISS:          0
cpu1_ITLB WRITE        ACCESS:          0 HIT:          0 MISS:          0
cpu1_ITLB TRANSLATION  ACCESS:          0 HIT:          0 MISS:          0
cpu1_ITLB PREFETCH REQUESTED:          0 ISSUED:          0 USEFUL:          0 USELESS:          0
cpu1_ITLB AVERAGE MISS LATENCY: -nan cycles
cpu1_L1D TOTAL        ACCESS:          0 HIT:          0 MISS:          0
cpu1_L1D LOAD         ACCESS:          0 HIT:          0 MISS:          0
cpu1_L1D RFO          ACCESS:          0 HIT:          0 MISS:          0
cpu1_L1D PREFETCH     ACCESS:          0 HIT:          0 MISS:          0
cpu1_L1D WRITE        ACCESS:          0 HIT:          0 MISS:          0
cpu1_L1D TRANSLATION  ACCESS:          0 HIT:          0 MISS:          0
cpu1_L1D PREFETCH REQUESTED:    1373074 ISSUED:    1145530 USEFUL:      16436 USELESS:       4656
cpu1_L1D AVERAGE MISS LATENCY: 67.36 cycles
cpu1_L1D TOTAL        ACCESS:   45775928 HIT:   45529469 MISS:     246459
cpu1_L1D LOAD         ACCESS:   25479665 HIT:   25472382 MISS:       7283
cpu1_L1D RFO          ACCESS:          0 HIT:          0 MISS:          0
cpu1_L1D PREFETCH     ACCESS:    1145530 HIT:     966846 MISS:     178684
cpu1_L1D WRITE        ACCESS:   19149994 HIT:   19089639 MISS:      60355
cpu1_L1D TRANSLATION  ACCESS:        739 HIT:        602 MISS:        137
cpu1_L1D PREFETCH REQUESTED:    1373074 ISSUED:    1145530 USEFUL:      16436 USELESS:       4656
cpu1_L1D AVERAGE MISS LATENCY: 67.36 cycles
cpu1_L1D TOTAL        ACCESS:          0 HIT:          0 MISS:          0
cpu1_L1D LOAD         ACCESS:          0 HIT:          0 MISS:          0
cpu1_L1D RFO          ACCESS:          0 HIT:          0 MISS:          0
cpu1_L1D PREFETCH     ACCESS:          0 HIT:          0 MISS:          0
cpu1_L1D WRITE        ACCESS:          0 HIT:          0 MISS:          0
cpu1_L1D TRANSLATION  ACCESS:          0 HIT:          0 MISS:          0
cpu1_L1D PREFETCH REQUESTED:    1373074 ISSUED:    1145530 USEFUL:      16436 USELESS:       4656
cpu1_L1D AVERAGE MISS LATENCY: 67.36 cycles
cpu1_L1D TOTAL        ACCESS:          0 HIT:          0 MISS:          0
cpu1_L1D LOAD         ACCESS:          0 HIT:          0 MISS:          0
cpu1_L1D RFO          ACCESS:          0 HIT:          0 MISS:          0
cpu1_L1D PREFETCH     ACCESS:          0 HIT:          0 MISS:          0
cpu1_L1D WRITE        ACCESS:          0 HIT:          0 MISS:          0
cpu1_L1D TRANSLATION  ACCESS:          0 HIT:          0 MISS:          0
cpu1_L1D PREFETCH REQUESTED:    1373074 ISSUED:    1145530 USEFUL:      16436 USELESS:       4656
cpu1_L1D AVERAGE MISS LATENCY: 67.36 cycles
cpu1_L1I TOTAL        ACCESS:          0 HIT:          0 MISS:          0
cpu1_L1I LOAD         ACCESS:          0 HIT:          0 MISS:          0
cpu1_L1I RFO          ACCESS:          0 HIT:          0 MISS:          0
cpu1_L1I PREFETCH     ACCESS:          0 HIT:          0 MISS:          0
cpu1_L1I WRITE        ACCESS:          0 HIT:          0 MISS:          0
cpu1_L1I TRANSLATION  ACCESS:          0 HIT:          0 MISS:          0
cpu1_L1I PREFETCH REQUESTED:          0 ISSUED:          0 USEFUL:          0 USELESS:          0
cpu1_L1I AVERAGE MISS LATENCY: -nan cycles
cpu1_L1I TOTAL        ACCESS:    3086645 HIT:    3086645 MISS:          0
cpu1_L1I LOAD         ACCESS:    3086645 HIT:    3086645 MISS:          0
cpu1_L1I RFO          ACCESS:          0 HIT:          0 MISS:          0
cpu1_L1I PREFETCH     ACCESS:          0 HIT:          0 MISS:          0
cpu1_L1I WRITE        ACCESS:          0 HIT:          0 MISS:          0
cpu1_L1I TRANSLATION  ACCESS:          0 HIT:          0 MISS:          0
cpu1_L1I PREFETCH REQUESTED:          0 ISSUED:          0 USEFUL:          0 USELESS:          0
cpu1_L1I AVERAGE MISS LATENCY: -nan cycles
cpu1_L1I TOTAL        ACCESS:          0 HIT:          0 MISS:          0
cpu1_L1I LOAD         ACCESS:          0 HIT:          0 MISS:          0
cpu1_L1I RFO          ACCESS:          0 HIT:          0 MISS:          0
cpu1_L1I PREFETCH     ACCESS:          0 HIT:          0 MISS:          0
cpu1_L1I WRITE        ACCESS:          0 HIT:          0 MISS:          0
cpu1_L1I TRANSLATION  ACCESS:          0 HIT:          0 MISS:          0
cpu1_L1I PREFETCH REQUESTED:          0 ISSUED:          0 USEFUL:          0 USELESS:          0
cpu1_L1I AVERAGE MISS LATENCY: -nan cycles
cpu1_L1I TOTAL        ACCESS:          0 HIT:          0 MISS:          0
cpu1_L1I LOAD         ACCESS:          0 HIT:          0 MISS:          0
cpu1_L1I RFO          ACCESS:          0 HIT:          0 MISS:          0
cpu1_L1I PREFETCH     ACCESS:          0 HIT:          0 MISS:          0
cpu1_L1I WRITE        ACCESS:          0 HIT:          0 MISS:          0
cpu1_L1I TRANSLATION  ACCESS:          0 HIT:          0 MISS:          0
cpu1_L1I PREFETCH REQUESTED:          0 ISSUED:          0 USEFUL:          0 USELESS:          0
cpu1_L1I AVERAGE MISS LATENCY: -nan cycles
cpu1_L2C TOTAL        ACCESS:          0 HIT:          0 MISS:          0
cpu1_L2C LOAD         ACCESS:          0 HIT:          0 MISS:          0
cpu1_L2C RFO          ACCESS:          0 HIT:          0 MISS:          0
cpu1_L2C PREFETCH     ACCESS:          0 HIT:          0 MISS:          0
cpu1_L2C WRITE        ACCESS:          0 HIT:          0 MISS:          0
cpu1_L2C TRANSLATION  ACCESS:          0 HIT:          0 MISS:          0
cpu1_L2C PREFETCH REQUESTED:          0 ISSUED:          0 USEFUL:          0 USELESS:          0
cpu1_L2C AVERAGE MISS LATENCY: 369.7 cycles
cpu1_L2C TOTAL        ACCESS:     208985 HIT:     133892 MISS:      75093
cpu1_L2C LOAD         ACCESS:       3876 HIT:       1870 MISS:       2006
cpu1_L2C RFO          ACCESS:      13951 HIT:        724 MISS:      13227
cpu1_L2C PREFETCH     ACCESS:     177001 HIT:     117231 MISS:      59770
cpu1_L2C WRITE        ACCESS:      14020 HIT:      14013 MISS:          7
cpu1_L2C TRANSLATION  ACCESS:        137 HIT:         54 MISS:         83
cpu1_L2C PREFETCH REQUESTED:          0 ISSUED:          0 USEFUL:          0 USELESS:          0
cpu1_L2C AVERAGE MISS LATENCY: 369.7 cycles
cpu1_L2C TOTAL        ACCESS:          0 HIT:          0 MISS:          0
cpu1_L2C LOAD         ACCESS:          0 HIT:          0 MISS:          0
cpu1_L2C RFO          ACCESS:          0 HIT:          0 MISS:          0
cpu1_L2C PREFETCH     ACCESS:          0 HIT:          0 MISS:          0
cpu1_L2C WRITE        ACCESS:          0 HIT:          0 MISS:          0
cpu1_L2C TRANSLATION  ACCESS:          0 HIT:          0 MISS:          0
cpu1_L2C PREFETCH REQUESTED:          0 ISSUED:          0 USEFUL:          0 USELESS:          0
cpu1_L2C AVERAGE MISS LATENCY: 369.7 cycles
cpu1_L2C TOTAL        ACCESS:          0 HIT:          0 MISS:          0
cpu1_L2C LOAD         ACCESS:          0 HIT:          0 MISS:          0
cpu1_L2C RFO          ACCESS:          0 HIT:          0 MISS:          0
cpu1_L2C PREFETCH     ACCESS:          0 HIT:          0 MISS:          0
cpu1_L2C WRITE        ACCESS:          0 HIT:          0 MISS:          0
cpu1_L2C TRANSLATION  ACCESS:          0 HIT:          0 MISS:          0
cpu1_L2C PREFETCH REQUESTED:          0 ISSUED:          0 USEFUL:          0 USELESS:          0
cpu1_L2C AVERAGE MISS LATENCY: 369.7 cycles
cpu1_STLB TOTAL        ACCESS:          0 HIT:          0 MISS:          0
cpu1_STLB LOAD         ACCESS:          0 HIT:          0 MISS:          0
cpu1_STLB RFO          ACCESS:          0 HIT:          0 MISS:          0
cpu1_STLB PREFETCH     ACCESS:          0 HIT:          0 MISS:          0
cpu1_STLB WRITE        ACCESS:          0 HIT:          0 MISS:          0
cpu1_STLB TRANSLATION  ACCESS:          0 HIT:          0 MISS:          0
cpu1_STLB PREFETCH REQUESTED:          0 ISSUED:          0 USEFUL:          0 USELESS:          0
cpu1_STLB AVERAGE MISS LATENCY: 298.8 cycles
cpu1_STLB TOTAL        ACCESS:        805 HIT:         68 MISS:        737
cpu1_STLB LOAD         ACCESS:        805 HIT:         68 MISS:        737
cpu1_STLB RFO          ACCESS:          0 HIT:          0 MISS:          0
cpu1_STLB PREFETCH     ACCESS:          0 HIT:          0 MISS:          0
cpu1_STLB WRITE        ACCESS:          0 HIT:          0 MISS:          0
cpu1_STLB TRANSLATION  ACCESS:          0 HIT:          0 MISS:          0
cpu1_STLB PREFETCH REQUESTED:          0 ISSUED:          0 USEFUL:          0 USELESS:          0
cpu1_STLB AVERAGE MISS LATENCY: 298.8 cycles
cpu1_STLB TOTAL        ACCESS:          0 HIT:          0 MISS:          0
cpu1_STLB LOAD         ACCESS:          0 HIT:          0 MISS:          0
cpu1_STLB RFO          ACCESS:          0 HIT:          0 MISS:          0
cpu1_STLB PREFETCH     ACCESS:          0 HIT:          0 MISS:          0
cpu1_STLB WRITE        ACCESS:          0 HIT:          0 MISS:          0
cpu1_STLB TRANSLATION  ACCESS:          0 HIT:          0 MISS:          0
cpu1_STLB PREFETCH REQUESTED:          0 ISSUED:          0 USEFUL:          0 USELESS:          0
cpu1_STLB AVERAGE MISS LATENCY: 298.8 cycles
cpu1_STLB TOTAL        ACCESS:          0 HIT:          0 MISS:          0
cpu1_STLB LOAD         ACCESS:          0 HIT:          0 MISS:          0
cpu1_STLB RFO          ACCESS:          0 HIT:          0 MISS:          0
cpu1_STLB PREFETCH     ACCESS:          0 HIT:          0 MISS:          0
cpu1_STLB WRITE        ACCESS:          0 HIT:          0 MISS:          0
cpu1_STLB TRANSLATION  ACCESS:          0 HIT:          0 MISS:          0
cpu1_STLB PREFETCH REQUESTED:          0 ISSUED:          0 USEFUL:          0 USELESS:          0
cpu1_STLB AVERAGE MISS LATENCY: 298.8 cycles
cpu2_DTLB TOTAL        ACCESS:          0 HIT:          0 MISS:          0
cpu2_DTLB LOAD         ACCESS:          0 HIT:          0 MISS:          0
cpu2_DTLB RFO          ACCESS:          0 HIT:          0 MISS:          0
cpu2_DTLB PREFETCH     ACCESS:          0 HIT:          0 MISS:          0
cpu2_DTLB WRITE        ACCESS:          0 HIT:          0 MISS:          0
cpu2_DTLB TRANSLATION  ACCESS:          0 HIT:          0 MISS:          0
cpu2_DTLB PREFETCH REQUESTED:          0 ISSUED:          0 USEFUL:          0 USELESS:          0
cpu2_DTLB AVERAGE MISS LATENCY: 19.53 cycles
cpu2_DTLB TOTAL        ACCESS:          0 HIT:          0 MISS:          0
cpu2_DTLB LOAD         ACCESS:          0 HIT:          0 MISS:          0
cpu2_DTLB RFO          ACCESS:          0 HIT:          0 MISS:          0
cpu2_DTLB PREFETCH     ACCESS:          0 HIT:          0 MISS:          0
cpu2_DTLB WRITE        ACCESS:          0 HIT:          0 MISS:          0
cpu2_DTLB TRANSLATION  ACCESS:          0 HIT:          0 MISS:          0
cpu2_DTLB PREFETCH REQUESTED:          0 ISSUED:          0 USEFUL:          0 USELESS:          0
cpu2_DTLB AVERAGE MISS LATENCY: 19.53 cycles
cpu2_DTLB TOTAL        ACCESS:   16481118 HIT:   16331777 MISS:     149341
cpu2_DTLB LOAD         ACCESS:   16481118 HIT:   16331777 MISS:     149341
cpu2_DTLB RFO          ACCESS:          0 HIT:          0 MISS:          0
cpu2_DTLB PREFETCH     ACCESS:          0 HIT:          0 MISS:          0
cpu2_DTLB WRITE        ACCESS:          0 HIT:          0 MISS:          0
cpu2_DTLB TRANSLATION  ACCESS:          0 HIT:          0 MISS:          0
cpu2_DTLB PREFETCH REQUESTED:          0 ISSUED:          0 USEFUL:          0 USELESS:          0
cpu2_DTLB AVERAGE MISS LATENCY: 19.53 cycles
cpu2_DTLB TOTAL        ACCESS:          0 HIT:          0 MISS:          0
cpu2_DTLB LOAD         ACCESS:          0 HIT:          0 MISS:          0
cpu2_DTLB RFO          ACCESS:          0 HIT:          0 MISS:          0
cpu2_DTLB PREFETCH     ACCESS:          0 HIT:          0 MISS:          0
cpu2_DTLB WRITE        ACCESS:          0 HIT:          0 MISS:          0
cpu2_DTLB TRANSLATION  ACCESS:          0 HIT:          0 MISS:          0
cpu2_DTLB PREFETCH REQUESTED:          0 ISSUED:          0 USEFUL:          0 USELESS:          0
cpu2_DTLB AVERAGE MISS LATENCY: 19.53 cycles
cpu2_ITLB TOTAL        ACCESS:          0 HIT:          0 MISS:          0
cpu2_ITLB LOAD         ACCESS:          0 HIT:          0 MISS:          0
cpu2_ITLB RFO          ACCESS:          0 HIT:          0 MISS:          0
cpu2_ITLB PREFETCH     ACCESS:          0 HIT:          0 MISS:          0
cpu2_ITLB WRITE        ACCESS:          0 HIT:          0 MISS:          0
cpu2_ITLB TRANSLATION  ACCESS:          0 HIT:          0 MISS:          0
cpu2_ITLB PREFETCH REQUESTED:          0 ISSUED:          0 USEFUL:          0 USELESS:          0
cpu2_ITLB AVERAGE MISS LATENCY: -nan cycles
cpu2_ITLB TOTAL        ACCESS:          0 HIT:          0 MISS:          0
cpu2_ITLB LOAD         ACCESS:          0 HIT:          0 MISS:          0
cpu2_ITLB RFO          ACCESS:          0 HIT:          0 MISS:          0
cpu2_ITLB PREFETCH     ACCESS:          0 HIT:          0 MISS:          0
cpu2_ITLB WRITE        ACCESS:          0 HIT:          0 MISS:          0
cpu2_ITLB TRANSLATION  ACCESS:          0 HIT:          0 MISS:          0
cpu2_ITLB PREFETCH REQUESTED:          0 ISSUED:          0 USEFUL:          0 USELESS:          0
cpu2_ITLB AVERAGE MISS LATENCY: -nan cycles
cpu2_ITLB TOTAL        ACCESS:          0 HIT:          0 MISS:          0
cpu2_ITLB LOAD         ACCESS:          0 HIT:          0 MISS:          0
cpu2_ITLB RFO          ACCESS:          0 HIT:          0 MISS:          0
cpu2_ITLB PREFETCH     ACCESS:          0 HIT:          0 MISS:          0
cpu2_ITLB WRITE        ACCESS:          0 HIT:          0 MISS:          0
cpu2_ITLB TRANSLATION  ACCESS:          0 HIT:          0 MISS:          0
cpu2_ITLB PREFETCH REQUESTED:          0 ISSUED:          0 USEFUL:          0 USELESS:          0
cpu2_ITLB AVERAGE MISS LATENCY: -nan cycles
cpu2_ITLB TOTAL        ACCESS:          0 HIT:          0 MISS:          0
cpu2_ITLB LOAD         ACCESS:          0 HIT:          0 MISS:          0
cpu2_ITLB RFO          ACCESS:          0 HIT:          0 MISS:          0
cpu2_ITLB PREFETCH     ACCESS:          0 HIT:          0 MISS:          0
cpu2_ITLB WRITE        ACCESS:          0 HIT:          0 MISS:          0
cpu2_ITLB TRANSLATION  ACCESS:          0 HIT:          0 MISS:          0
cpu2_ITLB PREFETCH REQUESTED:          0 ISSUED:          0 USEFUL:          0 USELESS:          0
cpu2_ITLB AVERAGE MISS LATENCY: -nan cycles
cpu2_L1D TOTAL        ACCESS:          0 HIT:          0 MISS:          0
cpu2_L1D LOAD         ACCESS:          0 HIT:          0 MISS:          0
cpu2_L1D RFO          ACCESS:          0 HIT:          0 MISS:          0
cpu2_L1D PREFETCH     ACCESS:          0 HIT:          0 MISS:          0
cpu2_L1D WRITE        ACCESS:          0 HIT:          0 MISS:          0
cpu2_L1D TRANSLATION  ACCESS:          0 HIT:          0 MISS:          0
cpu2_L1D PREFETCH REQUESTED:   33896556 ISSUED:    6677201 USEFUL:    1309787 USELESS:     181185
cpu2_L1D AVERAGE MISS LATENCY: 88.33 cycles
cpu2_L1D TOTAL        ACCESS:          0 HIT:          0 MISS:          0
cpu2_L1D LOAD         ACCESS:          0 HIT:          0 MISS:          0
cpu2_L1D RFO          ACCESS:          0 HIT:          0 MISS:          0
cpu2_L1D PREFETCH     ACCESS:          0 HIT:          0 MISS:          0
cpu2_L1D WRITE        ACCESS:          0 HIT:          0 MISS:          0
cpu2_L1D TRANSLATION  ACCESS:          0 HIT:          0 MISS:          0
cpu2_L1D PREFETCH REQUESTED:   33896556 ISSUED:    6677201 USEFUL:    1309787 USELESS:     181185
cpu2_L1D AVERAGE MISS LATENCY: 88.33 cycles
cpu2_L1D TOTAL        ACCESS:   31012204 HIT:   26603277 MISS:    4408927
cpu2_L1D LOAD         ACCESS:   13783511 HIT:   12334360 MISS:    1449151
cpu2_L1D RFO          ACCESS:          0 HIT:          0 MISS:          0
cpu2_L1D PREFETCH     ACCESS:    6677201 HIT:    3725954 MISS:    2951247
cpu2_L1D WRITE        ACCESS:   10530830 HIT:   10523116 MISS:       7714
cpu2_L1D TRANSLATION  ACCESS:      20662 HIT:      19847 MISS:        815
cpu2_L1D PREFETCH REQUESTED:   33896556 ISSUED:    6677201 USEFUL:    1309787 USELESS:     181185
cpu2_L1D AVERAGE MISS LATENCY: 88.33 cycles
cpu2_L1D TOTAL        ACCESS:          0 HIT:          0 MISS:          0
cpu2_L1D LOAD         ACCESS:          0 HIT:          0 MISS:          0
cpu2_L1D RFO          ACCESS:          0 HIT:          0 MISS:          0
cpu2_L1D PREFETCH     ACCESS:          0 HIT:          0 MISS:          0
cpu2_L1D WRITE        ACCESS:          0 HIT:          0 MISS:          0
cpu2_L1D TRANSLATION  ACCESS:          0 HIT:          0 MISS:          0
cpu2_L1D PREFETCH REQUESTED:   33896556 ISSUED:    6677201 USEFUL:    1309787 USELESS:     181185
cpu2_L1D AVERAGE MISS LATENCY: 88.33 cycles
cpu2_L1I TOTAL        ACCESS:          0 HIT:          0 MISS:          0
cpu2_L1I LOAD         ACCESS:          0 HIT:          0 MISS:          0
cpu2_L1I RFO          ACCESS:          0 HIT:          0 MISS:          0
cpu2_L1I PREFETCH     ACCESS:          0 HIT:          0 MISS:          0
cpu2_L1I WRITE        ACCESS:          0 HIT:          0 MISS:          0
cpu2_L1I TRANSLATION  ACCESS:          0 HIT:          0 MISS:          0
cpu2_L1I PREFETCH REQUESTED:          0 ISSUED:          0 USEFUL:          0 USELESS:          0
cpu2_L1I AVERAGE MISS LATENCY: -nan cycles
cpu2_L1I TOTAL        ACCESS:          0 HIT:          0 MISS:          0
cpu2_L1I LOAD         ACCESS:          0 HIT:          0 MISS:          0
cpu2_L1I RFO          ACCESS:          0 HIT:          0 MISS:          0
cpu2_L1I PREFETCH     ACCESS:          0 HIT:          0 MISS:          0
cpu2_L1I WRITE        ACCESS:          0 HIT:          0 MISS:          0
cpu2_L1I TRANSLATION  ACCESS:          0 HIT:          0 MISS:          0
cpu2_L1I PREFETCH REQUESTED:          0 ISSUED:          0 USEFUL:          0 USELESS:          0
cpu2_L1I AVERAGE MISS LATENCY: -nan cycles
cpu2_L1I TOTAL        ACCESS:          0 HIT:          0 MISS:          0
cpu2_L1I LOAD         ACCESS:          0 HIT:          0 MISS:          0
cpu2_L1I RFO          ACCESS:          0 HIT:          0 MISS:          0
cpu2_L1I PREFETCH     ACCESS:          0 HIT:          0 MISS:          0
cpu2_L1I WRITE        ACCESS:          0 HIT:          0 MISS:          0
cpu2_L1I TRANSLATION  ACCESS:          0 HIT:          0 MISS:          0
cpu2_L1I PREFETCH REQUESTED:          0 ISSUED:          0 USEFUL:          0 USELESS:          0
cpu2_L1I AVERAGE MISS LATENCY: -nan cycles
cpu2_L1I TOTAL        ACCESS:          0 HIT:          0 MISS:          0
cpu2_L1I LOAD         ACCESS:          0 HIT:          0 MISS:          0
cpu2_L1I RFO          ACCESS:          0 HIT:          0 MISS:          0
cpu2_L1I PREFETCH     ACCESS:          0 HIT:          0 MISS:          0
cpu2_L1I WRITE        ACCESS:          0 HIT:          0 MISS:          0
cpu2_L1I TRANSLATION  ACCESS:          0 HIT:          0 MISS:          0
cpu2_L1I PREFETCH REQUESTED:          0 ISSUED:          0 USEFUL:          0 USELESS:          0
cpu2_L1I AVERAGE MISS LATENCY: -nan cycles
cpu2_L2C TOTAL        ACCESS:          0 HIT:          0 MISS:          0
cpu2_L2C LOAD         ACCESS:          0 HIT:          0 MISS:          0
cpu2_L2C RFO          ACCESS:          0 HIT:          0 MISS:          0
cpu2_L2C PREFETCH     ACCESS:          0 HIT:          0 MISS:          0
cpu2_L2C WRITE        ACCESS:          0 HIT:          0 MISS:          0
cpu2_L2C TRANSLATION  ACCESS:          0 HIT:          0 MISS:          0
cpu2_L2C PREFETCH REQUESTED:          0 ISSUED:          0 USEFUL:          0 USELESS:          0
cpu2_L2C AVERAGE MISS LATENCY: 278.4 cycles
cpu2_L2C TOTAL        ACCESS:          0 HIT:          0 MISS:          0
cpu2_L2C LOAD         ACCESS:          0 HIT:          0 MISS:          0
cpu2_L2C RFO          ACCESS:          0 HIT:          0 MISS:          0
cpu2_L2C PREFETCH     ACCESS:          0 HIT:          0 MISS:          0
cpu2_L2C WRITE        ACCESS:          0 HIT:          0 MISS:          0
cpu2_L2C TRANSLATION  ACCESS:          0 HIT:          0 MISS:          0
cpu2_L2C PREFETCH REQUESTED:          0 ISSUED:          0 USEFUL:          0 USELESS:          0
cpu2_L2C AVERAGE MISS LATENCY: 278.4 cycles
cpu2_L2C TOTAL        ACCESS:    4813134 HIT:    2772356 MISS:    2040778
cpu2_L2C LOAD         ACCESS:     672984 HIT:     276666 MISS:     396318
cpu2_L2C RFO          ACCESS:       2303 HIT:       1743 MISS:        560
cpu2_L2C PREFETCH     ACCESS:    2819254 HIT:    1175881 MISS:    1643373
cpu2_L2C WRITE        ACCESS:    1317782 HIT:    1317782 MISS:          0
cpu2_L2C TRANSLATION  ACCESS:        811 HIT:        284 MISS:        527
cpu2_L2C PREFETCH REQUESTED:          0 ISSUED:          0 USEFUL:          0 USELESS:          0
cpu2_L2C AVERAGE MISS LATENCY: 278.4 cycles
cpu2_L2C TOTAL        ACCESS:          0 HIT:          0 MISS:          0
cpu2_L2C LOAD         ACCESS:          0 HIT:          0 MISS:          0
cpu2_L2C RFO          ACCESS:          0 HIT:          0 MISS:          0
cpu2_L2C PREFETCH     ACCESS:          0 HIT:          0 MISS:          0
cpu2_L2C WRITE        ACCESS:          0 HIT:          0 MISS:          0
cpu2_L2C TRANSLATION  ACCESS:          0 HIT:          0 MISS:          0
cpu2_L2C PREFETCH REQUESTED:          0 ISSUED:          0 USEFUL:          0 USELESS:          0
cpu2_L2C AVERAGE MISS LATENCY: 278.4 cycles
cpu2_STLB TOTAL        ACCESS:          0 HIT:          0 MISS:          0
cpu2_STLB LOAD         ACCESS:          0 HIT:          0 MISS:          0
cpu2_STLB RFO          ACCESS:          0 HIT:          0 MISS:          0
cpu2_STLB PREFETCH     ACCESS:          0 HIT:          0 MISS:          0
cpu2_STLB WRITE        ACCESS:          0 HIT:          0 MISS:          0
cpu2_STLB TRANSLATION  ACCESS:          0 HIT:          0 MISS:          0
cpu2_STLB PREFETCH REQUESTED:          0 ISSUED:          0 USEFUL:          0 USELESS:          0
cpu2_STLB AVERAGE MISS LATENCY: 209.6 cycles
cpu2_STLB TOTAL        ACCESS:          0 HIT:          0 MISS:          0
cpu2_STLB LOAD         ACCESS:          0 HIT:          0 MISS:          0
cpu2_STLB RFO          ACCESS:          0 HIT:          0 MISS:          0
cpu2_STLB PREFETCH     ACCESS:          0 HIT:          0 MISS:          0
cpu2_STLB WRITE        ACCESS:          0 HIT:          0 MISS:          0
cpu2_STLB TRANSLATION  ACCESS:          0 HIT:          0 MISS:          0
cpu2_STLB PREFETCH REQUESTED:          0 ISSUED:          0 USEFUL:          0 USELESS:          0
cpu2_STLB AVERAGE MISS LATENCY: 209.6 cycles
cpu2_STLB TOTAL        ACCESS:      35120 HIT:      14536 MISS:      20584
cpu2_STLB LOAD         ACCESS:      35120 HIT:      14536 MISS:      20584
cpu2_STLB RFO          ACCESS:          0 HIT:          0 MISS:          0
cpu2_STLB PREFETCH     ACCESS:          0 HIT:          0 MISS:          0
cpu2_STLB WRITE        ACCESS:          0 HIT:          0 MISS:          0
cpu2_STLB TRANSLATION  ACCESS:          0 HIT:          0 MISS:          0
cpu2_STLB PREFETCH REQUESTED:          0 ISSUED:          0 USEFUL:          0 USELESS:          0
cpu2_STLB AVERAGE MISS LATENCY: 209.6 cycles
cpu2_STLB TOTAL        ACCESS:          0 HIT:          0 MISS:          0
cpu2_STLB LOAD         ACCESS:          0 HIT:          0 MISS:          0
cpu2_STLB RFO          ACCESS:          0 HIT:          0 MISS:          0
cpu2_STLB PREFETCH     ACCESS:          0 HIT:          0 MISS:          0
cpu2_STLB WRITE        ACCESS:          0 HIT:          0 MISS:          0
cpu2_STLB TRANSLATION  ACCESS:          0 HIT:          0 MISS:          0
cpu2_STLB PREFETCH REQUESTED:          0 ISSUED:          0 USEFUL:          0 USELESS:          0
cpu2_STLB AVERAGE MISS LATENCY: 209.6 cycles
cpu3_DTLB TOTAL        ACCESS:          0 HIT:          0 MISS:          0
cpu3_DTLB LOAD         ACCESS:          0 HIT:          0 MISS:          0
cpu3_DTLB RFO          ACCESS:          0 HIT:          0 MISS:          0
cpu3_DTLB PREFETCH     ACCESS:          0 HIT:          0 MISS:          0
cpu3_DTLB WRITE        ACCESS:          0 HIT:          0 MISS:          0
cpu3_DTLB TRANSLATION  ACCESS:          0 HIT:          0 MISS:          0
cpu3_DTLB PREFETCH REQUESTED:          0 ISSUED:          0 USEFUL:          0 USELESS:          0
cpu3_DTLB AVERAGE MISS LATENCY: 13.31 cycles
cpu3_DTLB TOTAL        ACCESS:          0 HIT:          0 MISS:          0
cpu3_DTLB LOAD         ACCESS:          0 HIT:          0 MISS:          0
cpu3_DTLB RFO          ACCESS:          0 HIT:          0 MISS:          0
cpu3_DTLB PREFETCH     ACCESS:          0 HIT:          0 MISS:          0
cpu3_DTLB WRITE        ACCESS:          0 HIT:          0 MISS:          0
cpu3_DTLB TRANSLATION  ACCESS:          0 HIT:          0 MISS:          0
cpu3_DTLB PREFETCH REQUESTED:          0 ISSUED:          0 USEFUL:          0 USELESS:          0
cpu3_DTLB AVERAGE MISS LATENCY: 13.31 cycles
cpu3_DTLB TOTAL        ACCESS:          0 HIT:          0 MISS:          0
cpu3_DTLB LOAD         ACCESS:          0 HIT:          0 MISS:          0
cpu3_DTLB RFO          ACCESS:          0 HIT:          0 MISS:          0
cpu3_DTLB PREFETCH     ACCESS:          0 HIT:          0 MISS:          0
cpu3_DTLB WRITE        ACCESS:          0 HIT:          0 MISS:          0
cpu3_DTLB TRANSLATION  ACCESS:          0 HIT:          0 MISS:          0
cpu3_DTLB PREFETCH REQUESTED:          0 ISSUED:          0 USEFUL:          0 USELESS:          0
cpu3_DTLB AVERAGE MISS LATENCY: 13.31 cycles
cpu3_DTLB TOTAL        ACCESS:   23054950 HIT:   22850848 MISS:     204102
cpu3_DTLB LOAD         ACCESS:   23054950 HIT:   22850848 MISS:     204102
cpu3_DTLB RFO          ACCESS:          0 HIT:          0 MISS:          0
cpu3_DTLB PREFETCH     ACCESS:          0 HIT:          0 MISS:          0
cpu3_DTLB WRITE        ACCESS:          0 HIT:          0 MISS:          0
cpu3_DTLB TRANSLATION  ACCESS:          0 HIT:          0 MISS:          0
cpu3_DTLB PREFETCH REQUESTED:          0 ISSUED:          0 USEFUL:          0 USELESS:          0
cpu3_DTLB AVERAGE MISS LATENCY: 13.31 cycles
cpu3_ITLB TOTAL        ACCESS:          0 HIT:          0 MISS:          0
cpu3_ITLB LOAD         ACCESS:          0 HIT:          0 MISS:          0
cpu3_ITLB RFO          ACCESS:          0 HIT:          0 MISS:          0
cpu3_ITLB PREFETCH     ACCESS:          0 HIT:          0 MISS:          0
cpu3_ITLB WRITE        ACCESS:          0 HIT:          0 MISS:          0
cpu3_ITLB TRANSLATION  ACCESS:          0 HIT:          0 MISS:          0
cpu3_ITLB PREFETCH REQUESTED:          0 ISSUED:          0 USEFUL:          0 USELESS:          0
cpu3_ITLB AVERAGE MISS LATENCY: 10.44 cycles
cpu3_ITLB TOTAL        ACCESS:          0 HIT:          0 MISS:          0
cpu3_ITLB LOAD         ACCESS:          0 HIT:          0 MISS:          0
cpu3_ITLB RFO          ACCESS:          0 HIT:          0 MISS:          0
cpu3_ITLB PREFETCH     ACCESS:          0 HIT:          0 MISS:          0
cpu3_ITLB WRITE        ACCESS:          0 HIT:          0 MISS:          0
cpu3_ITLB TRANSLATION  ACCESS:          0 HIT:          0 MISS:          0
cpu3_ITLB PREFETCH REQUESTED:          0 ISSUED:          0 USEFUL:          0 USELESS:          0
cpu3_ITLB AVERAGE MISS LATENCY: 10.44 cycles
cpu3_ITLB TOTAL        ACCESS:          0 HIT:          0 MISS:          0
cpu3_ITLB LOAD         ACCESS:          0 HIT:          0 MISS:          0
cpu3_ITLB RFO          ACCESS:          0 HIT:          0 MISS:          0
cpu3_ITLB PREFETCH     ACCESS:          0 HIT:          0 MISS:          0
cpu3_ITLB WRITE        ACCESS:          0 HIT:          0 MISS:          0
cpu3_ITLB TRANSLATION  ACCESS:          0 HIT:          0 MISS:          0
cpu3_ITLB PREFETCH REQUESTED:          0 ISSUED:          0 USEFUL:          0 USELESS:          0
cpu3_ITLB AVERAGE MISS LATENCY: 10.44 cycles
cpu3_ITLB TOTAL        ACCESS:     340616 HIT:     332701 MISS:       7915
cpu3_ITLB LOAD         ACCESS:     340616 HIT:     332701 MISS:       7915
cpu3_ITLB RFO          ACCESS:          0 HIT:          0 MISS:          0
cpu3_ITLB PREFETCH     ACCESS:          0 HIT:          0 MISS:          0
cpu3_ITLB WRITE        ACCESS:          0 HIT:          0 MISS:          0
cpu3_ITLB TRANSLATION  ACCESS:          0 HIT:          0 MISS:          0
cpu3_ITLB PREFETCH REQUESTED:          0 ISSUED:          0 USEFUL:          0 USELESS:          0
cpu3_ITLB AVERAGE MISS LATENCY: 10.44 cycles
cpu3_L1D TOTAL        ACCESS:          0 HIT:          0 MISS:          0
cpu3_L1D LOAD         ACCESS:          0 HIT:          0 MISS:          0
cpu3_L1D RFO          ACCESS:          0 HIT:          0 MISS:          0
cpu3_L1D PREFETCH     ACCESS:          0 HIT:          0 MISS:          0
cpu3_L1D WRITE        ACCESS:          0 HIT:          0 MISS:          0
cpu3_L1D TRANSLATION  ACCESS:          0 HIT:          0 MISS:          0
cpu3_L1D PREFETCH REQUESTED:   39676541 ISSUED:    5723072 USEFUL:     351796 USELESS:     162708
cpu3_L1D AVERAGE MISS LATENCY: 63.22 cycles
cpu3_L1D TOTAL        ACCESS:          0 HIT:          0 MISS:          0
cpu3_L1D LOAD         ACCESS:          0 HIT:          0 MISS:          0
cpu3_L1D RFO          ACCESS:          0 HIT:          0 MISS:          0
cpu3_L1D PREFETCH     ACCESS:          0 HIT:          0 MISS:          0
cpu3_L1D WRITE        ACCESS:          0 HIT:          0 MISS:          0
cpu3_L1D TRANSLATION  ACCESS:          0 HIT:          0 MISS:          0
cpu3_L1D PREFETCH REQUESTED:   39676541 ISSUED:    5723072 USEFUL:     351796 USELESS:     162708
cpu3_L1D AVERAGE MISS LATENCY: 63.22 cycles
cpu3_L1D TOTAL        ACCESS:          0 HIT:          0 MISS:          0
cpu3_L1D LOAD         ACCESS:          0 HIT:          0 MISS:          0
cpu3_L1D RFO          ACCESS:          0 HIT:          0 MISS:          0
cpu3_L1D PREFETCH     ACCESS:          0 HIT:          0 MISS:          0
cpu3_L1D WRITE        ACCESS:          0 HIT:          0 MISS:          0
cpu3_L1D TRANSLATION  ACCESS:          0 HIT:          0 MISS:          0
cpu3_L1D PREFETCH REQUESTED:   39676541 ISSUED:    5723072 USEFUL:     351796 USELESS:     162708
cpu3_L1D AVERAGE MISS LATENCY: 63.22 cycles
cpu3_L1D TOTAL        ACCESS:   33775291 HIT:   26698563 MISS:    7076728
cpu3_L1D LOAD         ACCESS:   16918085 HIT:   14937330 MISS:    1980755
cpu3_L1D RFO          ACCESS:          0 HIT:          0 MISS:          0
cpu3_L1D PREFETCH     ACCESS:    5723104 HIT:    4011272 MISS:    1711832
cpu3_L1D WRITE        ACCESS:   11124621 HIT:    7747755 MISS:    3376866
cpu3_L1D TRANSLATION  ACCESS:       9481 HIT:       2206 MISS:       7275
cpu3_L1D PREFETCH REQUESTED:   39676541 ISSUED:    5723072 USEFUL:     351796 USELESS:     162708
cpu3_L1D AVERAGE MISS LATENCY: 63.22 cycles
cpu3_L1I TOTAL        ACCESS:          0 HIT:          0 MISS:          0
cpu3_L1I LOAD         ACCESS:          0 HIT:          0 MISS:          0
cpu3_L1I RFO          ACCESS:          0 HIT:          0 MISS:          0
cpu3_L1I PREFETCH     ACCESS:          0 HIT:          0 MISS:          0
cpu3_L1I WRITE        ACCESS:          0 HIT:          0 MISS:          0
cpu3_L1I TRANSLATION  ACCESS:          0 HIT:          0 MISS:          0
cpu3_L1I PREFETCH REQUESTED:          0 ISSUED:          0 USEFUL:          0 USELESS:          0
cpu3_L1I AVERAGE MISS LATENCY: 32.27 cycles
cpu3_L1I TOTAL        ACCESS:          0 HIT:          0 MISS:          0
cpu3_L1I LOAD         ACCESS:          0 HIT:          0 MISS:          0
cpu3_L1I RFO          ACCESS:          0 HIT:          0 MISS:          0
cpu3_L1I PREFETCH     ACCESS:          0 HIT:          0 MISS:          0
cpu3_L1I WRITE        ACCESS:          0 HIT:          0 MISS:          0
cpu3_L1I TRANSLATION  ACCESS:          0 HIT:          0 MISS:          0
cpu3_L1I PREFETCH REQUESTED:          0 ISSUED:          0 USEFUL:          0 USELESS:          0
cpu3_L1I AVERAGE MISS LATENCY: 32.27 cycles
cpu3_L1I TOTAL        ACCESS:          0 HIT:          0 MISS:          0
cpu3_L1I LOAD         ACCESS:          0 HIT:          0 MISS:          0
cpu3_L1I RFO          ACCESS:          0 HIT:          0 MISS:          0
cpu3_L1I PREFETCH     ACCESS:          0 HIT:          0 MISS:          0
cpu3_L1I WRITE        ACCESS:          0 HIT:          0 MISS:          0
cpu3_L1I TRANSLATION  ACCESS:          0 HIT:          0 MISS:          0
cpu3_L1I PREFETCH REQUESTED:          0 ISSUED:          0 USEFUL:          0 USELESS:          0
cpu3_L1I AVERAGE MISS LATENCY: 32.27 cycles
cpu3_L1I TOTAL        ACCESS:     423912 HIT:     289538 MISS:     134374
cpu3_L1I LOAD         ACCESS:     423912 HIT:     289538 MISS:     134374
cpu3_L1I RFO          ACCESS:          0 HIT:          0 MISS:          0
cpu3_L1I PREFETCH     ACCESS:          0 HIT:          0 MISS:          0
cpu3_L1I WRITE        ACCESS:          0 HIT:          0 MISS:          0
cpu3_L1I TRANSLATION  ACCESS:          0 HIT:          0 MISS:          0
cpu3_L1I PREFETCH REQUESTED:          0 ISSUED:          0 USEFUL:          0 USELESS:          0
cpu3_L1I AVERAGE MISS LATENCY: 32.27 cycles
cpu3_L2C TOTAL        ACCESS:          0 HIT:          0 MISS:          0
cpu3_L2C LOAD         ACCESS:          0 HIT:          0 MISS:          0
cpu3_L2C RFO          ACCESS:          0 HIT:          0 MISS:          0
cpu3_L2C PREFETCH     ACCESS:          0 HIT:          0 MISS:          0
cpu3_L2C WRITE        ACCESS:          0 HIT:          0 MISS:          0
cpu3_L2C TRANSLATION  ACCESS:          0 HIT:          0 MISS:          0
cpu3_L2C PREFETCH REQUESTED:          0 ISSUED:          0 USEFUL:          0 USELESS:          0
cpu3_L2C AVERAGE MISS LATENCY: 344.7 cycles
cpu3_L2C TOTAL        ACCESS:          0 HIT:          0 MISS:          0
cpu3_L2C LOAD         ACCESS:          0 HIT:          0 MISS:          0
cpu3_L2C RFO          ACCESS:          0 HIT:          0 MISS:          0
cpu3_L2C PREFETCH     ACCESS:          0 HIT:          0 MISS:          0
cpu3_L2C WRITE        ACCESS:          0 HIT:          0 MISS:          0
cpu3_L2C TRANSLATION  ACCESS:          0 HIT:          0 MISS:          0
cpu3_L2C PREFETCH REQUESTED:          0 ISSUED:          0 USEFUL:          0 USELESS:          0
cpu3_L2C AVERAGE MISS LATENCY: 344.7 cycles
cpu3_L2C TOTAL        ACCESS:          0 HIT:          0 MISS:          0
cpu3_L2C LOAD         ACCESS:          0 HIT:          0 MISS:          0
cpu3_L2C RFO          ACCESS:          0 HIT:          0 MISS:          0
cpu3_L2C PREFETCH     ACCESS:          0 HIT:          0 MISS:          0
cpu3_L2C WRITE        ACCESS:          0 HIT:          0 MISS:          0
cpu3_L2C TRANSLATION  ACCESS:          0 HIT:          0 MISS:          0
cpu3_L2C PREFETCH REQUESTED:          0 ISSUED:          0 USEFUL:          0 USELESS:          0
cpu3_L2C AVERAGE MISS LATENCY: 344.7 cycles
cpu3_L2C TOTAL        ACCESS:    4886216 HIT:    3314062 MISS:    1572154
cpu3_L2C LOAD         ACCESS:    1290602 HIT:     824710 MISS:     465892
cpu3_L2C RFO          ACCESS:     843315 HIT:     495104 MISS:     348211
cpu3_L2C PREFETCH     ACCESS:    1629249 HIT:     876671 MISS:     752578
cpu3_L2C WRITE        ACCESS:    1115890 HIT:    1115210 MISS:        680
cpu3_L2C TRANSLATION  ACCESS:       7160 HIT:       2367 MISS:       4793
cpu3_L2C PREFETCH REQUESTED:          0 ISSUED:          0 USEFUL:          0 USELESS:          0
cpu3_L2C AVERAGE MISS LATENCY: 344.7 cycles
cpu3_STLB TOTAL        ACCESS:          0 HIT:          0 MISS:          0
cpu3_STLB LOAD         ACCESS:          0 HIT:          0 MISS:          0
cpu3_STLB RFO          ACCESS:          0 HIT:          0 MISS:          0
cpu3_STLB PREFETCH     ACCESS:          0 HIT:          0 MISS:          0
cpu3_STLB WRITE        ACCESS:          0 HIT:          0 MISS:          0
cpu3_STLB TRANSLATION  ACCESS:          0 HIT:          0 MISS:          0
cpu3_STLB PREFETCH REQUESTED:          0 ISSUED:          0 USEFUL:          0 USELESS:          0
cpu3_STLB AVERAGE MISS LATENCY: 401.9 cycles
cpu3_STLB TOTAL        ACCESS:          0 HIT:          0 MISS:          0
cpu3_STLB LOAD         ACCESS:          0 HIT:          0 MISS:          0
cpu3_STLB RFO          ACCESS:          0 HIT:          0 MISS:          0
cpu3_STLB PREFETCH     ACCESS:          0 HIT:          0 MISS:          0
cpu3_STLB WRITE        ACCESS:          0 HIT:          0 MISS:          0
cpu3_STLB TRANSLATION  ACCESS:          0 HIT:          0 MISS:          0
cpu3_STLB PREFETCH REQUESTED:          0 ISSUED:          0 USEFUL:          0 USELESS:          0
cpu3_STLB AVERAGE MISS LATENCY: 401.9 cycles
cpu3_STLB TOTAL        ACCESS:          0 HIT:          0 MISS:          0
cpu3_STLB LOAD         ACCESS:          0 HIT:          0 MISS:          0
cpu3_STLB RFO          ACCESS:          0 HIT:          0 MISS:          0
cpu3_STLB PREFETCH     ACCESS:          0 HIT:          0 MISS:          0
cpu3_STLB WRITE        ACCESS:          0 HIT:          0 MISS:          0
cpu3_STLB TRANSLATION  ACCESS:          0 HIT:          0 MISS:          0
cpu3_STLB PREFETCH REQUESTED:          0 ISSUED:          0 USEFUL:          0 USELESS:          0
cpu3_STLB AVERAGE MISS LATENCY: 401.9 cycles
cpu3_STLB TOTAL        ACCESS:      79255 HIT:      71106 MISS:       8149
cpu3_STLB LOAD         ACCESS:      79255 HIT:      71106 MISS:       8149
cpu3_STLB RFO          ACCESS:          0 HIT:          0 MISS:          0
cpu3_STLB PREFETCH     ACCESS:          0 HIT:          0 MISS:          0
cpu3_STLB WRITE        ACCESS:          0 HIT:          0 MISS:          0
cpu3_STLB TRANSLATION  ACCESS:          0 HIT:          0 MISS:          0
cpu3_STLB PREFETCH REQUESTED:          0 ISSUED:          0 USEFUL:          0 USELESS:          0
cpu3_STLB AVERAGE MISS LATENCY: 401.9 cycles

Region of Interest Statistics

CPU 0 cumulative IPC: 2.296 instructions: 150000000 cycles: 65318798
CPU 0 Branch Prediction Accuracy: 90.1% MPKI: 14.48 Average ROB Occupancy at Mispredict: 30.47
Branch type MPKI
BRANCH_DIRECT_JUMP: 0.0605
BRANCH_INDIRECT: 0
BRANCH_CONDITIONAL: 14.4
BRANCH_DIRECT_CALL: 0
BRANCH_INDIRECT_CALL: 0
BRANCH_RETURN: 0.0674


CPU 1 cumulative IPC: 2.942 instructions: 150000004 cycles: 50982869
CPU 1 Branch Prediction Accuracy: 95.09% MPKI: 8.062 Average ROB Occupancy at Mispredict: 88.3
Branch type MPKI
BRANCH_DIRECT_JUMP: 0.154
BRANCH_INDIRECT: 0
BRANCH_CONDITIONAL: 6.67
BRANCH_DIRECT_CALL: 0
BRANCH_INDIRECT_CALL: 0
BRANCH_RETURN: 1.24


CPU 2 cumulative IPC: 1.67 instructions: 150000000 cycles: 89842602
CPU 2 Branch Prediction Accuracy: 99.98% MPKI: 0.00438 Average ROB Occupancy at Mispredict: 352
Branch type MPKI
BRANCH_DIRECT_JUMP: 0
BRANCH_INDIRECT: 0
BRANCH_CONDITIONAL: 0.00438
BRANCH_DIRECT_CALL: 0
BRANCH_INDIRECT_CALL: 0
BRANCH_RETURN: 0


CPU 3 cumulative IPC: 1.911 instructions: 150000001 cycles: 78499674
CPU 3 Branch Prediction Accuracy: 97.85% MPKI: 3.55 Average ROB Occupancy at Mispredict: 100.2
Branch type MPKI
BRANCH_DIRECT_JUMP: 0.0257
BRANCH_INDIRECT: 0.00066
BRANCH_CONDITIONAL: 3.48
BRANCH_DIRECT_CALL: 0.00185
BRANCH_INDIRECT_CALL: 0
BRANCH_RETURN: 0.0405

LLC TOTAL        ACCESS:      24209 HIT:       1207 MISS:      23002
LLC LOAD         ACCESS:        174 HIT:         22 MISS:        152
LLC RFO          ACCESS:      10563 HIT:        621 MISS:       9942
LLC PREFETCH     ACCESS:       2726 HIT:        562 MISS:       2164
LLC WRITE        ACCESS:      10744 HIT:          1 MISS:      10743
LLC TRANSLATION  ACCESS:          2 HIT:          1 MISS:          1
LLC PREFETCH REQUESTED:          0 ISSUED:          0 USEFUL:          0 USELESS:          0
LLC AVERAGE MISS LATENCY: 558.5 cycles
LLC TOTAL        ACCESS:      35298 HIT:       4321 MISS:      30977
LLC LOAD         ACCESS:       1080 HIT:         71 MISS:       1009
LLC RFO          ACCESS:       8781 HIT:       1062 MISS:       7719
LLC PREFETCH     ACCESS:      16360 HIT:       2700 MISS:      13660
LLC WRITE        ACCESS:       9022 HIT:        488 MISS:       8534
LLC TRANSLATION  ACCESS:         55 HIT:          0 MISS:         55
LLC PREFETCH REQUESTED:          0 ISSUED:          0 USEFUL:          0 USELESS:          0
LLC AVERAGE MISS LATENCY: 558.5 cycles
LLC TOTAL        ACCESS:    2971584 HIT:    1611881 MISS:    1359703
LLC LOAD         ACCESS:     363877 HIT:      34260 MISS:     329617
LLC RFO          ACCESS:        560 HIT:        560 MISS:          0
LLC PREFETCH     ACCESS:    1290649 HIT:     260676 MISS:    1029973
LLC WRITE        ACCESS:    1315971 HIT:    1315951 MISS:         20
LLC TRANSLATION  ACCESS:        527 HIT:        434 MISS:         93
LLC PREFETCH REQUESTED:          0 ISSUED:          0 USEFUL:          0 USELESS:          0
LLC AVERAGE MISS LATENCY: 558.5 cycles
[...]
cpu2_L2C TRANSLATION  ACCESS:          0 HIT:          0 MISS:          0
cpu2_L2C PREFETCH REQUESTED:          0 ISSUED:          0 USEFUL:          0 USELESS:          0
cpu2_L2C AVERAGE MISS LATENCY: 278.4 cycles
cpu2_L2C TOTAL        ACCESS:          0 HIT:          0 MISS:          0
cpu2_L2C LOAD         ACCESS:          0 HIT:          0 MISS:          0
cpu2_L2C RFO          ACCESS:          0 HIT:          0 MISS:          0
cpu2_L2C PREFETCH     ACCESS:          0 HIT:          0 MISS:          0
cpu2_L2C WRITE        ACCESS:          0 HIT:          0 MISS:          0
cpu2_L2C TRANSLATION  ACCESS:          0 HIT:          0 MISS:          0
cpu2_L2C PREFETCH REQUESTED:          0 ISSUED:          0 USEFUL:          0 USELESS:          0
cpu2_L2C AVERAGE MISS LATENCY: 278.4 cycles
cpu2_L2C TOTAL        ACCESS:    4813134 HIT:    2772356 MISS:    2040778
cpu2_L2C LOAD         ACCESS:     672984 HIT:     276666 MISS:     396318
cpu2_L2C RFO          ACCESS:       2303 HIT:       1743 MISS:        560
cpu2_L2C PREFETCH     ACCESS:    2819254 HIT:    1175881 MISS:    1643373
cpu2_L2C WRITE        ACCESS:    1317782 HIT:    1317782 MISS:          0
cpu2_L2C TRANSLATION  ACCESS:        811 HIT:        284 MISS:        527
cpu2_L2C PREFETCH REQUESTED:          0 ISSUED:          0 USEFUL:          0 USELESS:          0
cpu2_L2C AVERAGE MISS LATENCY: 278.4 cycles
cpu2_L2C TOTAL        ACCESS:          0 HIT:          0 MISS:          0
cpu2_L2C LOAD         ACCESS:          0 HIT:          0 MISS:          0
cpu2_L2C RFO          ACCESS:          0 HIT:          0 MISS:          0
cpu2_L2C PREFETCH     ACCESS:          0 HIT:          0 MISS:          0
cpu2_L2C WRITE        ACCESS:          0 HIT:          0 MISS:          0
cpu2_L2C TRANSLATION  ACCESS:          0 HIT:          0 MISS:          0
cpu2_L2C PREFETCH REQUESTED:          0 ISSUED:          0 USEFUL:          0 USELESS:          0
cpu2_L2C AVERAGE MISS LATENCY: 278.4 cycles
cpu2_STLB TOTAL        ACCESS:          0 HIT:          0 MISS:          0
cpu2_STLB LOAD         ACCESS:          0 HIT:          0 MISS:          0
cpu2_STLB RFO          ACCESS:          0 HIT:          0 MISS:          0
cpu2_STLB PREFETCH     ACCESS:          0 HIT:          0 MISS:          0
cpu2_STLB WRITE        ACCESS:          0 HIT:          0 MISS:          0
cpu2_STLB TRANSLATION  ACCESS:          0 HIT:          0 MISS:          0
cpu2_STLB PREFETCH REQUESTED:          0 ISSUED:          0 USEFUL:          0 USELESS:          0
cpu2_STLB AVERAGE MISS LATENCY: 209.6 cycles
cpu2_STLB TOTAL        ACCESS:          0 HIT:          0 MISS:          0
cpu2_STLB LOAD         ACCESS:          0 HIT:          0 MISS:          0
cpu2_STLB RFO          ACCESS:          0 HIT:          0 MISS:          0
cpu2_STLB PREFETCH     ACCESS:          0 HIT:          0 MISS:          0
cpu2_STLB WRITE        ACCESS:          0 HIT:          0 MISS:          0
cpu2_STLB TRANSLATION  ACCESS:          0 HIT:          0 MISS:          0
cpu2_STLB PREFETCH REQUESTED:          0 ISSUED:          0 USEFUL:          0 USELESS:          0
cpu2_STLB AVERAGE MISS LATENCY: 209.6 cycles
cpu2_STLB TOTAL        ACCESS:      35120 HIT:      14536 MISS:      20584
cpu2_STLB LOAD         ACCESS:      35120 HIT:      14536 MISS:      20584
cpu2_STLB RFO          ACCESS:          0 HIT:          0 MISS:          0
cpu2_STLB PREFETCH     ACCESS:          0 HIT:          0 MISS:          0
cpu2_STLB WRITE        ACCESS:          0 HIT:          0 MISS:          0
cpu2_STLB TRANSLATION  ACCESS:          0 HIT:          0 MISS:          0
cpu2_STLB PREFETCH REQUESTED:          0 ISSUED:          0 USEFUL:          0 USELESS:          0
cpu2_STLB AVERAGE MISS LATENCY: 209.6 cycles
cpu2_STLB TOTAL        ACCESS:          0 HIT:          0 MISS:          0
cpu2_STLB LOAD         ACCESS:          0 HIT:          0 MISS:          0
cpu2_STLB RFO          ACCESS:          0 HIT:          0 MISS:          0
cpu2_STLB PREFETCH     ACCESS:          0 HIT:          0 MISS:          0
cpu2_STLB WRITE        ACCESS:          0 HIT:          0 MISS:          0
cpu2_STLB TRANSLATION  ACCESS:          0 HIT:          0 MISS:          0
cpu2_STLB PREFETCH REQUESTED:          0 ISSUED:          0 USEFUL:          0 USELESS:          0
cpu2_STLB AVERAGE MISS LATENCY: 209.6 cycles
cpu3_DTLB TOTAL        ACCESS:          0 HIT:          0 MISS:          0
cpu3_DTLB LOAD         ACCESS:          0 HIT:          0 MISS:          0
cpu3_DTLB RFO          ACCESS:          0 HIT:          0 MISS:          0
cpu3_DTLB PREFETCH     ACCESS:          0 HIT:          0 MISS:          0
cpu3_DTLB WRITE        ACCESS:          0 HIT:          0 MISS:          0
cpu3_DTLB TRANSLATION  ACCESS:          0 HIT:          0 MISS:          0
cpu3_DTLB PREFETCH REQUESTED:          0 ISSUED:          0 USEFUL:          0 USELESS:          0
cpu3_DTLB AVERAGE MISS LATENCY: 13.31 cycles
cpu3_DTLB TOTAL        ACCESS:          0 HIT:          0 MISS:          0
cpu3_DTLB LOAD         ACCESS:          0 HIT:          0 MISS:          0
cpu3_DTLB RFO          ACCESS:          0 HIT:          0 MISS:          0
cpu3_DTLB PREFETCH     ACCESS:          0 HIT:          0 MISS:          0
cpu3_DTLB WRITE        ACCESS:          0 HIT:          0 MISS:          0
cpu3_DTLB TRANSLATION  ACCESS:          0 HIT:          0 MISS:          0
cpu3_DTLB PREFETCH REQUESTED:          0 ISSUED:          0 USEFUL:          0 USELESS:          0
cpu3_DTLB AVERAGE MISS LATENCY: 13.31 cycles
cpu3_DTLB TOTAL        ACCESS:          0 HIT:          0 MISS:          0
cpu3_DTLB LOAD         ACCESS:          0 HIT:          0 MISS:          0
cpu3_DTLB RFO          ACCESS:          0 HIT:          0 MISS:          0
cpu3_DTLB PREFETCH     ACCESS:          0 HIT:          0 MISS:          0
cpu3_DTLB WRITE        ACCESS:          0 HIT:          0 MISS:          0
cpu3_DTLB TRANSLATION  ACCESS:          0 HIT:          0 MISS:          0
cpu3_DTLB PREFETCH REQUESTED:          0 ISSUED:          0 USEFUL:          0 USELESS:          0
cpu3_DTLB AVERAGE MISS LATENCY: 13.31 cycles
cpu3_DTLB TOTAL        ACCESS:   20281155 HIT:   20104851 MISS:     176304
cpu3_DTLB LOAD         ACCESS:   20281155 HIT:   20104851 MISS:     176304
cpu3_DTLB RFO          ACCESS:          0 HIT:          0 MISS:          0
cpu3_DTLB PREFETCH     ACCESS:          0 HIT:          0 MISS:          0
cpu3_DTLB WRITE        ACCESS:          0 HIT:          0 MISS:          0
cpu3_DTLB TRANSLATION  ACCESS:          0 HIT:          0 MISS:          0
cpu3_DTLB PREFETCH REQUESTED:          0 ISSUED:          0 USEFUL:          0 USELESS:          0
cpu3_DTLB AVERAGE MISS LATENCY: 13.31 cycles
cpu3_ITLB TOTAL        ACCESS:          0 HIT:          0 MISS:          0
cpu3_ITLB LOAD         ACCESS:          0 HIT:          0 MISS:          0
cpu3_ITLB RFO          ACCESS:          0 HIT:          0 MISS:          0
cpu3_ITLB PREFETCH     ACCESS:          0 HIT:          0 MISS:          0
cpu3_ITLB WRITE        ACCESS:          0 HIT:          0 MISS:          0
cpu3_ITLB TRANSLATION  ACCESS:          0 HIT:          0 MISS:          0
cpu3_ITLB PREFETCH REQUESTED:          0 ISSUED:          0 USEFUL:          0 USELESS:          0
cpu3_ITLB AVERAGE MISS LATENCY: 10.44 cycles
cpu3_ITLB TOTAL        ACCESS:          0 HIT:          0 MISS:          0
cpu3_ITLB LOAD         ACCESS:          0 HIT:          0 MISS:          0
cpu3_ITLB RFO          ACCESS:          0 HIT:          0 MISS:          0
cpu3_ITLB PREFETCH     ACCESS:          0 HIT:          0 MISS:          0
cpu3_ITLB WRITE        ACCESS:          0 HIT:          0 MISS:          0
cpu3_ITLB TRANSLATION  ACCESS:          0 HIT:          0 MISS:          0
cpu3_ITLB PREFETCH REQUESTED:          0 ISSUED:          0 USEFUL:          0 USELESS:          0
cpu3_ITLB AVERAGE MISS LATENCY: 10.44 cycles
cpu3_ITLB TOTAL        ACCESS:          0 HIT:          0 MISS:          0
cpu3_ITLB LOAD         ACCESS:          0 HIT:          0 MISS:          0
cpu3_ITLB RFO          ACCESS:          0 HIT:          0 MISS:          0
cpu3_ITLB PREFETCH     ACCESS:          0 HIT:          0 MISS:          0
cpu3_ITLB WRITE        ACCESS:          0 HIT:          0 MISS:          0
cpu3_ITLB TRANSLATION  ACCESS:          0 HIT:          0 MISS:          0
cpu3_ITLB PREFETCH REQUESTED:          0 ISSUED:          0 USEFUL:          0 USELESS:          0
cpu3_ITLB AVERAGE MISS LATENCY: 10.44 cycles
cpu3_ITLB TOTAL        ACCESS:     273512 HIT:     267914 MISS:       5598
cpu3_ITLB LOAD         ACCESS:     273512 HIT:     267914 MISS:       5598
cpu3_ITLB RFO          ACCESS:          0 HIT:          0 MISS:          0
cpu3_ITLB PREFETCH     ACCESS:          0 HIT:          0 MISS:          0
cpu3_ITLB WRITE        ACCESS:          0 HIT:          0 MISS:          0
cpu3_ITLB TRANSLATION  ACCESS:          0 HIT:          0 MISS:          0
cpu3_ITLB PREFETCH REQUESTED:          0 ISSUED:          0 USEFUL:          0 USELESS:          0
cpu3_ITLB AVERAGE MISS LATENCY: 10.44 cycles
cpu3_L1D TOTAL        ACCESS:          0 HIT:          0 MISS:          0
cpu3_L1D LOAD         ACCESS:          0 HIT:          0 MISS:          0
cpu3_L1D RFO          ACCESS:          0 HIT:          0 MISS:          0
cpu3_L1D PREFETCH     ACCESS:          0 HIT:          0 MISS:          0
cpu3_L1D WRITE        ACCESS:          0 HIT:          0 MISS:          0
cpu3_L1D TRANSLATION  ACCESS:          0 HIT:          0 MISS:          0
cpu3_L1D PREFETCH REQUESTED:   39676541 ISSUED:    5723072 USEFUL:     351796 USELESS:     162708
cpu3_L1D AVERAGE MISS LATENCY: 63.22 cycles
cpu3_L1D TOTAL        ACCESS:          0 HIT:          0 MISS:          0
cpu3_L1D LOAD         ACCESS:          0 HIT:          0 MISS:          0
cpu3_L1D RFO          ACCESS:          0 HIT:          0 MISS:          0
cpu3_L1D PREFETCH     ACCESS:          0 HIT:          0 MISS:          0
cpu3_L1D WRITE        ACCESS:          0 HIT:          0 MISS:          0
cpu3_L1D TRANSLATION  ACCESS:          0 HIT:          0 MISS:          0
cpu3_L1D PREFETCH REQUESTED:   39676541 ISSUED:    5723072 USEFUL:     351796 USELESS:     162708
cpu3_L1D AVERAGE MISS LATENCY: 63.22 cycles
cpu3_L1D TOTAL        ACCESS:          0 HIT:          0 MISS:          0
cpu3_L1D LOAD         ACCESS:          0 HIT:          0 MISS:          0
cpu3_L1D RFO          ACCESS:          0 HIT:          0 MISS:          0
cpu3_L1D PREFETCH     ACCESS:          0 HIT:          0 MISS:          0
cpu3_L1D WRITE        ACCESS:          0 HIT:          0 MISS:          0
cpu3_L1D TRANSLATION  ACCESS:          0 HIT:          0 MISS:          0
cpu3_L1D PREFETCH REQUESTED:   39676541 ISSUED:    5723072 USEFUL:     351796 USELESS:     162708
cpu3_L1D AVERAGE MISS LATENCY: 63.22 cycles
cpu3_L1D TOTAL        ACCESS:   29544637 HIT:   23498719 MISS:    6045918
cpu3_L1D LOAD         ACCESS:   14961618 HIT:   13371866 MISS:    1589752
cpu3_L1D RFO          ACCESS:          0 HIT:          0 MISS:          0
cpu3_L1D PREFETCH     ACCESS:    4915705 HIT:    3445101 MISS:    1470604
cpu3_L1D WRITE        ACCESS:    9659114 HIT:    6679611 MISS:    2979503
cpu3_L1D TRANSLATION  ACCESS:       8200 HIT:       2141 MISS:       6059
cpu3_L1D PREFETCH REQUESTED:   39676541 ISSUED:    5723072 USEFUL:     351796 USELESS:     162708
cpu3_L1D AVERAGE MISS LATENCY: 63.22 cycles
cpu3_L1I TOTAL        ACCESS:          0 HIT:          0 MISS:          0
cpu3_L1I LOAD         ACCESS:          0 HIT:          0 MISS:          0
cpu3_L1I RFO          ACCESS:          0 HIT:          0 MISS:          0
cpu3_L1I PREFETCH     ACCESS:          0 HIT:          0 MISS:          0
cpu3_L1I WRITE        ACCESS:          0 HIT:          0 MISS:          0
cpu3_L1I TRANSLATION  ACCESS:          0 HIT:          0 MISS:          0
cpu3_L1I PREFETCH REQUESTED:          0 ISSUED:          0 USEFUL:          0 USELESS:          0
cpu3_L1I AVERAGE MISS LATENCY: 32.27 cycles
cpu3_L1I TOTAL        ACCESS:          0 HIT:          0 MISS:          0
cpu3_L1I LOAD         ACCESS:          0 HIT:          0 MISS:          0
cpu3_L1I RFO          ACCESS:          0 HIT:          0 MISS:          0
cpu3_L1I PREFETCH     ACCESS:          0 HIT:          0 MISS:          0
cpu3_L1I WRITE        ACCESS:          0 HIT:          0 MISS:          0
cpu3_L1I TRANSLATION  ACCESS:          0 HIT:          0 MISS:          0
cpu3_L1I PREFETCH REQUESTED:          0 ISSUED:          0 USEFUL:          0 USELESS:          0
cpu3_L1I AVERAGE MISS LATENCY: 32.27 cycles
cpu3_L1I TOTAL        ACCESS:          0 HIT:          0 MISS:          0
cpu3_L1I LOAD         ACCESS:          0 HIT:          0 MISS:          0
cpu3_L1I RFO          ACCESS:          0 HIT:          0 MISS:          0
cpu3_L1I PREFETCH     ACCESS:          0 HIT:          0 MISS:          0
cpu3_L1I WRITE        ACCESS:          0 HIT:          0 MISS:          0
cpu3_L1I TRANSLATION  ACCESS:          0 HIT:          0 MISS:          0
cpu3_L1I PREFETCH REQUESTED:          0 ISSUED:          0 USEFUL:          0 USELESS:          0
cpu3_L1I AVERAGE MISS LATENCY: 32.27 cycles
cpu3_L1I TOTAL        ACCESS:     339755 HIT:     244280 MISS:      95475
cpu3_L1I LOAD         ACCESS:     339755 HIT:     244280 MISS:      95475
cpu3_L1I RFO          ACCESS:          0 HIT:          0 MISS:          0
cpu3_L1I PREFETCH     ACCESS:          0 HIT:          0 MISS:          0
cpu3_L1I WRITE        ACCESS:          0 HIT:          0 MISS:          0
cpu3_L1I TRANSLATION  ACCESS:          0 HIT:          0 MISS:          0
cpu3_L1I PREFETCH REQUESTED:          0 ISSUED:          0 USEFUL:          0 USELESS:          0
cpu3_L1I AVERAGE MISS LATENCY: 32.27 cycles
cpu3_L2C TOTAL        ACCESS:          0 HIT:          0 MISS:          0
cpu3_L2C LOAD         ACCESS:          0 HIT:          0 MISS:          0
cpu3_L2C RFO          ACCESS:          0 HIT:          0 MISS:          0
cpu3_L2C PREFETCH     ACCESS:          0 HIT:          0 MISS:          0
cpu3_L2C WRITE        ACCESS:          0 HIT:          0 MISS:          0
cpu3_L2C TRANSLATION  ACCESS:          0 HIT:          0 MISS:          0
cpu3_L2C PREFETCH REQUESTED:          0 ISSUED:          0 USEFUL:          0 USELESS:          0
cpu3_L2C AVERAGE MISS LATENCY: 344.7 cycles
cpu3_L2C TOTAL        ACCESS:          0 HIT:          0 MISS:          0
cpu3_L2C LOAD         ACCESS:          0 HIT:          0 MISS:          0
cpu3_L2C RFO          ACCESS:          0 HIT:          0 MISS:          0
cpu3_L2C PREFETCH     ACCESS:          0 HIT:          0 MISS:          0
cpu3_L2C WRITE        ACCESS:          0 HIT:          0 MISS:          0
cpu3_L2C TRANSLATION  ACCESS:          0 HIT:          0 MISS:          0
cpu3_L2C PREFETCH REQUESTED:          0 ISSUED:          0 USEFUL:          0 USELESS:          0
cpu3_L2C AVERAGE MISS LATENCY: 344.7 cycles
cpu3_L2C TOTAL        ACCESS:          0 HIT:          0 MISS:          0
cpu3_L2C LOAD         ACCESS:          0 HIT:          0 MISS:          0
cpu3_L2C RFO          ACCESS:          0 HIT:          0 MISS:          0
cpu3_L2C PREFETCH     ACCESS:          0 HIT:          0 MISS:          0
cpu3_L2C WRITE        ACCESS:          0 HIT:          0 MISS:          0
cpu3_L2C TRANSLATION  ACCESS:          0 HIT:          0 MISS:          0
cpu3_L2C PREFETCH REQUESTED:          0 ISSUED:          0 USEFUL:          0 USELESS:          0
cpu3_L2C AVERAGE MISS LATENCY: 344.7 cycles
cpu3_L2C TOTAL        ACCESS:    4126998 HIT:    2798114 MISS:    1328884
cpu3_L2C LOAD         ACCESS:    1029676 HIT:     667402 MISS:     362274
cpu3_L2C RFO          ACCESS:     736236 HIT:     425522 MISS:     310714
cpu3_L2C PREFETCH     ACCESS:    1399582 HIT:     748027 MISS:     651555
cpu3_L2C WRITE        ACCESS:     955518 HIT:     954897 MISS:        621
cpu3_L2C TRANSLATION  ACCESS:       5986 HIT:       2266 MISS:       3720
cpu3_L2C PREFETCH REQUESTED:          0 ISSUED:          0 USEFUL:          0 USELESS:          0
cpu3_L2C AVERAGE MISS LATENCY: 344.7 cycles
cpu3_STLB TOTAL        ACCESS:          0 HIT:          0 MISS:          0
cpu3_STLB LOAD         ACCESS:          0 HIT:          0 MISS:          0
cpu3_STLB RFO          ACCESS:          0 HIT:          0 MISS:          0
cpu3_STLB PREFETCH     ACCESS:          0 HIT:          0 MISS:          0
cpu3_STLB WRITE        ACCESS:          0 HIT:          0 MISS:          0
cpu3_STLB TRANSLATION  ACCESS:          0 HIT:          0 MISS:          0
cpu3_STLB PREFETCH REQUESTED:          0 ISSUED:          0 USEFUL:          0 USELESS:          0
cpu3_STLB AVERAGE MISS LATENCY: 401.9 cycles
cpu3_STLB TOTAL        ACCESS:          0 HIT:          0 MISS:          0
cpu3_STLB LOAD         ACCESS:          0 HIT:          0 MISS:          0
cpu3_STLB RFO          ACCESS:          0 HIT:          0 MISS:          0
cpu3_STLB PREFETCH     ACCESS:          0 HIT:          0 MISS:          0
cpu3_STLB WRITE        ACCESS:          0 HIT:          0 MISS:          0
cpu3_STLB TRANSLATION  ACCESS:          0 HIT:          0 MISS:          0
cpu3_STLB PREFETCH REQUESTED:          0 ISSUED:          0 USEFUL:          0 USELESS:          0
cpu3_STLB AVERAGE MISS LATENCY: 401.9 cycles
cpu3_STLB TOTAL        ACCESS:          0 HIT:          0 MISS:          0
cpu3_STLB LOAD         ACCESS:          0 HIT:          0 MISS:          0
cpu3_STLB RFO          ACCESS:          0 HIT:          0 MISS:          0
cpu3_STLB PREFETCH     ACCESS:          0 HIT:          0 MISS:          0
cpu3_STLB WRITE        ACCESS:          0 HIT:          0 MISS:          0
cpu3_STLB TRANSLATION  ACCESS:          0 HIT:          0 MISS:          0
cpu3_STLB PREFETCH REQUESTED:          0 ISSUED:          0 USEFUL:          0 USELESS:          0
cpu3_STLB AVERAGE MISS LATENCY: 401.9 cycles
cpu3_STLB TOTAL        ACCESS:      62842 HIT:      55633 MISS:       7209
cpu3_STLB LOAD         ACCESS:      62842 HIT:      55633 MISS:       7209
cpu3_STLB RFO          ACCESS:          0 HIT:          0 MISS:          0
cpu3_STLB PREFETCH     ACCESS:          0 HIT:          0 MISS:          0
cpu3_STLB WRITE        ACCESS:          0 HIT:          0 MISS:          0
cpu3_STLB TRANSLATION  ACCESS:          0 HIT:          0 MISS:          0
cpu3_STLB PREFETCH REQUESTED:          0 ISSUED:          0 USEFUL:          0 USELESS:          0
cpu3_STLB AVERAGE MISS LATENCY: 401.9 cycles

DRAM Statistics

Channel 0 RQ ROW_BUFFER_HIT:     302461
  ROW_BUFFER_MISS:     699094
 AVG DBUS CONGESTED CYCLE: 3.954
WQ ROW_BUFFER_HIT: Channel 0 
  ROW_BUFFER_MISS:      72360
  FULL:     751885

Channel 1 RQ ROW_BUFFER_HIT:     300186
  ROW_BUFFER_MISS:     699669
 AVG DBUS CONGESTED CYCLE: 3.954
WQ ROW_BUFFER_HIT: Channel 1 
  ROW_BUFFER_MISS:      73008
  FULL:     751074
BERTI TO_L1: 69032727 TO_L2: 38662944 TO_L2_BC_MSHR: 6347722
BERTI AVG_LAT: 192.059 NUM_TRACK_LATENCY: 5390140 NUM_CANT_TRACK_LATENCY: 2829
BERTI CROSS_PAGE 15163485 NO_CROSS_PAGE: 92532186
BERTI FOUND_BERTI: 20562398 NO_FOUND_BERTI: 83957241
BERTI AVERAGE_ISSUED: 4.28005
BERTI TO_L1: 69032727 TO_L2: 38662944 TO_L2_BC_MSHR: 6347722
BERTI AVG_LAT: 192.059 NUM_TRACK_LATENCY: 5390140 NUM_CANT_TRACK_LATENCY: 2829
BERTI CROSS_PAGE 15163485 NO_CROSS_PAGE: 92532186
BERTI FOUND_BERTI: 20562398 NO_FOUND_BERTI: 83957241
BERTI AVERAGE_ISSUED: 4.28005
BERTI TO_L1: 69032727 TO_L2: 38662944 TO_L2_BC_MSHR: 6347722
BERTI AVG_LAT: 192.059 NUM_TRACK_LATENCY: 5390140 NUM_CANT_TRACK_LATENCY: 2829
BERTI CROSS_PAGE 15163485 NO_CROSS_PAGE: 92532186
BERTI FOUND_BERTI: 20562398 NO_FOUND_BERTI: 83957241
BERTI AVERAGE_ISSUED: 4.28005
BERTI TO_L1: 69032727 TO_L2: 38662944 TO_L2_BC_MSHR: 6347722
BERTI AVG_LAT: 192.059 NUM_TRACK_LATENCY: 5390140 NUM_CANT_TRACK_LATENCY: 2829
BERTI CROSS_PAGE 15163485 NO_CROSS_PAGE: 92532186
BERTI FOUND_BERTI: 20562398 NO_FOUND_BERTI: 83957241
BERTI AVERAGE_ISSUED: 4.28005
