Original cmd-> /home/grads/r/rdas40/ECEN676/ChampSim/bin/multi_core/berti_2ch --warmup_instructions=50000000 --simulation_instructions=150000000  /home/grads/r/rdas40/dpc3_traces/654.roms_s-842B.champsimtrace.xz /home/grads/r/rdas40/dpc3_traces/627.cam4_s-573B.champsimtrace.xz /home/grads/r/rdas40/dpc3_traces/628.pop2_s-17B.champsimtrace.xz /home/grads/r/rdas40/dpc3_traces/621.wrf_s-575B.champsimtrace.xz
WARNING: physical memory size is smaller than virtual memory size.
WARNING: option --warmup_instructions is deprecated. Use --warmup-instructions instead.
WARNING: option --simulation_instructions is deprecated. Use --simulation-instructions instead.

*** ChampSim Multicore Out-of-Order Simulator ***
Warmup Instructions: 50000000
Simulation Instructions: 150000000
Number of CPUs: 4
Page size: 4096

Berti Prefetcher
BERTI HASH ORIGINAL
BERTI IP MASK ffff
Berti Prefetcher
BERTI HASH ORIGINAL
BERTI IP MASK ffff
Berti Prefetcher
BERTI HASH ORIGINAL
BERTI IP MASK ffff
Berti Prefetcher
BERTI HASH ORIGINAL
BERTI IP MASK ffff
Off-chip DRAM Size: 8 GiB Channels: 2 Width: 64-bit Data Race: 3200 MT/s
Heartbeat CPU 3 instructions: 10000002 cycles: 2502841 heartbeat IPC: 3.995 cumulative IPC: 3.995 (Simulation time: 00 hr 02 min 47 sec)
Heartbeat CPU 0 instructions: 10000000 cycles: 2511300 heartbeat IPC: 3.982 cumulative IPC: 3.982 (Simulation time: 00 hr 02 min 47 sec)
Heartbeat CPU 2 instructions: 10000001 cycles: 2639233 heartbeat IPC: 3.789 cumulative IPC: 3.789 (Simulation time: 00 hr 02 min 56 sec)
Heartbeat CPU 1 instructions: 10000003 cycles: 2696980 heartbeat IPC: 3.708 cumulative IPC: 3.708 (Simulation time: 00 hr 03 min 00 sec)
Heartbeat CPU 3 instructions: 20000000 cycles: 5005501 heartbeat IPC: 3.996 cumulative IPC: 3.996 (Simulation time: 00 hr 05 min 37 sec)
Heartbeat CPU 0 instructions: 20000000 cycles: 5026789 heartbeat IPC: 3.975 cumulative IPC: 3.979 (Simulation time: 00 hr 05 min 38 sec)
Heartbeat CPU 1 instructions: 20000001 cycles: 5210264 heartbeat IPC: 3.979 cumulative IPC: 3.839 (Simulation time: 00 hr 05 min 51 sec)
Heartbeat CPU 2 instructions: 20000000 cycles: 5278543 heartbeat IPC: 3.789 cumulative IPC: 3.789 (Simulation time: 00 hr 05 min 55 sec)
Heartbeat CPU 3 instructions: 30000003 cycles: 7507845 heartbeat IPC: 3.996 cumulative IPC: 3.996 (Simulation time: 00 hr 08 min 26 sec)
Heartbeat CPU 0 instructions: 30000003 cycles: 7533787 heartbeat IPC: 3.989 cumulative IPC: 3.982 (Simulation time: 00 hr 08 min 28 sec)
Heartbeat CPU 1 instructions: 30000000 cycles: 7723210 heartbeat IPC: 3.979 cumulative IPC: 3.884 (Simulation time: 00 hr 08 min 41 sec)
Heartbeat CPU 2 instructions: 30000003 cycles: 7917986 heartbeat IPC: 3.789 cumulative IPC: 3.789 (Simulation time: 00 hr 08 min 54 sec)
Heartbeat CPU 3 instructions: 40000001 cycles: 10010512 heartbeat IPC: 3.996 cumulative IPC: 3.996 (Simulation time: 00 hr 11 min 16 sec)
Heartbeat CPU 0 instructions: 40000002 cycles: 10050674 heartbeat IPC: 3.973 cumulative IPC: 3.98 (Simulation time: 00 hr 11 min 19 sec)
Heartbeat CPU 1 instructions: 40000003 cycles: 10239882 heartbeat IPC: 3.974 cumulative IPC: 3.906 (Simulation time: 00 hr 11 min 32 sec)
Heartbeat CPU 2 instructions: 40000001 cycles: 10556168 heartbeat IPC: 3.79 cumulative IPC: 3.789 (Simulation time: 00 hr 11 min 53 sec)
Heartbeat CPU 3 instructions: 50000003 cycles: 12513255 heartbeat IPC: 3.996 cumulative IPC: 3.996 (Simulation time: 00 hr 14 min 10 sec)
Warmup finished CPU 3 instructions: 50000003 cycles: 12513256 cumulative IPC: 3.996 (Simulation time: 00 hr 14 min 10 sec)
Heartbeat CPU 0 instructions: 50000001 cycles: 12588677 heartbeat IPC: 3.94 cumulative IPC: 3.972 (Simulation time: 00 hr 14 min 15 sec)
Warmup finished CPU 0 instructions: 50000001 cycles: 12588678 cumulative IPC: 3.972 (Simulation time: 00 hr 14 min 15 sec)
Heartbeat CPU 1 instructions: 50000003 cycles: 12760747 heartbeat IPC: 3.967 cumulative IPC: 3.918 (Simulation time: 00 hr 14 min 27 sec)
Warmup finished CPU 1 instructions: 50000003 cycles: 12760748 cumulative IPC: 3.918 (Simulation time: 00 hr 14 min 27 sec)
Heartbeat CPU 2 instructions: 50000000 cycles: 13196529 heartbeat IPC: 3.787 cumulative IPC: 3.789 (Simulation time: 00 hr 14 min 58 sec)
Warmup finished CPU 2 instructions: 50000000 cycles: 13196530 cumulative IPC: 3.789 (Simulation time: 00 hr 14 min 58 sec)
Warmup complete CPU 0 instructions: 52420189 cycles: 13196530 cumulative IPC: 3.972 (Simulation time: 00 hr 14 min 58 sec)
Warmup complete CPU 1 instructions: 51728809 cycles: 13196530 cumulative IPC: 3.92 (Simulation time: 00 hr 14 min 58 sec)
Warmup complete CPU 2 instructions: 50000000 cycles: 13196530 cumulative IPC: 3.789 (Simulation time: 00 hr 14 min 58 sec)
Warmup complete CPU 3 instructions: 52722222 cycles: 13196530 cumulative IPC: 3.995 (Simulation time: 00 hr 14 min 58 sec)
Heartbeat CPU 0 instructions: 60000002 cycles: 15672435 heartbeat IPC: 3.243 cumulative IPC: 3.061 (Simulation time: 00 hr 17 min 23 sec)
Heartbeat CPU 3 instructions: 60000004 cycles: 16632260 heartbeat IPC: 2.428 cumulative IPC: 2.118 (Simulation time: 00 hr 18 min 19 sec)
Heartbeat CPU 1 instructions: 60000003 cycles: 17020794 heartbeat IPC: 2.347 cumulative IPC: 2.163 (Simulation time: 00 hr 18 min 41 sec)
Heartbeat CPU 2 instructions: 60000004 cycles: 17254007 heartbeat IPC: 2.465 cumulative IPC: 2.465 (Simulation time: 00 hr 18 min 54 sec)
Heartbeat CPU 0 instructions: 70000003 cycles: 19228163 heartbeat IPC: 2.812 cumulative IPC: 2.915 (Simulation time: 00 hr 20 min 48 sec)
Heartbeat CPU 2 instructions: 70000002 cycles: 21183124 heartbeat IPC: 2.545 cumulative IPC: 2.504 (Simulation time: 00 hr 22 min 43 sec)
Heartbeat CPU 3 instructions: 70000000 cycles: 21334290 heartbeat IPC: 2.127 cumulative IPC: 2.123 (Simulation time: 00 hr 22 min 52 sec)
Heartbeat CPU 1 instructions: 70000000 cycles: 21355434 heartbeat IPC: 2.307 cumulative IPC: 2.239 (Simulation time: 00 hr 22 min 54 sec)
Heartbeat CPU 0 instructions: 80000000 cycles: 22542284 heartbeat IPC: 3.017 cumulative IPC: 2.951 (Simulation time: 00 hr 24 min 06 sec)
Heartbeat CPU 2 instructions: 80000000 cycles: 24588995 heartbeat IPC: 2.936 cumulative IPC: 2.633 (Simulation time: 00 hr 26 min 06 sec)
Heartbeat CPU 1 instructions: 80000003 cycles: 25647761 heartbeat IPC: 2.33 cumulative IPC: 2.271 (Simulation time: 00 hr 27 min 08 sec)
Heartbeat CPU 0 instructions: 90000001 cycles: 25928630 heartbeat IPC: 2.953 cumulative IPC: 2.952 (Simulation time: 00 hr 27 min 25 sec)
Heartbeat CPU 3 instructions: 80000001 cycles: 26026083 heartbeat IPC: 2.131 cumulative IPC: 2.126 (Simulation time: 00 hr 27 min 31 sec)
Heartbeat CPU 2 instructions: 90000000 cycles: 28221613 heartbeat IPC: 2.753 cumulative IPC: 2.662 (Simulation time: 00 hr 29 min 37 sec)
Heartbeat CPU 0 instructions: 100000001 cycles: 29319950 heartbeat IPC: 2.949 cumulative IPC: 2.951 (Simulation time: 00 hr 30 min 44 sec)
Heartbeat CPU 1 instructions: 90000003 cycles: 29501031 heartbeat IPC: 2.595 cumulative IPC: 2.347 (Simulation time: 00 hr 30 min 55 sec)
Heartbeat CPU 3 instructions: 90000002 cycles: 30729078 heartbeat IPC: 2.126 cumulative IPC: 2.126 (Simulation time: 00 hr 32 min 08 sec)
Heartbeat CPU 2 instructions: 100000000 cycles: 31556953 heartbeat IPC: 2.998 cumulative IPC: 2.723 (Simulation time: 00 hr 32 min 56 sec)
Heartbeat CPU 0 instructions: 110000001 cycles: 32679954 heartbeat IPC: 2.976 cumulative IPC: 2.955 (Simulation time: 00 hr 33 min 59 sec)
Heartbeat CPU 3 instructions: 100000000 cycles: 35441925 heartbeat IPC: 2.122 cumulative IPC: 2.125 (Simulation time: 00 hr 36 min 34 sec)
Heartbeat CPU 2 instructions: 110000001 cycles: 35539616 heartbeat IPC: 2.511 cumulative IPC: 2.685 (Simulation time: 00 hr 36 min 39 sec)
Heartbeat CPU 0 instructions: 120000002 cycles: 36075217 heartbeat IPC: 2.945 cumulative IPC: 2.954 (Simulation time: 00 hr 37 min 09 sec)
Heartbeat CPU 1 instructions: 100000001 cycles: 37237852 heartbeat IPC: 1.293 cumulative IPC: 2.008 (Simulation time: 00 hr 38 min 07 sec)
Heartbeat CPU 0 instructions: 130000003 cycles: 39490518 heartbeat IPC: 2.928 cumulative IPC: 2.95 (Simulation time: 00 hr 39 min 50 sec)
Heartbeat CPU 3 instructions: 110000001 cycles: 40161558 heartbeat IPC: 2.119 cumulative IPC: 2.124 (Simulation time: 00 hr 40 min 21 sec)
Heartbeat CPU 0 instructions: 140000003 cycles: 42967651 heartbeat IPC: 2.876 cumulative IPC: 2.942 (Simulation time: 00 hr 42 min 33 sec)
Heartbeat CPU 2 instructions: 120000003 cycles: 43861728 heartbeat IPC: 1.202 cumulative IPC: 2.283 (Simulation time: 00 hr 43 min 16 sec)
Heartbeat CPU 3 instructions: 120000000 cycles: 44799516 heartbeat IPC: 2.156 cumulative IPC: 2.129 (Simulation time: 00 hr 44 min 00 sec)
Heartbeat CPU 0 instructions: 150000002 cycles: 46442909 heartbeat IPC: 2.877 cumulative IPC: 2.935 (Simulation time: 00 hr 45 min 15 sec)
Heartbeat CPU 3 instructions: 130000002 cycles: 49471029 heartbeat IPC: 2.141 cumulative IPC: 2.13 (Simulation time: 00 hr 47 min 39 sec)
Heartbeat CPU 0 instructions: 160000001 cycles: 49756710 heartbeat IPC: 3.018 cumulative IPC: 2.943 (Simulation time: 00 hr 47 min 52 sec)
Heartbeat CPU 2 instructions: 130000003 cycles: 52425023 heartbeat IPC: 1.168 cumulative IPC: 2.039 (Simulation time: 00 hr 49 min 56 sec)
Heartbeat CPU 0 instructions: 170000003 cycles: 53149622 heartbeat IPC: 2.947 cumulative IPC: 2.943 (Simulation time: 00 hr 50 min 30 sec)
Heartbeat CPU 3 instructions: 140000000 cycles: 54218929 heartbeat IPC: 2.106 cumulative IPC: 2.128 (Simulation time: 00 hr 51 min 20 sec)
Heartbeat CPU 0 instructions: 180000003 cycles: 57050476 heartbeat IPC: 2.564 cumulative IPC: 2.909 (Simulation time: 00 hr 53 min 15 sec)
Heartbeat CPU 3 instructions: 150000004 cycles: 58844265 heartbeat IPC: 2.162 cumulative IPC: 2.131 (Simulation time: 00 hr 54 min 51 sec)
Heartbeat CPU 1 instructions: 110000001 cycles: 59633773 heartbeat IPC: 0.4465 cumulative IPC: 1.255 (Simulation time: 00 hr 55 min 38 sec)
Heartbeat CPU 2 instructions: 140000002 cycles: 59712708 heartbeat IPC: 1.372 cumulative IPC: 1.935 (Simulation time: 00 hr 55 min 42 sec)
Heartbeat CPU 0 instructions: 190000001 cycles: 60446895 heartbeat IPC: 2.944 cumulative IPC: 2.912 (Simulation time: 00 hr 56 min 26 sec)
Heartbeat CPU 2 instructions: 150000000 cycles: 63111506 heartbeat IPC: 2.942 cumulative IPC: 2.003 (Simulation time: 00 hr 59 min 02 sec)
Heartbeat CPU 1 instructions: 120000000 cycles: 63206054 heartbeat IPC: 2.799 cumulative IPC: 1.365 (Simulation time: 00 hr 59 min 08 sec)
Heartbeat CPU 3 instructions: 160000003 cycles: 63450835 heartbeat IPC: 2.171 cumulative IPC: 2.135 (Simulation time: 00 hr 59 min 22 sec)
Heartbeat CPU 0 instructions: 200000004 cycles: 63879877 heartbeat IPC: 2.913 cumulative IPC: 2.912 (Simulation time: 00 hr 59 min 47 sec)
Simulation finished CPU 0 instructions: 150000000 cycles: 51536840 cumulative IPC: 2.911 (Simulation time: 01 hr 00 min 37 sec)
Heartbeat CPU 1 instructions: 130000001 cycles: 66661296 heartbeat IPC: 2.894 cumulative IPC: 1.464 (Simulation time: 01 hr 02 min 20 sec)
Heartbeat CPU 0 instructions: 210000004 cycles: 67356697 heartbeat IPC: 2.876 cumulative IPC: 2.91 (Simulation time: 01 hr 03 min 01 sec)
Heartbeat CPU 2 instructions: 160000000 cycles: 67864465 heartbeat IPC: 2.104 cumulative IPC: 2.012 (Simulation time: 01 hr 03 min 30 sec)
Heartbeat CPU 3 instructions: 170000003 cycles: 68057983 heartbeat IPC: 2.171 cumulative IPC: 2.138 (Simulation time: 01 hr 03 min 41 sec)
Heartbeat CPU 1 instructions: 140000000 cycles: 69902625 heartbeat IPC: 3.085 cumulative IPC: 1.557 (Simulation time: 01 hr 05 min 32 sec)
Heartbeat CPU 0 instructions: 220000001 cycles: 70755636 heartbeat IPC: 2.942 cumulative IPC: 2.911 (Simulation time: 01 hr 06 min 25 sec)
Heartbeat CPU 2 instructions: 170000002 cycles: 71301923 heartbeat IPC: 2.909 cumulative IPC: 2.065 (Simulation time: 01 hr 06 min 56 sec)
Heartbeat CPU 3 instructions: 180000004 cycles: 72653065 heartbeat IPC: 2.176 cumulative IPC: 2.141 (Simulation time: 01 hr 08 min 15 sec)
Heartbeat CPU 1 instructions: 150000000 cycles: 74152735 heartbeat IPC: 2.353 cumulative IPC: 1.612 (Simulation time: 01 hr 09 min 39 sec)
Heartbeat CPU 0 instructions: 230000000 cycles: 74200255 heartbeat IPC: 2.903 cumulative IPC: 2.911 (Simulation time: 01 hr 09 min 42 sec)
Heartbeat CPU 2 instructions: 180000003 cycles: 75253205 heartbeat IPC: 2.531 cumulative IPC: 2.095 (Simulation time: 01 hr 10 min 43 sec)
Heartbeat CPU 3 instructions: 190000002 cycles: 77261018 heartbeat IPC: 2.17 cumulative IPC: 2.143 (Simulation time: 01 hr 12 min 41 sec)
Heartbeat CPU 0 instructions: 240000002 cycles: 77605284 heartbeat IPC: 2.937 cumulative IPC: 2.912 (Simulation time: 01 hr 13 min 00 sec)
Heartbeat CPU 1 instructions: 160000000 cycles: 78778236 heartbeat IPC: 2.162 cumulative IPC: 1.651 (Simulation time: 01 hr 14 min 09 sec)
Heartbeat CPU 2 instructions: 190000004 cycles: 79308309 heartbeat IPC: 2.466 cumulative IPC: 2.118 (Simulation time: 01 hr 14 min 39 sec)
Heartbeat CPU 0 instructions: 250000004 cycles: 80992444 heartbeat IPC: 2.952 cumulative IPC: 2.914 (Simulation time: 01 hr 16 min 18 sec)
Heartbeat CPU 3 instructions: 200000000 cycles: 81867105 heartbeat IPC: 2.171 cumulative IPC: 2.145 (Simulation time: 01 hr 17 min 09 sec)
Simulation finished CPU 3 instructions: 150000000 cycles: 69902770 cumulative IPC: 2.146 (Simulation time: 01 hr 18 min 20 sec)
Heartbeat CPU 1 instructions: 170000002 cycles: 83346934 heartbeat IPC: 2.189 cumulative IPC: 1.686 (Simulation time: 01 hr 18 min 34 sec)
Heartbeat CPU 2 instructions: 200000002 cycles: 83471904 heartbeat IPC: 2.402 cumulative IPC: 2.134 (Simulation time: 01 hr 18 min 42 sec)
Simulation finished CPU 2 instructions: 150000002 cycles: 70275375 cumulative IPC: 2.134 (Simulation time: 01 hr 18 min 42 sec)
Heartbeat CPU 0 instructions: 260000002 cycles: 84394388 heartbeat IPC: 2.939 cumulative IPC: 2.916 (Simulation time: 01 hr 19 min 37 sec)
Heartbeat CPU 3 instructions: 210000000 cycles: 86439325 heartbeat IPC: 2.187 cumulative IPC: 2.147 (Simulation time: 01 hr 21 min 36 sec)
Heartbeat CPU 1 instructions: 180000004 cycles: 87566467 heartbeat IPC: 2.37 cumulative IPC: 1.725 (Simulation time: 01 hr 22 min 44 sec)
Heartbeat CPU 2 instructions: 210000000 cycles: 87770605 heartbeat IPC: 2.326 cumulative IPC: 2.146 (Simulation time: 01 hr 22 min 56 sec)
Heartbeat CPU 0 instructions: 270000004 cycles: 87781168 heartbeat IPC: 2.953 cumulative IPC: 2.917 (Simulation time: 01 hr 22 min 57 sec)
Heartbeat CPU 3 instructions: 220000000 cycles: 91000973 heartbeat IPC: 2.192 cumulative IPC: 2.15 (Simulation time: 01 hr 26 min 07 sec)
Heartbeat CPU 0 instructions: 280000004 cycles: 91153651 heartbeat IPC: 2.965 cumulative IPC: 2.919 (Simulation time: 01 hr 26 min 16 sec)
Heartbeat CPU 1 instructions: 190000003 cycles: 91701371 heartbeat IPC: 2.418 cumulative IPC: 1.761 (Simulation time: 01 hr 26 min 49 sec)
Heartbeat CPU 2 instructions: 220000003 cycles: 91870986 heartbeat IPC: 2.439 cumulative IPC: 2.161 (Simulation time: 01 hr 26 min 59 sec)
Heartbeat CPU 0 instructions: 290000003 cycles: 94581188 heartbeat IPC: 2.918 cumulative IPC: 2.919 (Simulation time: 01 hr 29 min 35 sec)
Heartbeat CPU 3 instructions: 230000001 cycles: 95587781 heartbeat IPC: 2.18 cumulative IPC: 2.152 (Simulation time: 01 hr 30 min 31 sec)
Heartbeat CPU 2 instructions: 230000000 cycles: 96170784 heartbeat IPC: 2.326 cumulative IPC: 2.169 (Simulation time: 01 hr 31 min 02 sec)
Heartbeat CPU 1 instructions: 200000004 cycles: 97101581 heartbeat IPC: 1.852 cumulative IPC: 1.767 (Simulation time: 01 hr 31 min 57 sec)
Simulation finished CPU 1 instructions: 150000002 cycles: 84798066 cumulative IPC: 1.769 (Simulation time: 01 hr 32 min 49 sec)
Simulation complete CPU 0 instructions: 247535409 cycles: 84798066 cumulative IPC: 2.919 (Simulation time: 01 hr 32 min 49 sec)
Simulation complete CPU 1 instructions: 150000002 cycles: 84798066 cumulative IPC: 1.769 (Simulation time: 01 hr 32 min 49 sec)
Simulation complete CPU 2 instructions: 183998060 cycles: 84798066 cumulative IPC: 2.17 (Simulation time: 01 hr 32 min 49 sec)
Simulation complete CPU 3 instructions: 182452236 cycles: 84798066 cumulative IPC: 2.152 (Simulation time: 01 hr 32 min 49 sec)

ChampSim completed all CPUs

=== Simulation ===
CPU 0 runs /home/grads/r/rdas40/dpc3_traces/654.roms_s-842B.champsimtrace.xzCPU 1 runs /home/grads/r/rdas40/dpc3_traces/627.cam4_s-573B.champsimtrace.xzCPU 2 runs /home/grads/r/rdas40/dpc3_traces/628.pop2_s-17B.champsimtrace.xzCPU 3 runs /home/grads/r/rdas40/dpc3_traces/621.wrf_s-575B.champsimtrace.xz
Total Simulation Statistics (not including warmup)

CPU 0 cumulative IPC: 2.919 instructions: 247535409 cycles: 84798066
CPU 0 Branch Prediction Accuracy: 95.12% MPKI: 8.054 Average ROB Occupancy at Mispredict: 80.17
Branch type MPKI
BRANCH_DIRECT_JUMP: 0.156
BRANCH_INDIRECT: 0
BRANCH_CONDITIONAL: 6.74
BRANCH_DIRECT_CALL: 0
BRANCH_INDIRECT_CALL: 0
BRANCH_RETURN: 1.15


CPU 1 cumulative IPC: 1.769 instructions: 150000002 cycles: 84798066
CPU 1 Branch Prediction Accuracy: 94.56% MPKI: 7.708 Average ROB Occupancy at Mispredict: 61.15
Branch type MPKI
BRANCH_DIRECT_JUMP: 0.00711
BRANCH_INDIRECT: 0.00237
BRANCH_CONDITIONAL: 7.05
BRANCH_DIRECT_CALL: 0.0271
BRANCH_INDIRECT_CALL: 0
BRANCH_RETURN: 0.627


CPU 2 cumulative IPC: 2.17 instructions: 183998060 cycles: 84798066
CPU 2 Branch Prediction Accuracy: 97.72% MPKI: 3.544 Average ROB Occupancy at Mispredict: 99.17
Branch type MPKI
BRANCH_DIRECT_JUMP: 0.0304
BRANCH_INDIRECT: 0.000832
BRANCH_CONDITIONAL: 3.48
BRANCH_DIRECT_CALL: 0.00151
BRANCH_INDIRECT_CALL: 0
BRANCH_RETURN: 0.0331


CPU 3 cumulative IPC: 2.152 instructions: 182452236 cycles: 84798066
CPU 3 Branch Prediction Accuracy: 94.88% MPKI: 6.859 Average ROB Occupancy at Mispredict: 78.21
Branch type MPKI
BRANCH_DIRECT_JUMP: 0
BRANCH_INDIRECT: 0
BRANCH_CONDITIONAL: 6.84
BRANCH_DIRECT_CALL: 0
BRANCH_INDIRECT_CALL: 0
BRANCH_RETURN: 0.0168

LLC TOTAL        ACCESS:      50404 HIT:       2976 MISS:      47428
LLC LOAD         ACCESS:       1453 HIT:         10 MISS:       1443
LLC RFO          ACCESS:      13093 HIT:        125 MISS:      12968
LLC PREFETCH     ACCESS:      22311 HIT:        956 MISS:      21355
LLC WRITE        ACCESS:      13463 HIT:       1885 MISS:      11578
LLC TRANSLATION  ACCESS:         84 HIT:          0 MISS:         84
LLC PREFETCH REQUESTED:          0 ISSUED:          0 USEFUL:          0 USELESS:          0
LLC AVERAGE MISS LATENCY: 933.9 cycles
LLC TOTAL        ACCESS:    1210897 HIT:     608172 MISS:     602725
LLC LOAD         ACCESS:     100087 HIT:      31795 MISS:      68292
LLC RFO          ACCESS:     524067 HIT:      19710 MISS:     504357
LLC PREFETCH     ACCESS:      50026 HIT:      24226 MISS:      25800
LLC WRITE        ACCESS:     534120 HIT:     532191 MISS:       1929
LLC TRANSLATION  ACCESS:       2597 HIT:        250 MISS:       2347
LLC PREFETCH REQUESTED:          0 ISSUED:          0 USEFUL:          0 USELESS:          0
LLC AVERAGE MISS LATENCY: 933.9 cycles
LLC TOTAL        ACCESS:    1899631 HIT:    1309232 MISS:     590399
LLC LOAD         ACCESS:     541937 HIT:     402740 MISS:     139197
LLC RFO          ACCESS:     374891 HIT:     162261 MISS:     212630
LLC PREFETCH     ACCESS:     432193 HIT:     199170 MISS:     233023
LLC WRITE        ACCESS:     545049 HIT:     543100 MISS:       1949
LLC TRANSLATION  ACCESS:       5561 HIT:       1961 MISS:       3600
LLC PREFETCH REQUESTED:          0 ISSUED:          0 USEFUL:          0 USELESS:          0
LLC AVERAGE MISS LATENCY: 933.9 cycles
LLC TOTAL        ACCESS:       5818 HIT:         93 MISS:       5725
LLC LOAD         ACCESS:        919 HIT:          0 MISS:        919
LLC RFO          ACCESS:       2966 HIT:         67 MISS:       2899
LLC PREFETCH     ACCESS:       1444 HIT:         25 MISS:       1419
LLC WRITE        ACCESS:        370 HIT:          0 MISS:        370
LLC TRANSLATION  ACCESS:        119 HIT:          1 MISS:        118
LLC PREFETCH REQUESTED:          0 ISSUED:          0 USEFUL:          0 USELESS:          0
LLC AVERAGE MISS LATENCY: 933.9 cycles
cpu0_DTLB TOTAL        ACCESS:   30582878 HIT:   30579458 MISS:       3420
cpu0_DTLB LOAD         ACCESS:   30582878 HIT:   30579458 MISS:       3420
cpu0_DTLB RFO          ACCESS:          0 HIT:          0 MISS:          0
cpu0_DTLB PREFETCH     ACCESS:          0 HIT:          0 MISS:          0
cpu0_DTLB WRITE        ACCESS:          0 HIT:          0 MISS:          0
cpu0_DTLB TRANSLATION  ACCESS:          0 HIT:          0 MISS:          0
cpu0_DTLB PREFETCH REQUESTED:          0 ISSUED:          0 USEFUL:          0 USELESS:          0
cpu0_DTLB AVERAGE MISS LATENCY: 51.61 cycles
cpu0_DTLB TOTAL        ACCESS:          0 HIT:          0 MISS:          0
cpu0_DTLB LOAD         ACCESS:          0 HIT:          0 MISS:          0
cpu0_DTLB RFO          ACCESS:          0 HIT:          0 MISS:          0
cpu0_DTLB PREFETCH     ACCESS:          0 HIT:          0 MISS:          0
cpu0_DTLB WRITE        ACCESS:          0 HIT:          0 MISS:          0
cpu0_DTLB TRANSLATION  ACCESS:          0 HIT:          0 MISS:          0
cpu0_DTLB PREFETCH REQUESTED:          0 ISSUED:          0 USEFUL:          0 USELESS:          0
cpu0_DTLB AVERAGE MISS LATENCY: 51.61 cycles
cpu0_DTLB TOTAL        ACCESS:          0 HIT:          0 MISS:          0
cpu0_DTLB LOAD         ACCESS:          0 HIT:          0 MISS:          0
cpu0_DTLB RFO          ACCESS:          0 HIT:          0 MISS:          0
cpu0_DTLB PREFETCH     ACCESS:          0 HIT:          0 MISS:          0
cpu0_DTLB WRITE        ACCESS:          0 HIT:          0 MISS:          0
cpu0_DTLB TRANSLATION  ACCESS:          0 HIT:          0 MISS:          0
cpu0_DTLB PREFETCH REQUESTED:          0 ISSUED:          0 USEFUL:          0 USELESS:          0
cpu0_DTLB AVERAGE MISS LATENCY: 51.61 cycles
cpu0_DTLB TOTAL        ACCESS:          0 HIT:          0 MISS:          0
cpu0_DTLB LOAD         ACCESS:          0 HIT:          0 MISS:          0
cpu0_DTLB RFO          ACCESS:          0 HIT:          0 MISS:          0
cpu0_DTLB PREFETCH     ACCESS:          0 HIT:          0 MISS:          0
cpu0_DTLB WRITE        ACCESS:          0 HIT:          0 MISS:          0
cpu0_DTLB TRANSLATION  ACCESS:          0 HIT:          0 MISS:          0
cpu0_DTLB PREFETCH REQUESTED:          0 ISSUED:          0 USEFUL:          0 USELESS:          0
cpu0_DTLB AVERAGE MISS LATENCY: 51.61 cycles
cpu0_ITLB TOTAL        ACCESS:    2432787 HIT:    2432787 MISS:          0
cpu0_ITLB LOAD         ACCESS:    2432787 HIT:    2432787 MISS:          0
cpu0_ITLB RFO          ACCESS:          0 HIT:          0 MISS:          0
cpu0_ITLB PREFETCH     ACCESS:          0 HIT:          0 MISS:          0
cpu0_ITLB WRITE        ACCESS:          0 HIT:          0 MISS:          0
cpu0_ITLB TRANSLATION  ACCESS:          0 HIT:          0 MISS:          0
cpu0_ITLB PREFETCH REQUESTED:          0 ISSUED:          0 USEFUL:          0 USELESS:          0
cpu0_ITLB AVERAGE MISS LATENCY: -nan cycles
cpu0_ITLB TOTAL        ACCESS:          0 HIT:          0 MISS:          0
cpu0_ITLB LOAD         ACCESS:          0 HIT:          0 MISS:          0
cpu0_ITLB RFO          ACCESS:          0 HIT:          0 MISS:          0
cpu0_ITLB PREFETCH     ACCESS:          0 HIT:          0 MISS:          0
cpu0_ITLB WRITE        ACCESS:          0 HIT:          0 MISS:          0
cpu0_ITLB TRANSLATION  ACCESS:          0 HIT:          0 MISS:          0
cpu0_ITLB PREFETCH REQUESTED:          0 ISSUED:          0 USEFUL:          0 USELESS:          0
cpu0_ITLB AVERAGE MISS LATENCY: -nan cycles
cpu0_ITLB TOTAL        ACCESS:          0 HIT:          0 MISS:          0
cpu0_ITLB LOAD         ACCESS:          0 HIT:          0 MISS:          0
cpu0_ITLB RFO          ACCESS:          0 HIT:          0 MISS:          0
cpu0_ITLB PREFETCH     ACCESS:          0 HIT:          0 MISS:          0
cpu0_ITLB WRITE        ACCESS:          0 HIT:          0 MISS:          0
cpu0_ITLB TRANSLATION  ACCESS:          0 HIT:          0 MISS:          0
cpu0_ITLB PREFETCH REQUESTED:          0 ISSUED:          0 USEFUL:          0 USELESS:          0
cpu0_ITLB AVERAGE MISS LATENCY: -nan cycles
cpu0_ITLB TOTAL        ACCESS:          0 HIT:          0 MISS:          0
cpu0_ITLB LOAD         ACCESS:          0 HIT:          0 MISS:          0
cpu0_ITLB RFO          ACCESS:          0 HIT:          0 MISS:          0
cpu0_ITLB PREFETCH     ACCESS:          0 HIT:          0 MISS:          0
cpu0_ITLB WRITE        ACCESS:          0 HIT:          0 MISS:          0
cpu0_ITLB TRANSLATION  ACCESS:          0 HIT:          0 MISS:          0
cpu0_ITLB PREFETCH REQUESTED:          0 ISSUED:          0 USEFUL:          0 USELESS:          0
cpu0_ITLB AVERAGE MISS LATENCY: -nan cycles
cpu0_L1D TOTAL        ACCESS:   43147945 HIT:   42914703 MISS:     233242
cpu0_L1D LOAD         ACCESS:   23977352 HIT:   23970931 MISS:       6421
cpu0_L1D RFO          ACCESS:          0 HIT:          0 MISS:          0
cpu0_L1D PREFETCH     ACCESS:    1139059 HIT:     963292 MISS:     175767
cpu0_L1D WRITE        ACCESS:   18030800 HIT:   17979839 MISS:      50961
cpu0_L1D TRANSLATION  ACCESS:        734 HIT:        641 MISS:         93
cpu0_L1D PREFETCH REQUESTED:    1381254 ISSUED:    1139059 USEFUL:      16586 USELESS:       2697
cpu0_L1D AVERAGE MISS LATENCY: 79.27 cycles
cpu0_L1D TOTAL        ACCESS:          0 HIT:          0 MISS:          0
cpu0_L1D LOAD         ACCESS:          0 HIT:          0 MISS:          0
cpu0_L1D RFO          ACCESS:          0 HIT:          0 MISS:          0
cpu0_L1D PREFETCH     ACCESS:          0 HIT:          0 MISS:          0
cpu0_L1D WRITE        ACCESS:          0 HIT:          0 MISS:          0
cpu0_L1D TRANSLATION  ACCESS:          0 HIT:          0 MISS:          0
cpu0_L1D PREFETCH REQUESTED:    1381254 ISSUED:    1139059 USEFUL:      16586 USELESS:       2697
cpu0_L1D AVERAGE MISS LATENCY: 79.27 cycles
cpu0_L1D TOTAL        ACCESS:          0 HIT:          0 MISS:          0
cpu0_L1D LOAD         ACCESS:          0 HIT:          0 MISS:          0
cpu0_L1D RFO          ACCESS:          0 HIT:          0 MISS:          0
cpu0_L1D PREFETCH     ACCESS:          0 HIT:          0 MISS:          0
cpu0_L1D WRITE        ACCESS:          0 HIT:          0 MISS:          0
cpu0_L1D TRANSLATION  ACCESS:          0 HIT:          0 MISS:          0
cpu0_L1D PREFETCH REQUESTED:    1381254 ISSUED:    1139059 USEFUL:      16586 USELESS:       2697
cpu0_L1D AVERAGE MISS LATENCY: 79.27 cycles
cpu0_L1D TOTAL        ACCESS:          0 HIT:          0 MISS:          0
cpu0_L1D LOAD         ACCESS:          0 HIT:          0 MISS:          0
cpu0_L1D RFO          ACCESS:          0 HIT:          0 MISS:          0
cpu0_L1D PREFETCH     ACCESS:          0 HIT:          0 MISS:          0
cpu0_L1D WRITE        ACCESS:          0 HIT:          0 MISS:          0
cpu0_L1D TRANSLATION  ACCESS:          0 HIT:          0 MISS:          0
cpu0_L1D PREFETCH REQUESTED:    1381254 ISSUED:    1139059 USEFUL:      16586 USELESS:       2697
cpu0_L1D AVERAGE MISS LATENCY: 79.27 cycles
cpu0_L1I TOTAL        ACCESS:    2887719 HIT:    2887719 MISS:          0
cpu0_L1I LOAD         ACCESS:    2887719 HIT:    2887719 MISS:          0
cpu0_L1I RFO          ACCESS:          0 HIT:          0 MISS:          0
cpu0_L1I PREFETCH     ACCESS:          0 HIT:          0 MISS:          0
cpu0_L1I WRITE        ACCESS:          0 HIT:          0 MISS:          0
cpu0_L1I TRANSLATION  ACCESS:          0 HIT:          0 MISS:          0
cpu0_L1I PREFETCH REQUESTED:          0 ISSUED:          0 USEFUL:          0 USELESS:          0
cpu0_L1I AVERAGE MISS LATENCY: -nan cycles
cpu0_L1I TOTAL        ACCESS:          0 HIT:          0 MISS:          0
cpu0_L1I LOAD         ACCESS:          0 HIT:          0 MISS:          0
cpu0_L1I RFO          ACCESS:          0 HIT:          0 MISS:          0
cpu0_L1I PREFETCH     ACCESS:          0 HIT:          0 MISS:          0
cpu0_L1I WRITE        ACCESS:          0 HIT:          0 MISS:          0
cpu0_L1I TRANSLATION  ACCESS:          0 HIT:          0 MISS:          0
cpu0_L1I PREFETCH REQUESTED:          0 ISSUED:          0 USEFUL:          0 USELESS:          0
cpu0_L1I AVERAGE MISS LATENCY: -nan cycles
cpu0_L1I TOTAL        ACCESS:          0 HIT:          0 MISS:          0
cpu0_L1I LOAD         ACCESS:          0 HIT:          0 MISS:          0
cpu0_L1I RFO          ACCESS:          0 HIT:          0 MISS:          0
cpu0_L1I PREFETCH     ACCESS:          0 HIT:          0 MISS:          0
cpu0_L1I WRITE        ACCESS:          0 HIT:          0 MISS:          0
cpu0_L1I TRANSLATION  ACCESS:          0 HIT:          0 MISS:          0
cpu0_L1I PREFETCH REQUESTED:          0 ISSUED:          0 USEFUL:          0 USELESS:          0
cpu0_L1I AVERAGE MISS LATENCY: -nan cycles
cpu0_L1I TOTAL        ACCESS:          0 HIT:          0 MISS:          0
cpu0_L1I LOAD         ACCESS:          0 HIT:          0 MISS:          0
cpu0_L1I RFO          ACCESS:          0 HIT:          0 MISS:          0
cpu0_L1I PREFETCH     ACCESS:          0 HIT:          0 MISS:          0
cpu0_L1I WRITE        ACCESS:          0 HIT:          0 MISS:          0
cpu0_L1I TRANSLATION  ACCESS:          0 HIT:          0 MISS:          0
cpu0_L1I PREFETCH REQUESTED:          0 ISSUED:          0 USEFUL:          0 USELESS:          0
cpu0_L1I AVERAGE MISS LATENCY: -nan cycles
cpu0_L2C TOTAL        ACCESS:     205460 HIT:     137810 MISS:      67650
cpu0_L2C LOAD         ACCESS:       3518 HIT:       1917 MISS:       1601
cpu0_L2C RFO          ACCESS:      13815 HIT:        722 MISS:      13093
cpu0_L2C PREFETCH     ACCESS:     174178 HIT:     121310 MISS:      52868
cpu0_L2C WRITE        ACCESS:      13856 HIT:      13852 MISS:          4
cpu0_L2C TRANSLATION  ACCESS:         93 HIT:          9 MISS:         84
cpu0_L2C PREFETCH REQUESTED:          0 ISSUED:          0 USEFUL:          0 USELESS:          0
cpu0_L2C AVERAGE MISS LATENCY: 418.7 cycles
cpu0_L2C TOTAL        ACCESS:          0 HIT:          0 MISS:          0
cpu0_L2C LOAD         ACCESS:          0 HIT:          0 MISS:          0
cpu0_L2C RFO          ACCESS:          0 HIT:          0 MISS:          0
cpu0_L2C PREFETCH     ACCESS:          0 HIT:          0 MISS:          0
cpu0_L2C WRITE        ACCESS:          0 HIT:          0 MISS:          0
cpu0_L2C TRANSLATION  ACCESS:          0 HIT:          0 MISS:          0
cpu0_L2C PREFETCH REQUESTED:          0 ISSUED:          0 USEFUL:          0 USELESS:          0
cpu0_L2C AVERAGE MISS LATENCY: 418.7 cycles
cpu0_L2C TOTAL        ACCESS:          0 HIT:          0 MISS:          0
cpu0_L2C LOAD         ACCESS:          0 HIT:          0 MISS:          0
cpu0_L2C RFO          ACCESS:          0 HIT:          0 MISS:          0
cpu0_L2C PREFETCH     ACCESS:          0 HIT:          0 MISS:          0
cpu0_L2C WRITE        ACCESS:          0 HIT:          0 MISS:          0
cpu0_L2C TRANSLATION  ACCESS:          0 HIT:          0 MISS:          0
cpu0_L2C PREFETCH REQUESTED:          0 ISSUED:          0 USEFUL:          0 USELESS:          0
cpu0_L2C AVERAGE MISS LATENCY: 418.7 cycles
cpu0_L2C TOTAL        ACCESS:          0 HIT:          0 MISS:          0
cpu0_L2C LOAD         ACCESS:          0 HIT:          0 MISS:          0
cpu0_L2C RFO          ACCESS:          0 HIT:          0 MISS:          0
cpu0_L2C PREFETCH     ACCESS:          0 HIT:          0 MISS:          0
cpu0_L2C WRITE        ACCESS:          0 HIT:          0 MISS:          0
cpu0_L2C TRANSLATION  ACCESS:          0 HIT:          0 MISS:          0
cpu0_L2C PREFETCH REQUESTED:          0 ISSUED:          0 USEFUL:          0 USELESS:          0
cpu0_L2C AVERAGE MISS LATENCY: 418.7 cycles
cpu0_STLB TOTAL        ACCESS:        800 HIT:         68 MISS:        732
cpu0_STLB LOAD         ACCESS:        800 HIT:         68 MISS:        732
cpu0_STLB RFO          ACCESS:          0 HIT:          0 MISS:          0
cpu0_STLB PREFETCH     ACCESS:          0 HIT:          0 MISS:          0
cpu0_STLB WRITE        ACCESS:          0 HIT:          0 MISS:          0
cpu0_STLB TRANSLATION  ACCESS:          0 HIT:          0 MISS:          0
cpu0_STLB PREFETCH REQUESTED:          0 ISSUED:          0 USEFUL:          0 USELESS:          0
cpu0_STLB AVERAGE MISS LATENCY: 303.6 cycles
cpu0_STLB TOTAL        ACCESS:          0 HIT:          0 MISS:          0
cpu0_STLB LOAD         ACCESS:          0 HIT:          0 MISS:          0
cpu0_STLB RFO          ACCESS:          0 HIT:          0 MISS:          0
cpu0_STLB PREFETCH     ACCESS:          0 HIT:          0 MISS:          0
cpu0_STLB WRITE        ACCESS:          0 HIT:          0 MISS:          0
cpu0_STLB TRANSLATION  ACCESS:          0 HIT:          0 MISS:          0
cpu0_STLB PREFETCH REQUESTED:          0 ISSUED:          0 USEFUL:          0 USELESS:          0
cpu0_STLB AVERAGE MISS LATENCY: 303.6 cycles
cpu0_STLB TOTAL        ACCESS:          0 HIT:          0 MISS:          0
cpu0_STLB LOAD         ACCESS:          0 HIT:          0 MISS:          0
cpu0_STLB RFO          ACCESS:          0 HIT:          0 MISS:          0
cpu0_STLB PREFETCH     ACCESS:          0 HIT:          0 MISS:          0
cpu0_STLB WRITE        ACCESS:          0 HIT:          0 MISS:          0
cpu0_STLB TRANSLATION  ACCESS:          0 HIT:          0 MISS:          0
cpu0_STLB PREFETCH REQUESTED:          0 ISSUED:          0 USEFUL:          0 USELESS:          0
cpu0_STLB AVERAGE MISS LATENCY: 303.6 cycles
cpu0_STLB TOTAL        ACCESS:          0 HIT:          0 MISS:          0
cpu0_STLB LOAD         ACCESS:          0 HIT:          0 MISS:          0
cpu0_STLB RFO          ACCESS:          0 HIT:          0 MISS:          0
cpu0_STLB PREFETCH     ACCESS:          0 HIT:          0 MISS:          0
cpu0_STLB WRITE        ACCESS:          0 HIT:          0 MISS:          0
cpu0_STLB TRANSLATION  ACCESS:          0 HIT:          0 MISS:          0
cpu0_STLB PREFETCH REQUESTED:          0 ISSUED:          0 USEFUL:          0 USELESS:          0
cpu0_STLB AVERAGE MISS LATENCY: 303.6 cycles
cpu1_DTLB TOTAL        ACCESS:          0 HIT:          0 MISS:          0
cpu1_DTLB LOAD         ACCESS:          0 HIT:          0 MISS:          0
cpu1_DTLB RFO          ACCESS:          0 HIT:          0 MISS:          0
cpu1_DTLB PREFETCH     ACCESS:          0 HIT:          0 MISS:          0
cpu1_DTLB WRITE        ACCESS:          0 HIT:          0 MISS:          0
cpu1_DTLB TRANSLATION  ACCESS:          0 HIT:          0 MISS:          0
cpu1_DTLB PREFETCH REQUESTED:          0 ISSUED:          0 USEFUL:          0 USELESS:          0
cpu1_DTLB AVERAGE MISS LATENCY: 7.335 cycles
cpu1_DTLB TOTAL        ACCESS:   22253286 HIT:   21999840 MISS:     253446
cpu1_DTLB LOAD         ACCESS:   22253286 HIT:   21999840 MISS:     253446
cpu1_DTLB RFO          ACCESS:          0 HIT:          0 MISS:          0
cpu1_DTLB PREFETCH     ACCESS:          0 HIT:          0 MISS:          0
cpu1_DTLB WRITE        ACCESS:          0 HIT:          0 MISS:          0
cpu1_DTLB TRANSLATION  ACCESS:          0 HIT:          0 MISS:          0
cpu1_DTLB PREFETCH REQUESTED:          0 ISSUED:          0 USEFUL:          0 USELESS:          0
cpu1_DTLB AVERAGE MISS LATENCY: 7.335 cycles
cpu1_DTLB TOTAL        ACCESS:          0 HIT:          0 MISS:          0
cpu1_DTLB LOAD         ACCESS:          0 HIT:          0 MISS:          0
cpu1_DTLB RFO          ACCESS:          0 HIT:          0 MISS:          0
cpu1_DTLB PREFETCH     ACCESS:          0 HIT:          0 MISS:          0
cpu1_DTLB WRITE        ACCESS:          0 HIT:          0 MISS:          0
cpu1_DTLB TRANSLATION  ACCESS:          0 HIT:          0 MISS:          0
cpu1_DTLB PREFETCH REQUESTED:          0 ISSUED:          0 USEFUL:          0 USELESS:          0
cpu1_DTLB AVERAGE MISS LATENCY: 7.335 cycles
cpu1_DTLB TOTAL        ACCESS:          0 HIT:          0 MISS:          0
cpu1_DTLB LOAD         ACCESS:          0 HIT:          0 MISS:          0
cpu1_DTLB RFO          ACCESS:          0 HIT:          0 MISS:          0
cpu1_DTLB PREFETCH     ACCESS:          0 HIT:          0 MISS:          0
cpu1_DTLB WRITE        ACCESS:          0 HIT:          0 MISS:          0
cpu1_DTLB TRANSLATION  ACCESS:          0 HIT:          0 MISS:          0
cpu1_DTLB PREFETCH REQUESTED:          0 ISSUED:          0 USEFUL:          0 USELESS:          0
cpu1_DTLB AVERAGE MISS LATENCY: 7.335 cycles
cpu1_ITLB TOTAL        ACCESS:          0 HIT:          0 MISS:          0
cpu1_ITLB LOAD         ACCESS:          0 HIT:          0 MISS:          0
cpu1_ITLB RFO          ACCESS:          0 HIT:          0 MISS:          0
cpu1_ITLB PREFETCH     ACCESS:          0 HIT:          0 MISS:          0
cpu1_ITLB WRITE        ACCESS:          0 HIT:          0 MISS:          0
cpu1_ITLB TRANSLATION  ACCESS:          0 HIT:          0 MISS:          0
cpu1_ITLB PREFETCH REQUESTED:          0 ISSUED:          0 USEFUL:          0 USELESS:          0
cpu1_ITLB AVERAGE MISS LATENCY: 36.2 cycles
cpu1_ITLB TOTAL        ACCESS:    2819984 HIT:    2816704 MISS:       3280
cpu1_ITLB LOAD         ACCESS:    2819984 HIT:    2816704 MISS:       3280
cpu1_ITLB RFO          ACCESS:          0 HIT:          0 MISS:          0
cpu1_ITLB PREFETCH     ACCESS:          0 HIT:          0 MISS:          0
cpu1_ITLB WRITE        ACCESS:          0 HIT:          0 MISS:          0
cpu1_ITLB TRANSLATION  ACCESS:          0 HIT:          0 MISS:          0
cpu1_ITLB PREFETCH REQUESTED:          0 ISSUED:          0 USEFUL:          0 USELESS:          0
cpu1_ITLB AVERAGE MISS LATENCY: 36.2 cycles
cpu1_ITLB TOTAL        ACCESS:          0 HIT:          0 MISS:          0
cpu1_ITLB LOAD         ACCESS:          0 HIT:          0 MISS:          0
cpu1_ITLB RFO          ACCESS:          0 HIT:          0 MISS:          0
cpu1_ITLB PREFETCH     ACCESS:          0 HIT:          0 MISS:          0
cpu1_ITLB WRITE        ACCESS:          0 HIT:          0 MISS:          0
cpu1_ITLB TRANSLATION  ACCESS:          0 HIT:          0 MISS:          0
cpu1_ITLB PREFETCH REQUESTED:          0 ISSUED:          0 USEFUL:          0 USELESS:          0
cpu1_ITLB AVERAGE MISS LATENCY: 36.2 cycles
cpu1_ITLB TOTAL        ACCESS:          0 HIT:          0 MISS:          0
cpu1_ITLB LOAD         ACCESS:          0 HIT:          0 MISS:          0
cpu1_ITLB RFO          ACCESS:          0 HIT:          0 MISS:          0
cpu1_ITLB PREFETCH     ACCESS:          0 HIT:          0 MISS:          0
cpu1_ITLB WRITE        ACCESS:          0 HIT:          0 MISS:          0
cpu1_ITLB TRANSLATION  ACCESS:          0 HIT:          0 MISS:          0
cpu1_ITLB PREFETCH REQUESTED:          0 ISSUED:          0 USEFUL:          0 USELESS:          0
cpu1_ITLB AVERAGE MISS LATENCY: 36.2 cycles
cpu1_L1D TOTAL        ACCESS:          0 HIT:          0 MISS:          0
cpu1_L1D LOAD         ACCESS:          0 HIT:          0 MISS:          0
cpu1_L1D RFO          ACCESS:          0 HIT:          0 MISS:          0
cpu1_L1D PREFETCH     ACCESS:          0 HIT:          0 MISS:          0
cpu1_L1D WRITE        ACCESS:          0 HIT:          0 MISS:          0
cpu1_L1D TRANSLATION  ACCESS:          0 HIT:          0 MISS:          0
cpu1_L1D PREFETCH REQUESTED:   12529972 ISSUED:    2854196 USEFUL:     111785 USELESS:      48059
cpu1_L1D AVERAGE MISS LATENCY: 174.3 cycles
cpu1_L1D TOTAL        ACCESS:   32106855 HIT:   27891081 MISS:    4215774
cpu1_L1D LOAD         ACCESS:   15115915 HIT:   14515112 MISS:     600803
cpu1_L1D RFO          ACCESS:          0 HIT:          0 MISS:          0
cpu1_L1D PREFETCH     ACCESS:    2854215 HIT:    2155611 MISS:     698604
cpu1_L1D WRITE        ACCESS:   14124711 HIT:   11212084 MISS:    2912627
cpu1_L1D TRANSLATION  ACCESS:      12014 HIT:       8274 MISS:       3740
cpu1_L1D PREFETCH REQUESTED:   12529972 ISSUED:    2854196 USEFUL:     111785 USELESS:      48059
cpu1_L1D AVERAGE MISS LATENCY: 174.3 cycles
cpu1_L1D TOTAL        ACCESS:          0 HIT:          0 MISS:          0
cpu1_L1D LOAD         ACCESS:          0 HIT:          0 MISS:          0
cpu1_L1D RFO          ACCESS:          0 HIT:          0 MISS:          0
cpu1_L1D PREFETCH     ACCESS:          0 HIT:          0 MISS:          0
cpu1_L1D WRITE        ACCESS:          0 HIT:          0 MISS:          0
cpu1_L1D TRANSLATION  ACCESS:          0 HIT:          0 MISS:          0
cpu1_L1D PREFETCH REQUESTED:   12529972 ISSUED:    2854196 USEFUL:     111785 USELESS:      48059
cpu1_L1D AVERAGE MISS LATENCY: 174.3 cycles
cpu1_L1D TOTAL        ACCESS:          0 HIT:          0 MISS:          0
cpu1_L1D LOAD         ACCESS:          0 HIT:          0 MISS:          0
cpu1_L1D RFO          ACCESS:          0 HIT:          0 MISS:          0
cpu1_L1D PREFETCH     ACCESS:          0 HIT:          0 MISS:          0
cpu1_L1D WRITE        ACCESS:          0 HIT:          0 MISS:          0
cpu1_L1D TRANSLATION  ACCESS:          0 HIT:          0 MISS:          0
cpu1_L1D PREFETCH REQUESTED:   12529972 ISSUED:    2854196 USEFUL:     111785 USELESS:      48059
cpu1_L1D AVERAGE MISS LATENCY: 174.3 cycles
cpu1_L1I TOTAL        ACCESS:          0 HIT:          0 MISS:          0
cpu1_L1I LOAD         ACCESS:          0 HIT:          0 MISS:          0
cpu1_L1I RFO          ACCESS:          0 HIT:          0 MISS:          0
cpu1_L1I PREFETCH     ACCESS:          0 HIT:          0 MISS:          0
cpu1_L1I WRITE        ACCESS:          0 HIT:          0 MISS:          0
cpu1_L1I TRANSLATION  ACCESS:          0 HIT:          0 MISS:          0
cpu1_L1I PREFETCH REQUESTED:          0 ISSUED:          0 USEFUL:          0 USELESS:          0
cpu1_L1I AVERAGE MISS LATENCY: 62.93 cycles
cpu1_L1I TOTAL        ACCESS:    3619306 HIT:    3545680 MISS:      73626
cpu1_L1I LOAD         ACCESS:    3619306 HIT:    3545680 MISS:      73626
cpu1_L1I RFO          ACCESS:          0 HIT:          0 MISS:          0
cpu1_L1I PREFETCH     ACCESS:          0 HIT:          0 MISS:          0
cpu1_L1I WRITE        ACCESS:          0 HIT:          0 MISS:          0
cpu1_L1I TRANSLATION  ACCESS:          0 HIT:          0 MISS:          0
cpu1_L1I PREFETCH REQUESTED:          0 ISSUED:          0 USEFUL:          0 USELESS:          0
cpu1_L1I AVERAGE MISS LATENCY: 62.93 cycles
cpu1_L1I TOTAL        ACCESS:          0 HIT:          0 MISS:          0
cpu1_L1I LOAD         ACCESS:          0 HIT:          0 MISS:          0
cpu1_L1I RFO          ACCESS:          0 HIT:          0 MISS:          0
cpu1_L1I PREFETCH     ACCESS:          0 HIT:          0 MISS:          0
cpu1_L1I WRITE        ACCESS:          0 HIT:          0 MISS:          0
cpu1_L1I TRANSLATION  ACCESS:          0 HIT:          0 MISS:          0
cpu1_L1I PREFETCH REQUESTED:          0 ISSUED:          0 USEFUL:          0 USELESS:          0
cpu1_L1I AVERAGE MISS LATENCY: 62.93 cycles
cpu1_L1I TOTAL        ACCESS:          0 HIT:          0 MISS:          0
cpu1_L1I LOAD         ACCESS:          0 HIT:          0 MISS:          0
cpu1_L1I RFO          ACCESS:          0 HIT:          0 MISS:          0
cpu1_L1I PREFETCH     ACCESS:          0 HIT:          0 MISS:          0
cpu1_L1I WRITE        ACCESS:          0 HIT:          0 MISS:          0
cpu1_L1I TRANSLATION  ACCESS:          0 HIT:          0 MISS:          0
cpu1_L1I PREFETCH REQUESTED:          0 ISSUED:          0 USEFUL:          0 USELESS:          0
cpu1_L1I AVERAGE MISS LATENCY: 62.93 cycles
cpu1_L2C TOTAL        ACCESS:          0 HIT:          0 MISS:          0
cpu1_L2C LOAD         ACCESS:          0 HIT:          0 MISS:          0
cpu1_L2C RFO          ACCESS:          0 HIT:          0 MISS:          0
cpu1_L2C PREFETCH     ACCESS:          0 HIT:          0 MISS:          0
cpu1_L2C WRITE        ACCESS:          0 HIT:          0 MISS:          0
cpu1_L2C TRANSLATION  ACCESS:          0 HIT:          0 MISS:          0
cpu1_L2C PREFETCH REQUESTED:          0 ISSUED:          0 USEFUL:          0 USELESS:          0
cpu1_L2C AVERAGE MISS LATENCY: 1042 cycles
cpu1_L2C TOTAL        ACCESS:    2789022 HIT:    2081599 MISS:     707423
cpu1_L2C LOAD         ACCESS:     497008 HIT:     394446 MISS:     102562
cpu1_L2C RFO          ACCESS:     766370 HIT:     242268 MISS:     524102
cpu1_L2C PREFETCH     ACCESS:     677543 HIT:     599414 MISS:      78129
cpu1_L2C WRITE        ACCESS:     844391 HIT:     844358 MISS:         33
cpu1_L2C TRANSLATION  ACCESS:       3710 HIT:       1113 MISS:       2597
cpu1_L2C PREFETCH REQUESTED:          0 ISSUED:          0 USEFUL:          0 USELESS:          0
cpu1_L2C AVERAGE MISS LATENCY: 1042 cycles
cpu1_L2C TOTAL        ACCESS:          0 HIT:          0 MISS:          0
cpu1_L2C LOAD         ACCESS:          0 HIT:          0 MISS:          0
cpu1_L2C RFO          ACCESS:          0 HIT:          0 MISS:          0
cpu1_L2C PREFETCH     ACCESS:          0 HIT:          0 MISS:          0
cpu1_L2C WRITE        ACCESS:          0 HIT:          0 MISS:          0
cpu1_L2C TRANSLATION  ACCESS:          0 HIT:          0 MISS:          0
cpu1_L2C PREFETCH REQUESTED:          0 ISSUED:          0 USEFUL:          0 USELESS:          0
cpu1_L2C AVERAGE MISS LATENCY: 1042 cycles
cpu1_L2C TOTAL        ACCESS:          0 HIT:          0 MISS:          0
cpu1_L2C LOAD         ACCESS:          0 HIT:          0 MISS:          0
cpu1_L2C RFO          ACCESS:          0 HIT:          0 MISS:          0
cpu1_L2C PREFETCH     ACCESS:          0 HIT:          0 MISS:          0
cpu1_L2C WRITE        ACCESS:          0 HIT:          0 MISS:          0
cpu1_L2C TRANSLATION  ACCESS:          0 HIT:          0 MISS:          0
cpu1_L2C PREFETCH REQUESTED:          0 ISSUED:          0 USEFUL:          0 USELESS:          0
cpu1_L2C AVERAGE MISS LATENCY: 1042 cycles
cpu1_STLB TOTAL        ACCESS:          0 HIT:          0 MISS:          0
cpu1_STLB LOAD         ACCESS:          0 HIT:          0 MISS:          0
cpu1_STLB RFO          ACCESS:          0 HIT:          0 MISS:          0
cpu1_STLB PREFETCH     ACCESS:          0 HIT:          0 MISS:          0
cpu1_STLB WRITE        ACCESS:          0 HIT:          0 MISS:          0
cpu1_STLB TRANSLATION  ACCESS:          0 HIT:          0 MISS:          0
cpu1_STLB PREFETCH REQUESTED:          0 ISSUED:          0 USEFUL:          0 USELESS:          0
cpu1_STLB AVERAGE MISS LATENCY: 148 cycles
cpu1_STLB TOTAL        ACCESS:     105450 HIT:      93767 MISS:      11683
cpu1_STLB LOAD         ACCESS:     105450 HIT:      93767 MISS:      11683
cpu1_STLB RFO          ACCESS:          0 HIT:          0 MISS:          0
cpu1_STLB PREFETCH     ACCESS:          0 HIT:          0 MISS:          0
cpu1_STLB WRITE        ACCESS:          0 HIT:          0 MISS:          0
cpu1_STLB TRANSLATION  ACCESS:          0 HIT:          0 MISS:          0
cpu1_STLB PREFETCH REQUESTED:          0 ISSUED:          0 USEFUL:          0 USELESS:          0
cpu1_STLB AVERAGE MISS LATENCY: 148 cycles
cpu1_STLB TOTAL        ACCESS:          0 HIT:          0 MISS:          0
cpu1_STLB LOAD         ACCESS:          0 HIT:          0 MISS:          0
cpu1_STLB RFO          ACCESS:          0 HIT:          0 MISS:          0
cpu1_STLB PREFETCH     ACCESS:          0 HIT:          0 MISS:          0
cpu1_STLB WRITE        ACCESS:          0 HIT:          0 MISS:          0
cpu1_STLB TRANSLATION  ACCESS:          0 HIT:          0 MISS:          0
cpu1_STLB PREFETCH REQUESTED:          0 ISSUED:          0 USEFUL:          0 USELESS:          0
cpu1_STLB AVERAGE MISS LATENCY: 148 cycles
cpu1_STLB TOTAL        ACCESS:          0 HIT:          0 MISS:          0
cpu1_STLB LOAD         ACCESS:          0 HIT:          0 MISS:          0
cpu1_STLB RFO          ACCESS:          0 HIT:          0 MISS:          0
cpu1_STLB PREFETCH     ACCESS:          0 HIT:          0 MISS:          0
cpu1_STLB WRITE        ACCESS:          0 HIT:          0 MISS:          0
cpu1_STLB TRANSLATION  ACCESS:          0 HIT:          0 MISS:          0
cpu1_STLB PREFETCH REQUESTED:          0 ISSUED:          0 USEFUL:          0 USELESS:          0
cpu1_STLB AVERAGE MISS LATENCY: 148 cycles
cpu2_DTLB TOTAL        ACCESS:          0 HIT:          0 MISS:          0
cpu2_DTLB LOAD         ACCESS:          0 HIT:          0 MISS:          0
cpu2_DTLB RFO          ACCESS:          0 HIT:          0 MISS:          0
cpu2_DTLB PREFETCH     ACCESS:          0 HIT:          0 MISS:          0
cpu2_DTLB WRITE        ACCESS:          0 HIT:          0 MISS:          0
cpu2_DTLB TRANSLATION  ACCESS:          0 HIT:          0 MISS:          0
cpu2_DTLB PREFETCH REQUESTED:          0 ISSUED:          0 USEFUL:          0 USELESS:          0
cpu2_DTLB AVERAGE MISS LATENCY: 11.31 cycles
cpu2_DTLB TOTAL        ACCESS:          0 HIT:          0 MISS:          0
cpu2_DTLB LOAD         ACCESS:          0 HIT:          0 MISS:          0
cpu2_DTLB RFO          ACCESS:          0 HIT:          0 MISS:          0
cpu2_DTLB PREFETCH     ACCESS:          0 HIT:          0 MISS:          0
cpu2_DTLB WRITE        ACCESS:          0 HIT:          0 MISS:          0
cpu2_DTLB TRANSLATION  ACCESS:          0 HIT:          0 MISS:          0
cpu2_DTLB PREFETCH REQUESTED:          0 ISSUED:          0 USEFUL:          0 USELESS:          0
cpu2_DTLB AVERAGE MISS LATENCY: 11.31 cycles
cpu2_DTLB TOTAL        ACCESS:   24779944 HIT:   24552580 MISS:     227364
cpu2_DTLB LOAD         ACCESS:   24779944 HIT:   24552580 MISS:     227364
cpu2_DTLB RFO          ACCESS:          0 HIT:          0 MISS:          0
cpu2_DTLB PREFETCH     ACCESS:          0 HIT:          0 MISS:          0
cpu2_DTLB WRITE        ACCESS:          0 HIT:          0 MISS:          0
cpu2_DTLB TRANSLATION  ACCESS:          0 HIT:          0 MISS:          0
cpu2_DTLB PREFETCH REQUESTED:          0 ISSUED:          0 USEFUL:          0 USELESS:          0
cpu2_DTLB AVERAGE MISS LATENCY: 11.31 cycles
cpu2_DTLB TOTAL        ACCESS:          0 HIT:          0 MISS:          0
cpu2_DTLB LOAD         ACCESS:          0 HIT:          0 MISS:          0
cpu2_DTLB RFO          ACCESS:          0 HIT:          0 MISS:          0
cpu2_DTLB PREFETCH     ACCESS:          0 HIT:          0 MISS:          0
cpu2_DTLB WRITE        ACCESS:          0 HIT:          0 MISS:          0
cpu2_DTLB TRANSLATION  ACCESS:          0 HIT:          0 MISS:          0
cpu2_DTLB PREFETCH REQUESTED:          0 ISSUED:          0 USEFUL:          0 USELESS:          0
cpu2_DTLB AVERAGE MISS LATENCY: 11.31 cycles
cpu2_ITLB TOTAL        ACCESS:          0 HIT:          0 MISS:          0
cpu2_ITLB LOAD         ACCESS:          0 HIT:          0 MISS:          0
cpu2_ITLB RFO          ACCESS:          0 HIT:          0 MISS:          0
cpu2_ITLB PREFETCH     ACCESS:          0 HIT:          0 MISS:          0
cpu2_ITLB WRITE        ACCESS:          0 HIT:          0 MISS:          0
cpu2_ITLB TRANSLATION  ACCESS:          0 HIT:          0 MISS:          0
cpu2_ITLB PREFETCH REQUESTED:          0 ISSUED:          0 USEFUL:          0 USELESS:          0
cpu2_ITLB AVERAGE MISS LATENCY: 7.29 cycles
cpu2_ITLB TOTAL        ACCESS:          0 HIT:          0 MISS:          0
cpu2_ITLB LOAD         ACCESS:          0 HIT:          0 MISS:          0
cpu2_ITLB RFO          ACCESS:          0 HIT:          0 MISS:          0
cpu2_ITLB PREFETCH     ACCESS:          0 HIT:          0 MISS:          0
cpu2_ITLB WRITE        ACCESS:          0 HIT:          0 MISS:          0
cpu2_ITLB TRANSLATION  ACCESS:          0 HIT:          0 MISS:          0
cpu2_ITLB PREFETCH REQUESTED:          0 ISSUED:          0 USEFUL:          0 USELESS:          0
cpu2_ITLB AVERAGE MISS LATENCY: 7.29 cycles
cpu2_ITLB TOTAL        ACCESS:     393450 HIT:     383866 MISS:       9584
cpu2_ITLB LOAD         ACCESS:     393450 HIT:     383866 MISS:       9584
cpu2_ITLB RFO          ACCESS:          0 HIT:          0 MISS:          0
cpu2_ITLB PREFETCH     ACCESS:          0 HIT:          0 MISS:          0
cpu2_ITLB WRITE        ACCESS:          0 HIT:          0 MISS:          0
cpu2_ITLB TRANSLATION  ACCESS:          0 HIT:          0 MISS:          0
cpu2_ITLB PREFETCH REQUESTED:          0 ISSUED:          0 USEFUL:          0 USELESS:          0
cpu2_ITLB AVERAGE MISS LATENCY: 7.29 cycles
cpu2_ITLB TOTAL        ACCESS:          0 HIT:          0 MISS:          0
cpu2_ITLB LOAD         ACCESS:          0 HIT:          0 MISS:          0
cpu2_ITLB RFO          ACCESS:          0 HIT:          0 MISS:          0
cpu2_ITLB PREFETCH     ACCESS:          0 HIT:          0 MISS:          0
cpu2_ITLB WRITE        ACCESS:          0 HIT:          0 MISS:          0
cpu2_ITLB TRANSLATION  ACCESS:          0 HIT:          0 MISS:          0
cpu2_ITLB PREFETCH REQUESTED:          0 ISSUED:          0 USEFUL:          0 USELESS:          0
cpu2_ITLB AVERAGE MISS LATENCY: 7.29 cycles
cpu2_L1D TOTAL        ACCESS:          0 HIT:          0 MISS:          0
cpu2_L1D LOAD         ACCESS:          0 HIT:          0 MISS:          0
cpu2_L1D RFO          ACCESS:          0 HIT:          0 MISS:          0
cpu2_L1D PREFETCH     ACCESS:          0 HIT:          0 MISS:          0
cpu2_L1D WRITE        ACCESS:          0 HIT:          0 MISS:          0
cpu2_L1D TRANSLATION  ACCESS:          0 HIT:          0 MISS:          0
cpu2_L1D PREFETCH REQUESTED:   40535255 ISSUED:    6012384 USEFUL:     369187 USELESS:     190641
cpu2_L1D AVERAGE MISS LATENCY: 49.4 cycles
cpu2_L1D TOTAL        ACCESS:          0 HIT:          0 MISS:          0
cpu2_L1D LOAD         ACCESS:          0 HIT:          0 MISS:          0
cpu2_L1D RFO          ACCESS:          0 HIT:          0 MISS:          0
cpu2_L1D PREFETCH     ACCESS:          0 HIT:          0 MISS:          0
cpu2_L1D WRITE        ACCESS:          0 HIT:          0 MISS:          0
cpu2_L1D TRANSLATION  ACCESS:          0 HIT:          0 MISS:          0
cpu2_L1D PREFETCH REQUESTED:   40535255 ISSUED:    6012384 USEFUL:     369187 USELESS:     190641
cpu2_L1D AVERAGE MISS LATENCY: 49.4 cycles
cpu2_L1D TOTAL        ACCESS:   36631064 HIT:   28905578 MISS:    7725486
cpu2_L1D LOAD         ACCESS:   18383044 HIT:   16090117 MISS:    2292927
cpu2_L1D RFO          ACCESS:          0 HIT:          0 MISS:          0
cpu2_L1D PREFETCH     ACCESS:    6012378 HIT:    4277135 MISS:    1735243
cpu2_L1D WRITE        ACCESS:   12225176 HIT:    8536088 MISS:    3689088
cpu2_L1D TRANSLATION  ACCESS:      10466 HIT:       2238 MISS:       8228
cpu2_L1D PREFETCH REQUESTED:   40535255 ISSUED:    6012384 USEFUL:     369187 USELESS:     190641
cpu2_L1D AVERAGE MISS LATENCY: 49.4 cycles
cpu2_L1D TOTAL        ACCESS:          0 HIT:          0 MISS:          0
cpu2_L1D LOAD         ACCESS:          0 HIT:          0 MISS:          0
cpu2_L1D RFO          ACCESS:          0 HIT:          0 MISS:          0
cpu2_L1D PREFETCH     ACCESS:          0 HIT:          0 MISS:          0
cpu2_L1D WRITE        ACCESS:          0 HIT:          0 MISS:          0
cpu2_L1D TRANSLATION  ACCESS:          0 HIT:          0 MISS:          0
cpu2_L1D PREFETCH REQUESTED:   40535255 ISSUED:    6012384 USEFUL:     369187 USELESS:     190641
cpu2_L1D AVERAGE MISS LATENCY: 49.4 cycles
cpu2_L1I TOTAL        ACCESS:          0 HIT:          0 MISS:          0
cpu2_L1I LOAD         ACCESS:          0 HIT:          0 MISS:          0
cpu2_L1I RFO          ACCESS:          0 HIT:          0 MISS:          0
cpu2_L1I PREFETCH     ACCESS:          0 HIT:          0 MISS:          0
cpu2_L1I WRITE        ACCESS:          0 HIT:          0 MISS:          0
cpu2_L1I TRANSLATION  ACCESS:          0 HIT:          0 MISS:          0
cpu2_L1I PREFETCH REQUESTED:          0 ISSUED:          0 USEFUL:          0 USELESS:          0
cpu2_L1I AVERAGE MISS LATENCY: 24.82 cycles
cpu2_L1I TOTAL        ACCESS:          0 HIT:          0 MISS:          0
cpu2_L1I LOAD         ACCESS:          0 HIT:          0 MISS:          0
cpu2_L1I RFO          ACCESS:          0 HIT:          0 MISS:          0
cpu2_L1I PREFETCH     ACCESS:          0 HIT:          0 MISS:          0
cpu2_L1I WRITE        ACCESS:          0 HIT:          0 MISS:          0
cpu2_L1I TRANSLATION  ACCESS:          0 HIT:          0 MISS:          0
cpu2_L1I PREFETCH REQUESTED:          0 ISSUED:          0 USEFUL:          0 USELESS:          0
cpu2_L1I AVERAGE MISS LATENCY: 24.82 cycles
cpu2_L1I TOTAL        ACCESS:     484073 HIT:     320543 MISS:     163530
cpu2_L1I LOAD         ACCESS:     484073 HIT:     320543 MISS:     163530
cpu2_L1I RFO          ACCESS:          0 HIT:          0 MISS:          0
cpu2_L1I PREFETCH     ACCESS:          0 HIT:          0 MISS:          0
cpu2_L1I WRITE        ACCESS:          0 HIT:          0 MISS:          0
cpu2_L1I TRANSLATION  ACCESS:          0 HIT:          0 MISS:          0
cpu2_L1I PREFETCH REQUESTED:          0 ISSUED:          0 USEFUL:          0 USELESS:          0
cpu2_L1I AVERAGE MISS LATENCY: 24.82 cycles
cpu2_L1I TOTAL        ACCESS:          0 HIT:          0 MISS:          0
cpu2_L1I LOAD         ACCESS:          0 HIT:          0 MISS:          0
cpu2_L1I RFO          ACCESS:          0 HIT:          0 MISS:          0
cpu2_L1I PREFETCH     ACCESS:          0 HIT:          0 MISS:          0
cpu2_L1I WRITE        ACCESS:          0 HIT:          0 MISS:          0
cpu2_L1I TRANSLATION  ACCESS:          0 HIT:          0 MISS:          0
cpu2_L1I PREFETCH REQUESTED:          0 ISSUED:          0 USEFUL:          0 USELESS:          0
cpu2_L1I AVERAGE MISS LATENCY: 24.82 cycles
cpu2_L2C TOTAL        ACCESS:          0 HIT:          0 MISS:          0
cpu2_L2C LOAD         ACCESS:          0 HIT:          0 MISS:          0
cpu2_L2C RFO          ACCESS:          0 HIT:          0 MISS:          0
cpu2_L2C PREFETCH     ACCESS:          0 HIT:          0 MISS:          0
cpu2_L2C WRITE        ACCESS:          0 HIT:          0 MISS:          0
cpu2_L2C TRANSLATION  ACCESS:          0 HIT:          0 MISS:          0
cpu2_L2C PREFETCH REQUESTED:          0 ISSUED:          0 USEFUL:          0 USELESS:          0
cpu2_L2C AVERAGE MISS LATENCY: 262.6 cycles
cpu2_L2C TOTAL        ACCESS:          0 HIT:          0 MISS:          0
cpu2_L2C LOAD         ACCESS:          0 HIT:          0 MISS:          0
cpu2_L2C RFO          ACCESS:          0 HIT:          0 MISS:          0
cpu2_L2C PREFETCH     ACCESS:          0 HIT:          0 MISS:          0
cpu2_L2C WRITE        ACCESS:          0 HIT:          0 MISS:          0
cpu2_L2C TRANSLATION  ACCESS:          0 HIT:          0 MISS:          0
cpu2_L2C PREFETCH REQUESTED:          0 ISSUED:          0 USEFUL:          0 USELESS:          0
cpu2_L2C AVERAGE MISS LATENCY: 262.6 cycles
cpu2_L2C TOTAL        ACCESS:    5337618 HIT:    3693078 MISS:    1644540
cpu2_L2C LOAD         ACCESS:    1516807 HIT:     959919 MISS:     556888
cpu2_L2C RFO          ACCESS:     923900 HIT:     549000 MISS:     374900
cpu2_L2C PREFETCH     ACCESS:    1652149 HIT:     945501 MISS:     706648
cpu2_L2C WRITE        ACCESS:    1236685 HIT:    1236142 MISS:        543
cpu2_L2C TRANSLATION  ACCESS:       8077 HIT:       2516 MISS:       5561
cpu2_L2C PREFETCH REQUESTED:          0 ISSUED:          0 USEFUL:          0 USELESS:          0
cpu2_L2C AVERAGE MISS LATENCY: 262.6 cycles
cpu2_L2C TOTAL        ACCESS:          0 HIT:          0 MISS:          0
cpu2_L2C LOAD         ACCESS:          0 HIT:          0 MISS:          0
cpu2_L2C RFO          ACCESS:          0 HIT:          0 MISS:          0
cpu2_L2C PREFETCH     ACCESS:          0 HIT:          0 MISS:          0
cpu2_L2C WRITE        ACCESS:          0 HIT:          0 MISS:          0
cpu2_L2C TRANSLATION  ACCESS:          0 HIT:          0 MISS:          0
cpu2_L2C PREFETCH REQUESTED:          0 ISSUED:          0 USEFUL:          0 USELESS:          0
cpu2_L2C AVERAGE MISS LATENCY: 262.6 cycles
cpu2_STLB TOTAL        ACCESS:          0 HIT:          0 MISS:          0
cpu2_STLB LOAD         ACCESS:          0 HIT:          0 MISS:          0
cpu2_STLB RFO          ACCESS:          0 HIT:          0 MISS:          0
cpu2_STLB PREFETCH     ACCESS:          0 HIT:          0 MISS:          0
cpu2_STLB WRITE        ACCESS:          0 HIT:          0 MISS:          0
cpu2_STLB TRANSLATION  ACCESS:          0 HIT:          0 MISS:          0
cpu2_STLB PREFETCH REQUESTED:          0 ISSUED:          0 USEFUL:          0 USELESS:          0
cpu2_STLB AVERAGE MISS LATENCY: 345.1 cycles
cpu2_STLB TOTAL        ACCESS:          0 HIT:          0 MISS:          0
cpu2_STLB LOAD         ACCESS:          0 HIT:          0 MISS:          0
cpu2_STLB RFO          ACCESS:          0 HIT:          0 MISS:          0
cpu2_STLB PREFETCH     ACCESS:          0 HIT:          0 MISS:          0
cpu2_STLB WRITE        ACCESS:          0 HIT:          0 MISS:          0
cpu2_STLB TRANSLATION  ACCESS:          0 HIT:          0 MISS:          0
cpu2_STLB PREFETCH REQUESTED:          0 ISSUED:          0 USEFUL:          0 USELESS:          0
cpu2_STLB AVERAGE MISS LATENCY: 345.1 cycles
cpu2_STLB TOTAL        ACCESS:      91533 HIT:      82665 MISS:       8868
cpu2_STLB LOAD         ACCESS:      91533 HIT:      82665 MISS:       8868
cpu2_STLB RFO          ACCESS:          0 HIT:          0 MISS:          0
cpu2_STLB PREFETCH     ACCESS:          0 HIT:          0 MISS:          0
cpu2_STLB WRITE        ACCESS:          0 HIT:          0 MISS:          0
cpu2_STLB TRANSLATION  ACCESS:          0 HIT:          0 MISS:          0
cpu2_STLB PREFETCH REQUESTED:          0 ISSUED:          0 USEFUL:          0 USELESS:          0
cpu2_STLB AVERAGE MISS LATENCY: 345.1 cycles
cpu2_STLB TOTAL        ACCESS:          0 HIT:          0 MISS:          0
cpu2_STLB LOAD         ACCESS:          0 HIT:          0 MISS:          0
cpu2_STLB RFO          ACCESS:          0 HIT:          0 MISS:          0
cpu2_STLB PREFETCH     ACCESS:          0 HIT:          0 MISS:          0
cpu2_STLB WRITE        ACCESS:          0 HIT:          0 MISS:          0
cpu2_STLB TRANSLATION  ACCESS:          0 HIT:          0 MISS:          0
cpu2_STLB PREFETCH REQUESTED:          0 ISSUED:          0 USEFUL:          0 USELESS:          0
cpu2_STLB AVERAGE MISS LATENCY: 345.1 cycles
cpu3_DTLB TOTAL        ACCESS:          0 HIT:          0 MISS:          0
cpu3_DTLB LOAD         ACCESS:          0 HIT:          0 MISS:          0
cpu3_DTLB RFO          ACCESS:          0 HIT:          0 MISS:          0
cpu3_DTLB PREFETCH     ACCESS:          0 HIT:          0 MISS:          0
cpu3_DTLB WRITE        ACCESS:          0 HIT:          0 MISS:          0
cpu3_DTLB TRANSLATION  ACCESS:          0 HIT:          0 MISS:          0
cpu3_DTLB PREFETCH REQUESTED:          0 ISSUED:          0 USEFUL:          0 USELESS:          0
cpu3_DTLB AVERAGE MISS LATENCY: 16.48 cycles
cpu3_DTLB TOTAL        ACCESS:          0 HIT:          0 MISS:          0
cpu3_DTLB LOAD         ACCESS:          0 HIT:          0 MISS:          0
cpu3_DTLB RFO          ACCESS:          0 HIT:          0 MISS:          0
cpu3_DTLB PREFETCH     ACCESS:          0 HIT:          0 MISS:          0
cpu3_DTLB WRITE        ACCESS:          0 HIT:          0 MISS:          0
cpu3_DTLB TRANSLATION  ACCESS:          0 HIT:          0 MISS:          0
cpu3_DTLB PREFETCH REQUESTED:          0 ISSUED:          0 USEFUL:          0 USELESS:          0
cpu3_DTLB AVERAGE MISS LATENCY: 16.48 cycles
cpu3_DTLB TOTAL        ACCESS:          0 HIT:          0 MISS:          0
cpu3_DTLB LOAD         ACCESS:          0 HIT:          0 MISS:          0
cpu3_DTLB RFO          ACCESS:          0 HIT:          0 MISS:          0
cpu3_DTLB PREFETCH     ACCESS:          0 HIT:          0 MISS:          0
cpu3_DTLB WRITE        ACCESS:          0 HIT:          0 MISS:          0
cpu3_DTLB TRANSLATION  ACCESS:          0 HIT:          0 MISS:          0
cpu3_DTLB PREFETCH REQUESTED:          0 ISSUED:          0 USEFUL:          0 USELESS:          0
cpu3_DTLB AVERAGE MISS LATENCY: 16.48 cycles
cpu3_DTLB TOTAL        ACCESS:   21911129 HIT:   21898500 MISS:      12629
cpu3_DTLB LOAD         ACCESS:   21911129 HIT:   21898500 MISS:      12629
cpu3_DTLB RFO          ACCESS:          0 HIT:          0 MISS:          0
cpu3_DTLB PREFETCH     ACCESS:          0 HIT:          0 MISS:          0
cpu3_DTLB WRITE        ACCESS:          0 HIT:          0 MISS:          0
cpu3_DTLB TRANSLATION  ACCESS:          0 HIT:          0 MISS:          0
cpu3_DTLB PREFETCH REQUESTED:          0 ISSUED:          0 USEFUL:          0 USELESS:          0
cpu3_DTLB AVERAGE MISS LATENCY: 16.48 cycles
cpu3_ITLB TOTAL        ACCESS:          0 HIT:          0 MISS:          0
cpu3_ITLB LOAD         ACCESS:          0 HIT:          0 MISS:          0
cpu3_ITLB RFO          ACCESS:          0 HIT:          0 MISS:          0
cpu3_ITLB PREFETCH     ACCESS:          0 HIT:          0 MISS:          0
cpu3_ITLB WRITE        ACCESS:          0 HIT:          0 MISS:          0
cpu3_ITLB TRANSLATION  ACCESS:          0 HIT:          0 MISS:          0
cpu3_ITLB PREFETCH REQUESTED:          0 ISSUED:          0 USEFUL:          0 USELESS:          0
cpu3_ITLB AVERAGE MISS LATENCY: -nan cycles
cpu3_ITLB TOTAL        ACCESS:          0 HIT:          0 MISS:          0
cpu3_ITLB LOAD         ACCESS:          0 HIT:          0 MISS:          0
cpu3_ITLB RFO          ACCESS:          0 HIT:          0 MISS:          0
cpu3_ITLB PREFETCH     ACCESS:          0 HIT:          0 MISS:          0
cpu3_ITLB WRITE        ACCESS:          0 HIT:          0 MISS:          0
cpu3_ITLB TRANSLATION  ACCESS:          0 HIT:          0 MISS:          0
cpu3_ITLB PREFETCH REQUESTED:          0 ISSUED:          0 USEFUL:          0 USELESS:          0
cpu3_ITLB AVERAGE MISS LATENCY: -nan cycles
cpu3_ITLB TOTAL        ACCESS:          0 HIT:          0 MISS:          0
cpu3_ITLB LOAD         ACCESS:          0 HIT:          0 MISS:          0
cpu3_ITLB RFO          ACCESS:          0 HIT:          0 MISS:          0
cpu3_ITLB PREFETCH     ACCESS:          0 HIT:          0 MISS:          0
cpu3_ITLB WRITE        ACCESS:          0 HIT:          0 MISS:          0
cpu3_ITLB TRANSLATION  ACCESS:          0 HIT:          0 MISS:          0
cpu3_ITLB PREFETCH REQUESTED:          0 ISSUED:          0 USEFUL:          0 USELESS:          0
cpu3_ITLB AVERAGE MISS LATENCY: -nan cycles
cpu3_ITLB TOTAL        ACCESS:     641976 HIT:     641976 MISS:          0
cpu3_ITLB LOAD         ACCESS:     641976 HIT:     641976 MISS:          0
cpu3_ITLB RFO          ACCESS:          0 HIT:          0 MISS:          0
cpu3_ITLB PREFETCH     ACCESS:          0 HIT:          0 MISS:          0
cpu3_ITLB WRITE        ACCESS:          0 HIT:          0 MISS:          0
cpu3_ITLB TRANSLATION  ACCESS:          0 HIT:          0 MISS:          0
cpu3_ITLB PREFETCH REQUESTED:          0 ISSUED:          0 USEFUL:          0 USELESS:          0
cpu3_ITLB AVERAGE MISS LATENCY: -nan cycles
cpu3_L1D TOTAL        ACCESS:          0 HIT:          0 MISS:          0
cpu3_L1D LOAD         ACCESS:          0 HIT:          0 MISS:          0
cpu3_L1D RFO          ACCESS:          0 HIT:          0 MISS:          0
cpu3_L1D PREFETCH     ACCESS:          0 HIT:          0 MISS:          0
cpu3_L1D WRITE        ACCESS:          0 HIT:          0 MISS:          0
cpu3_L1D TRANSLATION  ACCESS:          0 HIT:          0 MISS:          0
cpu3_L1D PREFETCH REQUESTED:      31456 ISSUED:      28769 USEFUL:        857 USELESS:         36
cpu3_L1D AVERAGE MISS LATENCY: 101 cycles
cpu3_L1D TOTAL        ACCESS:          0 HIT:          0 MISS:          0
cpu3_L1D LOAD         ACCESS:          0 HIT:          0 MISS:          0
cpu3_L1D RFO          ACCESS:          0 HIT:          0 MISS:          0
cpu3_L1D PREFETCH     ACCESS:          0 HIT:          0 MISS:          0
cpu3_L1D WRITE        ACCESS:          0 HIT:          0 MISS:          0
cpu3_L1D TRANSLATION  ACCESS:          0 HIT:          0 MISS:          0
cpu3_L1D PREFETCH REQUESTED:      31456 ISSUED:      28769 USEFUL:        857 USELESS:         36
cpu3_L1D AVERAGE MISS LATENCY: 101 cycles
cpu3_L1D TOTAL        ACCESS:          0 HIT:          0 MISS:          0
cpu3_L1D LOAD         ACCESS:          0 HIT:          0 MISS:          0
cpu3_L1D RFO          ACCESS:          0 HIT:          0 MISS:          0
cpu3_L1D PREFETCH     ACCESS:          0 HIT:          0 MISS:          0
cpu3_L1D WRITE        ACCESS:          0 HIT:          0 MISS:          0
cpu3_L1D TRANSLATION  ACCESS:          0 HIT:          0 MISS:          0
cpu3_L1D PREFETCH REQUESTED:      31456 ISSUED:      28769 USEFUL:        857 USELESS:         36
cpu3_L1D AVERAGE MISS LATENCY: 101 cycles
cpu3_L1D TOTAL        ACCESS:   26927302 HIT:   26899288 MISS:      28014
cpu3_L1D LOAD         ACCESS:   20078849 HIT:   20076501 MISS:       2348
cpu3_L1D RFO          ACCESS:          0 HIT:          0 MISS:          0
cpu3_L1D PREFETCH     ACCESS:      28769 HIT:      14042 MISS:      14727
cpu3_L1D WRITE        ACCESS:    6819478 HIT:    6808722 MISS:      10756
cpu3_L1D TRANSLATION  ACCESS:        206 HIT:         23 MISS:        183
cpu3_L1D PREFETCH REQUESTED:      31456 ISSUED:      28769 USEFUL:        857 USELESS:         36
cpu3_L1D AVERAGE MISS LATENCY: 101 cycles
cpu3_L1I TOTAL        ACCESS:          0 HIT:          0 MISS:          0
cpu3_L1I LOAD         ACCESS:          0 HIT:          0 MISS:          0
cpu3_L1I RFO          ACCESS:          0 HIT:          0 MISS:          0
cpu3_L1I PREFETCH     ACCESS:          0 HIT:          0 MISS:          0
cpu3_L1I WRITE        ACCESS:          0 HIT:          0 MISS:          0
cpu3_L1I TRANSLATION  ACCESS:          0 HIT:          0 MISS:          0
cpu3_L1I PREFETCH REQUESTED:          0 ISSUED:          0 USEFUL:          0 USELESS:          0
cpu3_L1I AVERAGE MISS LATENCY: 7.728 cycles
cpu3_L1I TOTAL        ACCESS:          0 HIT:          0 MISS:          0
cpu3_L1I LOAD         ACCESS:          0 HIT:          0 MISS:          0
cpu3_L1I RFO          ACCESS:          0 HIT:          0 MISS:          0
cpu3_L1I PREFETCH     ACCESS:          0 HIT:          0 MISS:          0
cpu3_L1I WRITE        ACCESS:          0 HIT:          0 MISS:          0
cpu3_L1I TRANSLATION  ACCESS:          0 HIT:          0 MISS:          0
cpu3_L1I PREFETCH REQUESTED:          0 ISSUED:          0 USEFUL:          0 USELESS:          0
cpu3_L1I AVERAGE MISS LATENCY: 7.728 cycles
cpu3_L1I TOTAL        ACCESS:          0 HIT:          0 MISS:          0
cpu3_L1I LOAD         ACCESS:          0 HIT:          0 MISS:          0
cpu3_L1I RFO          ACCESS:          0 HIT:          0 MISS:          0
cpu3_L1I PREFETCH     ACCESS:          0 HIT:          0 MISS:          0
cpu3_L1I WRITE        ACCESS:          0 HIT:          0 MISS:          0
cpu3_L1I TRANSLATION  ACCESS:          0 HIT:          0 MISS:          0
cpu3_L1I PREFETCH REQUESTED:          0 ISSUED:          0 USEFUL:          0 USELESS:          0
cpu3_L1I AVERAGE MISS LATENCY: 7.728 cycles
cpu3_L1I TOTAL        ACCESS:     715144 HIT:     713415 MISS:       1729
cpu3_L1I LOAD         ACCESS:     715144 HIT:     713415 MISS:       1729
cpu3_L1I RFO          ACCESS:          0 HIT:          0 MISS:          0
cpu3_L1I PREFETCH     ACCESS:          0 HIT:          0 MISS:          0
cpu3_L1I WRITE        ACCESS:          0 HIT:          0 MISS:          0
cpu3_L1I TRANSLATION  ACCESS:          0 HIT:          0 MISS:          0
cpu3_L1I PREFETCH REQUESTED:          0 ISSUED:          0 USEFUL:          0 USELESS:          0
cpu3_L1I AVERAGE MISS LATENCY: 7.728 cycles
cpu3_L2C TOTAL        ACCESS:          0 HIT:          0 MISS:          0
cpu3_L2C LOAD         ACCESS:          0 HIT:          0 MISS:          0
cpu3_L2C RFO          ACCESS:          0 HIT:          0 MISS:          0
cpu3_L2C PREFETCH     ACCESS:          0 HIT:          0 MISS:          0
cpu3_L2C WRITE        ACCESS:          0 HIT:          0 MISS:          0
cpu3_L2C TRANSLATION  ACCESS:          0 HIT:          0 MISS:          0
cpu3_L2C PREFETCH REQUESTED:          0 ISSUED:          0 USEFUL:          0 USELESS:          0
cpu3_L2C AVERAGE MISS LATENCY: 586.3 cycles
cpu3_L2C TOTAL        ACCESS:          0 HIT:          0 MISS:          0
cpu3_L2C LOAD         ACCESS:          0 HIT:          0 MISS:          0
cpu3_L2C RFO          ACCESS:          0 HIT:          0 MISS:          0
cpu3_L2C PREFETCH     ACCESS:          0 HIT:          0 MISS:          0
cpu3_L2C WRITE        ACCESS:          0 HIT:          0 MISS:          0
cpu3_L2C TRANSLATION  ACCESS:          0 HIT:          0 MISS:          0
cpu3_L2C PREFETCH REQUESTED:          0 ISSUED:          0 USEFUL:          0 USELESS:          0
cpu3_L2C AVERAGE MISS LATENCY: 586.3 cycles
cpu3_L2C TOTAL        ACCESS:          0 HIT:          0 MISS:          0
cpu3_L2C LOAD         ACCESS:          0 HIT:          0 MISS:          0
cpu3_L2C RFO          ACCESS:          0 HIT:          0 MISS:          0
cpu3_L2C PREFETCH     ACCESS:          0 HIT:          0 MISS:          0
cpu3_L2C WRITE        ACCESS:          0 HIT:          0 MISS:          0
cpu3_L2C TRANSLATION  ACCESS:          0 HIT:          0 MISS:          0
cpu3_L2C PREFETCH REQUESTED:          0 ISSUED:          0 USEFUL:          0 USELESS:          0
cpu3_L2C AVERAGE MISS LATENCY: 586.3 cycles
cpu3_L2C TOTAL        ACCESS:      24323 HIT:      15683 MISS:       8640
cpu3_L2C LOAD         ACCESS:       2627 HIT:       1696 MISS:        931
cpu3_L2C RFO          ACCESS:       3108 HIT:        141 MISS:       2967
cpu3_L2C PREFETCH     ACCESS:      14618 HIT:       9997 MISS:       4621
cpu3_L2C WRITE        ACCESS:       3787 HIT:       3785 MISS:          2
cpu3_L2C TRANSLATION  ACCESS:        183 HIT:         64 MISS:        119
cpu3_L2C PREFETCH REQUESTED:          0 ISSUED:          0 USEFUL:          0 USELESS:          0
cpu3_L2C AVERAGE MISS LATENCY: 586.3 cycles
cpu3_STLB TOTAL        ACCESS:          0 HIT:          0 MISS:          0
cpu3_STLB LOAD         ACCESS:          0 HIT:          0 MISS:          0
cpu3_STLB RFO          ACCESS:          0 HIT:          0 MISS:          0
cpu3_STLB PREFETCH     ACCESS:          0 HIT:          0 MISS:          0
cpu3_STLB WRITE        ACCESS:          0 HIT:          0 MISS:          0
cpu3_STLB TRANSLATION  ACCESS:          0 HIT:          0 MISS:          0
cpu3_STLB PREFETCH REQUESTED:          0 ISSUED:          0 USEFUL:          0 USELESS:          0
cpu3_STLB AVERAGE MISS LATENCY: 799.6 cycles
cpu3_STLB TOTAL        ACCESS:          0 HIT:          0 MISS:          0
cpu3_STLB LOAD         ACCESS:          0 HIT:          0 MISS:          0
cpu3_STLB RFO          ACCESS:          0 HIT:          0 MISS:          0
cpu3_STLB PREFETCH     ACCESS:          0 HIT:          0 MISS:          0
cpu3_STLB WRITE        ACCESS:          0 HIT:          0 MISS:          0
cpu3_STLB TRANSLATION  ACCESS:          0 HIT:          0 MISS:          0
cpu3_STLB PREFETCH REQUESTED:          0 ISSUED:          0 USEFUL:          0 USELESS:          0
cpu3_STLB AVERAGE MISS LATENCY: 799.6 cycles
cpu3_STLB TOTAL        ACCESS:          0 HIT:          0 MISS:          0
cpu3_STLB LOAD         ACCESS:          0 HIT:          0 MISS:          0
cpu3_STLB RFO          ACCESS:          0 HIT:          0 MISS:          0
cpu3_STLB PREFETCH     ACCESS:          0 HIT:          0 MISS:          0
cpu3_STLB WRITE        ACCESS:          0 HIT:          0 MISS:          0
cpu3_STLB TRANSLATION  ACCESS:          0 HIT:          0 MISS:          0
cpu3_STLB PREFETCH REQUESTED:          0 ISSUED:          0 USEFUL:          0 USELESS:          0
cpu3_STLB AVERAGE MISS LATENCY: 799.6 cycles
cpu3_STLB TOTAL        ACCESS:      11144 HIT:      10939 MISS:        205
cpu3_STLB LOAD         ACCESS:      11144 HIT:      10939 MISS:        205
cpu3_STLB RFO          ACCESS:          0 HIT:          0 MISS:          0
cpu3_STLB PREFETCH     ACCESS:          0 HIT:          0 MISS:          0
cpu3_STLB WRITE        ACCESS:          0 HIT:          0 MISS:          0
cpu3_STLB TRANSLATION  ACCESS:          0 HIT:          0 MISS:          0
cpu3_STLB PREFETCH REQUESTED:          0 ISSUED:          0 USEFUL:          0 USELESS:          0
cpu3_STLB AVERAGE MISS LATENCY: 799.6 cycles

Region of Interest Statistics

CPU 0 cumulative IPC: 2.911 instructions: 150000000 cycles: 51536840
CPU 0 Branch Prediction Accuracy: 95.09% MPKI: 8.053 Average ROB Occupancy at Mispredict: 83.5
Branch type MPKI
BRANCH_DIRECT_JUMP: 0.154
BRANCH_INDIRECT: 0
BRANCH_CONDITIONAL: 6.66
BRANCH_DIRECT_CALL: 0
BRANCH_INDIRECT_CALL: 0
BRANCH_RETURN: 1.24


CPU 1 cumulative IPC: 1.769 instructions: 150000002 cycles: 84798066
CPU 1 Branch Prediction Accuracy: 94.56% MPKI: 7.708 Average ROB Occupancy at Mispredict: 61.15
Branch type MPKI
BRANCH_DIRECT_JUMP: 0.00711
BRANCH_INDIRECT: 0.00237
BRANCH_CONDITIONAL: 7.05
BRANCH_DIRECT_CALL: 0.0271
BRANCH_INDIRECT_CALL: 0
BRANCH_RETURN: 0.627


CPU 2 cumulative IPC: 2.134 instructions: 150000002 cycles: 70275375
CPU 2 Branch Prediction Accuracy: 97.85% MPKI: 3.55 Average ROB Occupancy at Mispredict: 95.19
Branch type MPKI
BRANCH_DIRECT_JUMP: 0.0257
BRANCH_INDIRECT: 0.00066
BRANCH_CONDITIONAL: 3.48
BRANCH_DIRECT_CALL: 0.00185
BRANCH_INDIRECT_CALL: 0
BRANCH_RETURN: 0.0405


CPU 3 cumulative IPC: 2.146 instructions: 150000000 cycles: 69902770
CPU 3 Branch Prediction Accuracy: 94.81% MPKI: 6.954 Average ROB Occupancy at Mispredict: 77.07
Branch type MPKI
BRANCH_DIRECT_JUMP: 0
BRANCH_INDIRECT: 0
BRANCH_CONDITIONAL: 6.94
BRANCH_DIRECT_CALL: 0
BRANCH_INDIRECT_CALL: 0
BRANCH_RETURN: 0.0165

LLC TOTAL        ACCESS:      33845 HIT:       2165 MISS:      31680
LLC LOAD         ACCESS:        969 HIT:          8 MISS:        961
LLC RFO          ACCESS:       8755 HIT:         78 MISS:       8677
LLC PREFETCH     ACCESS:      15007 HIT:        810 MISS:      14197
LLC WRITE        ACCESS:       9059 HIT:       1269 MISS:       7790
LLC TRANSLATION  ACCESS:         55 HIT:          0 MISS:         55
LLC PREFETCH REQUESTED:          0 ISSUED:          0 USEFUL:          0 USELESS:          0
LLC AVERAGE MISS LATENCY: 933.9 cycles
LLC TOTAL        ACCESS:    1210897 HIT:     608172 MISS:     602725
LLC LOAD         ACCESS:     100087 HIT:      31795 MISS:      68292
LLC RFO          ACCESS:     524067 HIT:      19710 MISS:     504357
LLC PREFETCH     ACCESS:      50026 HIT:      24226 MISS:      25800
LLC WRITE        ACCESS:     534120 HIT:     532191 MISS:       1929
LLC TRANSLATION  ACCESS:       2597 HIT:        250 MISS:       2347
LLC PREFETCH REQUESTED:          0 ISSUED:          0 USEFUL:          0 USELESS:          0
LLC AVERAGE MISS LATENCY: 933.9 cycles
LLC TOTAL        ACCESS:    1423293 HIT:     943370 MISS:     479923
LLC LOAD         ACCESS:     364769 HIT:     270503 MISS:      94266
LLC RFO          ACCESS:     309226 HIT:     103733 MISS:     205493
LLC PREFETCH     ACCESS:     314504 HIT:     138673 MISS:     175831
LLC WRITE        ACCESS:     431110 HIT:     429283 MISS:       1827
LLC TRANSLATION  ACCESS:       3684 HIT:       1178 MISS:       2506
LLC PREFETCH REQUESTED:          0 ISSUED:          0 USEFUL:          0 USELESS:          0
LLC AVERAGE MISS LATENCY: 933.9 cycles
LLC TOTAL        ACCESS:       4569 HIT:         71 MISS:       4498
LLC LOAD         ACCESS:        737 HIT:          0 MISS:        737
LLC RFO          ACCESS:       2405 HIT:         48 MISS:       2357
LLC PREFETCH     ACCESS:       1199 HIT:         23 MISS:       1176
[...]
cpu2_L2C TRANSLATION  ACCESS:          0 HIT:          0 MISS:          0
cpu2_L2C PREFETCH REQUESTED:          0 ISSUED:          0 USEFUL:          0 USELESS:          0
cpu2_L2C AVERAGE MISS LATENCY: 262.6 cycles
cpu2_L2C TOTAL        ACCESS:          0 HIT:          0 MISS:          0
cpu2_L2C LOAD         ACCESS:          0 HIT:          0 MISS:          0
cpu2_L2C RFO          ACCESS:          0 HIT:          0 MISS:          0
cpu2_L2C PREFETCH     ACCESS:          0 HIT:          0 MISS:          0
cpu2_L2C WRITE        ACCESS:          0 HIT:          0 MISS:          0
cpu2_L2C TRANSLATION  ACCESS:          0 HIT:          0 MISS:          0
cpu2_L2C PREFETCH REQUESTED:          0 ISSUED:          0 USEFUL:          0 USELESS:          0
cpu2_L2C AVERAGE MISS LATENCY: 262.6 cycles
cpu2_L2C TOTAL        ACCESS:    4021358 HIT:    2796188 MISS:    1225170
cpu2_L2C LOAD         ACCESS:    1057202 HIT:     681152 MISS:     376050
cpu2_L2C RFO          ACCESS:     736094 HIT:     426859 MISS:     309235
cpu2_L2C PREFETCH     ACCESS:    1266040 HIT:     730363 MISS:     535677
cpu2_L2C WRITE        ACCESS:     956006 HIT:     955482 MISS:        524
cpu2_L2C TRANSLATION  ACCESS:       6016 HIT:       2332 MISS:       3684
cpu2_L2C PREFETCH REQUESTED:          0 ISSUED:          0 USEFUL:          0 USELESS:          0
cpu2_L2C AVERAGE MISS LATENCY: 262.6 cycles
cpu2_L2C TOTAL        ACCESS:          0 HIT:          0 MISS:          0
cpu2_L2C LOAD         ACCESS:          0 HIT:          0 MISS:          0
cpu2_L2C RFO          ACCESS:          0 HIT:          0 MISS:          0
cpu2_L2C PREFETCH     ACCESS:          0 HIT:          0 MISS:          0
cpu2_L2C WRITE        ACCESS:          0 HIT:          0 MISS:          0
cpu2_L2C TRANSLATION  ACCESS:          0 HIT:          0 MISS:          0
cpu2_L2C PREFETCH REQUESTED:          0 ISSUED:          0 USEFUL:          0 USELESS:          0
cpu2_L2C AVERAGE MISS LATENCY: 262.6 cycles
cpu2_STLB TOTAL        ACCESS:          0 HIT:          0 MISS:          0
cpu2_STLB LOAD         ACCESS:          0 HIT:          0 MISS:          0
cpu2_STLB RFO          ACCESS:          0 HIT:          0 MISS:          0
cpu2_STLB PREFETCH     ACCESS:          0 HIT:          0 MISS:          0
cpu2_STLB WRITE        ACCESS:          0 HIT:          0 MISS:          0
cpu2_STLB TRANSLATION  ACCESS:          0 HIT:          0 MISS:          0
cpu2_STLB PREFETCH REQUESTED:          0 ISSUED:          0 USEFUL:          0 USELESS:          0
cpu2_STLB AVERAGE MISS LATENCY: 345.1 cycles
cpu2_STLB TOTAL        ACCESS:          0 HIT:          0 MISS:          0
cpu2_STLB LOAD         ACCESS:          0 HIT:          0 MISS:          0
cpu2_STLB RFO          ACCESS:          0 HIT:          0 MISS:          0
cpu2_STLB PREFETCH     ACCESS:          0 HIT:          0 MISS:          0
cpu2_STLB WRITE        ACCESS:          0 HIT:          0 MISS:          0
cpu2_STLB TRANSLATION  ACCESS:          0 HIT:          0 MISS:          0
cpu2_STLB PREFETCH REQUESTED:          0 ISSUED:          0 USEFUL:          0 USELESS:          0
cpu2_STLB AVERAGE MISS LATENCY: 345.1 cycles
cpu2_STLB TOTAL        ACCESS:      62844 HIT:      55635 MISS:       7209
cpu2_STLB LOAD         ACCESS:      62844 HIT:      55635 MISS:       7209
cpu2_STLB RFO          ACCESS:          0 HIT:          0 MISS:          0
cpu2_STLB PREFETCH     ACCESS:          0 HIT:          0 MISS:          0
cpu2_STLB WRITE        ACCESS:          0 HIT:          0 MISS:          0
cpu2_STLB TRANSLATION  ACCESS:          0 HIT:          0 MISS:          0
cpu2_STLB PREFETCH REQUESTED:          0 ISSUED:          0 USEFUL:          0 USELESS:          0
cpu2_STLB AVERAGE MISS LATENCY: 345.1 cycles
cpu2_STLB TOTAL        ACCESS:          0 HIT:          0 MISS:          0
cpu2_STLB LOAD         ACCESS:          0 HIT:          0 MISS:          0
cpu2_STLB RFO          ACCESS:          0 HIT:          0 MISS:          0
cpu2_STLB PREFETCH     ACCESS:          0 HIT:          0 MISS:          0
cpu2_STLB WRITE        ACCESS:          0 HIT:          0 MISS:          0
cpu2_STLB TRANSLATION  ACCESS:          0 HIT:          0 MISS:          0
cpu2_STLB PREFETCH REQUESTED:          0 ISSUED:          0 USEFUL:          0 USELESS:          0
cpu2_STLB AVERAGE MISS LATENCY: 345.1 cycles
cpu3_DTLB TOTAL        ACCESS:          0 HIT:          0 MISS:          0
cpu3_DTLB LOAD         ACCESS:          0 HIT:          0 MISS:          0
cpu3_DTLB RFO          ACCESS:          0 HIT:          0 MISS:          0
cpu3_DTLB PREFETCH     ACCESS:          0 HIT:          0 MISS:          0
cpu3_DTLB WRITE        ACCESS:          0 HIT:          0 MISS:          0
cpu3_DTLB TRANSLATION  ACCESS:          0 HIT:          0 MISS:          0
cpu3_DTLB PREFETCH REQUESTED:          0 ISSUED:          0 USEFUL:          0 USELESS:          0
cpu3_DTLB AVERAGE MISS LATENCY: 16.48 cycles
cpu3_DTLB TOTAL        ACCESS:          0 HIT:          0 MISS:          0
cpu3_DTLB LOAD         ACCESS:          0 HIT:          0 MISS:          0
cpu3_DTLB RFO          ACCESS:          0 HIT:          0 MISS:          0
cpu3_DTLB PREFETCH     ACCESS:          0 HIT:          0 MISS:          0
cpu3_DTLB WRITE        ACCESS:          0 HIT:          0 MISS:          0
cpu3_DTLB TRANSLATION  ACCESS:          0 HIT:          0 MISS:          0
cpu3_DTLB PREFETCH REQUESTED:          0 ISSUED:          0 USEFUL:          0 USELESS:          0
cpu3_DTLB AVERAGE MISS LATENCY: 16.48 cycles
cpu3_DTLB TOTAL        ACCESS:          0 HIT:          0 MISS:          0
cpu3_DTLB LOAD         ACCESS:          0 HIT:          0 MISS:          0
cpu3_DTLB RFO          ACCESS:          0 HIT:          0 MISS:          0
cpu3_DTLB PREFETCH     ACCESS:          0 HIT:          0 MISS:          0
cpu3_DTLB WRITE        ACCESS:          0 HIT:          0 MISS:          0
cpu3_DTLB TRANSLATION  ACCESS:          0 HIT:          0 MISS:          0
cpu3_DTLB PREFETCH REQUESTED:          0 ISSUED:          0 USEFUL:          0 USELESS:          0
cpu3_DTLB AVERAGE MISS LATENCY: 16.48 cycles
cpu3_DTLB TOTAL        ACCESS:   18129318 HIT:   18117531 MISS:      11787
cpu3_DTLB LOAD         ACCESS:   18129318 HIT:   18117531 MISS:      11787
cpu3_DTLB RFO          ACCESS:          0 HIT:          0 MISS:          0
cpu3_DTLB PREFETCH     ACCESS:          0 HIT:          0 MISS:          0
cpu3_DTLB WRITE        ACCESS:          0 HIT:          0 MISS:          0
cpu3_DTLB TRANSLATION  ACCESS:          0 HIT:          0 MISS:          0
cpu3_DTLB PREFETCH REQUESTED:          0 ISSUED:          0 USEFUL:          0 USELESS:          0
cpu3_DTLB AVERAGE MISS LATENCY: 16.48 cycles
cpu3_ITLB TOTAL        ACCESS:          0 HIT:          0 MISS:          0
cpu3_ITLB LOAD         ACCESS:          0 HIT:          0 MISS:          0
cpu3_ITLB RFO          ACCESS:          0 HIT:          0 MISS:          0
cpu3_ITLB PREFETCH     ACCESS:          0 HIT:          0 MISS:          0
cpu3_ITLB WRITE        ACCESS:          0 HIT:          0 MISS:          0
cpu3_ITLB TRANSLATION  ACCESS:          0 HIT:          0 MISS:          0
cpu3_ITLB PREFETCH REQUESTED:          0 ISSUED:          0 USEFUL:          0 USELESS:          0
cpu3_ITLB AVERAGE MISS LATENCY: -nan cycles
cpu3_ITLB TOTAL        ACCESS:          0 HIT:          0 MISS:          0
cpu3_ITLB LOAD         ACCESS:          0 HIT:          0 MISS:          0
cpu3_ITLB RFO          ACCESS:          0 HIT:          0 MISS:          0
cpu3_ITLB PREFETCH     ACCESS:          0 HIT:          0 MISS:          0
cpu3_ITLB WRITE        ACCESS:          0 HIT:          0 MISS:          0
cpu3_ITLB TRANSLATION  ACCESS:          0 HIT:          0 MISS:          0
cpu3_ITLB PREFETCH REQUESTED:          0 ISSUED:          0 USEFUL:          0 USELESS:          0
cpu3_ITLB AVERAGE MISS LATENCY: -nan cycles
cpu3_ITLB TOTAL        ACCESS:          0 HIT:          0 MISS:          0
cpu3_ITLB LOAD         ACCESS:          0 HIT:          0 MISS:          0
cpu3_ITLB RFO          ACCESS:          0 HIT:          0 MISS:          0
cpu3_ITLB PREFETCH     ACCESS:          0 HIT:          0 MISS:          0
cpu3_ITLB WRITE        ACCESS:          0 HIT:          0 MISS:          0
cpu3_ITLB TRANSLATION  ACCESS:          0 HIT:          0 MISS:          0
cpu3_ITLB PREFETCH REQUESTED:          0 ISSUED:          0 USEFUL:          0 USELESS:          0
cpu3_ITLB AVERAGE MISS LATENCY: -nan cycles
cpu3_ITLB TOTAL        ACCESS:     551813 HIT:     551813 MISS:          0
cpu3_ITLB LOAD         ACCESS:     551813 HIT:     551813 MISS:          0
cpu3_ITLB RFO          ACCESS:          0 HIT:          0 MISS:          0
cpu3_ITLB PREFETCH     ACCESS:          0 HIT:          0 MISS:          0
cpu3_ITLB WRITE        ACCESS:          0 HIT:          0 MISS:          0
cpu3_ITLB TRANSLATION  ACCESS:          0 HIT:          0 MISS:          0
cpu3_ITLB PREFETCH REQUESTED:          0 ISSUED:          0 USEFUL:          0 USELESS:          0
cpu3_ITLB AVERAGE MISS LATENCY: -nan cycles
cpu3_L1D TOTAL        ACCESS:          0 HIT:          0 MISS:          0
cpu3_L1D LOAD         ACCESS:          0 HIT:          0 MISS:          0
cpu3_L1D RFO          ACCESS:          0 HIT:          0 MISS:          0
cpu3_L1D PREFETCH     ACCESS:          0 HIT:          0 MISS:          0
cpu3_L1D WRITE        ACCESS:          0 HIT:          0 MISS:          0
cpu3_L1D TRANSLATION  ACCESS:          0 HIT:          0 MISS:          0
cpu3_L1D PREFETCH REQUESTED:      31456 ISSUED:      28769 USEFUL:        857 USELESS:         36
cpu3_L1D AVERAGE MISS LATENCY: 101 cycles
cpu3_L1D TOTAL        ACCESS:          0 HIT:          0 MISS:          0
cpu3_L1D LOAD         ACCESS:          0 HIT:          0 MISS:          0
cpu3_L1D RFO          ACCESS:          0 HIT:          0 MISS:          0
cpu3_L1D PREFETCH     ACCESS:          0 HIT:          0 MISS:          0
cpu3_L1D WRITE        ACCESS:          0 HIT:          0 MISS:          0
cpu3_L1D TRANSLATION  ACCESS:          0 HIT:          0 MISS:          0
cpu3_L1D PREFETCH REQUESTED:      31456 ISSUED:      28769 USEFUL:        857 USELESS:         36
cpu3_L1D AVERAGE MISS LATENCY: 101 cycles
cpu3_L1D TOTAL        ACCESS:          0 HIT:          0 MISS:          0
cpu3_L1D LOAD         ACCESS:          0 HIT:          0 MISS:          0
cpu3_L1D RFO          ACCESS:          0 HIT:          0 MISS:          0
cpu3_L1D PREFETCH     ACCESS:          0 HIT:          0 MISS:          0
cpu3_L1D WRITE        ACCESS:          0 HIT:          0 MISS:          0
cpu3_L1D TRANSLATION  ACCESS:          0 HIT:          0 MISS:          0
cpu3_L1D PREFETCH REQUESTED:      31456 ISSUED:      28769 USEFUL:        857 USELESS:         36
cpu3_L1D AVERAGE MISS LATENCY: 101 cycles
cpu3_L1D TOTAL        ACCESS:   22263299 HIT:   22240292 MISS:      23007
cpu3_L1D LOAD         ACCESS:   16605577 HIT:   16603700 MISS:       1877
cpu3_L1D RFO          ACCESS:          0 HIT:          0 MISS:          0
cpu3_L1D PREFETCH     ACCESS:      23041 HIT:      11150 MISS:      11891
cpu3_L1D WRITE        ACCESS:    5634516 HIT:    5625424 MISS:       9092
cpu3_L1D TRANSLATION  ACCESS:        165 HIT:         18 MISS:        147
cpu3_L1D PREFETCH REQUESTED:      31456 ISSUED:      28769 USEFUL:        857 USELESS:         36
cpu3_L1D AVERAGE MISS LATENCY: 101 cycles
cpu3_L1I TOTAL        ACCESS:          0 HIT:          0 MISS:          0
cpu3_L1I LOAD         ACCESS:          0 HIT:          0 MISS:          0
cpu3_L1I RFO          ACCESS:          0 HIT:          0 MISS:          0
cpu3_L1I PREFETCH     ACCESS:          0 HIT:          0 MISS:          0
cpu3_L1I WRITE        ACCESS:          0 HIT:          0 MISS:          0
cpu3_L1I TRANSLATION  ACCESS:          0 HIT:          0 MISS:          0
cpu3_L1I PREFETCH REQUESTED:          0 ISSUED:          0 USEFUL:          0 USELESS:          0
cpu3_L1I AVERAGE MISS LATENCY: 7.728 cycles
cpu3_L1I TOTAL        ACCESS:          0 HIT:          0 MISS:          0
cpu3_L1I LOAD         ACCESS:          0 HIT:          0 MISS:          0
cpu3_L1I RFO          ACCESS:          0 HIT:          0 MISS:          0
cpu3_L1I PREFETCH     ACCESS:          0 HIT:          0 MISS:          0
cpu3_L1I WRITE        ACCESS:          0 HIT:          0 MISS:          0
cpu3_L1I TRANSLATION  ACCESS:          0 HIT:          0 MISS:          0
cpu3_L1I PREFETCH REQUESTED:          0 ISSUED:          0 USEFUL:          0 USELESS:          0
cpu3_L1I AVERAGE MISS LATENCY: 7.728 cycles
cpu3_L1I TOTAL        ACCESS:          0 HIT:          0 MISS:          0
cpu3_L1I LOAD         ACCESS:          0 HIT:          0 MISS:          0
cpu3_L1I RFO          ACCESS:          0 HIT:          0 MISS:          0
cpu3_L1I PREFETCH     ACCESS:          0 HIT:          0 MISS:          0
cpu3_L1I WRITE        ACCESS:          0 HIT:          0 MISS:          0
cpu3_L1I TRANSLATION  ACCESS:          0 HIT:          0 MISS:          0
cpu3_L1I PREFETCH REQUESTED:          0 ISSUED:          0 USEFUL:          0 USELESS:          0
cpu3_L1I AVERAGE MISS LATENCY: 7.728 cycles
cpu3_L1I TOTAL        ACCESS:     614708 HIT:     613323 MISS:       1385
cpu3_L1I LOAD         ACCESS:     614708 HIT:     613323 MISS:       1385
cpu3_L1I RFO          ACCESS:          0 HIT:          0 MISS:          0
cpu3_L1I PREFETCH     ACCESS:          0 HIT:          0 MISS:          0
cpu3_L1I WRITE        ACCESS:          0 HIT:          0 MISS:          0
cpu3_L1I TRANSLATION  ACCESS:          0 HIT:          0 MISS:          0
cpu3_L1I PREFETCH REQUESTED:          0 ISSUED:          0 USEFUL:          0 USELESS:          0
cpu3_L1I AVERAGE MISS LATENCY: 7.728 cycles
cpu3_L2C TOTAL        ACCESS:          0 HIT:          0 MISS:          0
cpu3_L2C LOAD         ACCESS:          0 HIT:          0 MISS:          0
cpu3_L2C RFO          ACCESS:          0 HIT:          0 MISS:          0
cpu3_L2C PREFETCH     ACCESS:          0 HIT:          0 MISS:          0
cpu3_L2C WRITE        ACCESS:          0 HIT:          0 MISS:          0
cpu3_L2C TRANSLATION  ACCESS:          0 HIT:          0 MISS:          0
cpu3_L2C PREFETCH REQUESTED:          0 ISSUED:          0 USEFUL:          0 USELESS:          0
cpu3_L2C AVERAGE MISS LATENCY: 586.3 cycles
cpu3_L2C TOTAL        ACCESS:          0 HIT:          0 MISS:          0
cpu3_L2C LOAD         ACCESS:          0 HIT:          0 MISS:          0
cpu3_L2C RFO          ACCESS:          0 HIT:          0 MISS:          0
cpu3_L2C PREFETCH     ACCESS:          0 HIT:          0 MISS:          0
cpu3_L2C WRITE        ACCESS:          0 HIT:          0 MISS:          0
cpu3_L2C TRANSLATION  ACCESS:          0 HIT:          0 MISS:          0
cpu3_L2C PREFETCH REQUESTED:          0 ISSUED:          0 USEFUL:          0 USELESS:          0
cpu3_L2C AVERAGE MISS LATENCY: 586.3 cycles
cpu3_L2C TOTAL        ACCESS:          0 HIT:          0 MISS:          0
cpu3_L2C LOAD         ACCESS:          0 HIT:          0 MISS:          0
cpu3_L2C RFO          ACCESS:          0 HIT:          0 MISS:          0
cpu3_L2C PREFETCH     ACCESS:          0 HIT:          0 MISS:          0
cpu3_L2C WRITE        ACCESS:          0 HIT:          0 MISS:          0
cpu3_L2C TRANSLATION  ACCESS:          0 HIT:          0 MISS:          0
cpu3_L2C PREFETCH REQUESTED:          0 ISSUED:          0 USEFUL:          0 USELESS:          0
cpu3_L2C AVERAGE MISS LATENCY: 586.3 cycles
cpu3_L2C TOTAL        ACCESS:      19660 HIT:      12628 MISS:       7032
cpu3_L2C LOAD         ACCESS:       2138 HIT:       1390 MISS:        748
cpu3_L2C RFO          ACCESS:       2526 HIT:        121 MISS:       2405
cpu3_L2C PREFETCH     ACCESS:      11798 HIT:       8012 MISS:       3786
cpu3_L2C WRITE        ACCESS:       3051 HIT:       3051 MISS:          0
cpu3_L2C TRANSLATION  ACCESS:        147 HIT:         54 MISS:         93
cpu3_L2C PREFETCH REQUESTED:          0 ISSUED:          0 USEFUL:          0 USELESS:          0
cpu3_L2C AVERAGE MISS LATENCY: 586.3 cycles
cpu3_STLB TOTAL        ACCESS:          0 HIT:          0 MISS:          0
cpu3_STLB LOAD         ACCESS:          0 HIT:          0 MISS:          0
cpu3_STLB RFO          ACCESS:          0 HIT:          0 MISS:          0
cpu3_STLB PREFETCH     ACCESS:          0 HIT:          0 MISS:          0
cpu3_STLB WRITE        ACCESS:          0 HIT:          0 MISS:          0
cpu3_STLB TRANSLATION  ACCESS:          0 HIT:          0 MISS:          0
cpu3_STLB PREFETCH REQUESTED:          0 ISSUED:          0 USEFUL:          0 USELESS:          0
cpu3_STLB AVERAGE MISS LATENCY: 799.6 cycles
cpu3_STLB TOTAL        ACCESS:          0 HIT:          0 MISS:          0
cpu3_STLB LOAD         ACCESS:          0 HIT:          0 MISS:          0
cpu3_STLB RFO          ACCESS:          0 HIT:          0 MISS:          0
cpu3_STLB PREFETCH     ACCESS:          0 HIT:          0 MISS:          0
cpu3_STLB WRITE        ACCESS:          0 HIT:          0 MISS:          0
cpu3_STLB TRANSLATION  ACCESS:          0 HIT:          0 MISS:          0
cpu3_STLB PREFETCH REQUESTED:          0 ISSUED:          0 USEFUL:          0 USELESS:          0
cpu3_STLB AVERAGE MISS LATENCY: 799.6 cycles
cpu3_STLB TOTAL        ACCESS:          0 HIT:          0 MISS:          0
cpu3_STLB LOAD         ACCESS:          0 HIT:          0 MISS:          0
cpu3_STLB RFO          ACCESS:          0 HIT:          0 MISS:          0
cpu3_STLB PREFETCH     ACCESS:          0 HIT:          0 MISS:          0
cpu3_STLB WRITE        ACCESS:          0 HIT:          0 MISS:          0
cpu3_STLB TRANSLATION  ACCESS:          0 HIT:          0 MISS:          0
cpu3_STLB PREFETCH REQUESTED:          0 ISSUED:          0 USEFUL:          0 USELESS:          0
cpu3_STLB AVERAGE MISS LATENCY: 799.6 cycles
cpu3_STLB TOTAL        ACCESS:      10590 HIT:      10425 MISS:        165
cpu3_STLB LOAD         ACCESS:      10590 HIT:      10425 MISS:        165
cpu3_STLB RFO          ACCESS:          0 HIT:          0 MISS:          0
cpu3_STLB PREFETCH     ACCESS:          0 HIT:          0 MISS:          0
cpu3_STLB WRITE        ACCESS:          0 HIT:          0 MISS:          0
cpu3_STLB TRANSLATION  ACCESS:          0 HIT:          0 MISS:          0
cpu3_STLB PREFETCH REQUESTED:          0 ISSUED:          0 USEFUL:          0 USELESS:          0
cpu3_STLB AVERAGE MISS LATENCY: 799.6 cycles

DRAM Statistics

Channel 0 RQ ROW_BUFFER_HIT:     190776
  ROW_BUFFER_MISS:     425262
 AVG DBUS CONGESTED CYCLE: 3.958
WQ ROW_BUFFER_HIT: Channel 0 
  ROW_BUFFER_MISS:      36468
  FULL:     369307

Channel 1 RQ ROW_BUFFER_HIT:     189677
  ROW_BUFFER_MISS:     424615
 AVG DBUS CONGESTED CYCLE: 3.958
WQ ROW_BUFFER_HIT: Channel 1 
  ROW_BUFFER_MISS:      36582
  FULL:     369181
BERTI TO_L1: 41303287 TO_L2: 30083664 TO_L2_BC_MSHR: 4244664
BERTI AVG_LAT: 94.4564 NUM_TRACK_LATENCY: 3464051 NUM_CANT_TRACK_LATENCY: 2593
BERTI CROSS_PAGE 10558009 NO_CROSS_PAGE: 60828942
BERTI FOUND_BERTI: 14631000 NO_FOUND_BERTI: 77076521
BERTI AVERAGE_ISSUED: 3.27231
BERTI TO_L1: 41303287 TO_L2: 30083664 TO_L2_BC_MSHR: 4244664
BERTI AVG_LAT: 94.4564 NUM_TRACK_LATENCY: 3464051 NUM_CANT_TRACK_LATENCY: 2593
BERTI CROSS_PAGE 10558009 NO_CROSS_PAGE: 60828942
BERTI FOUND_BERTI: 14631000 NO_FOUND_BERTI: 77076521
BERTI AVERAGE_ISSUED: 3.27231
BERTI TO_L1: 41303287 TO_L2: 30083664 TO_L2_BC_MSHR: 4244664
BERTI AVG_LAT: 94.4564 NUM_TRACK_LATENCY: 3464051 NUM_CANT_TRACK_LATENCY: 2593
BERTI CROSS_PAGE 10558009 NO_CROSS_PAGE: 60828942
BERTI FOUND_BERTI: 14631000 NO_FOUND_BERTI: 77076521
BERTI AVERAGE_ISSUED: 3.27231
BERTI TO_L1: 41303287 TO_L2: 30083664 TO_L2_BC_MSHR: 4244664
BERTI AVG_LAT: 94.4564 NUM_TRACK_LATENCY: 3464051 NUM_CANT_TRACK_LATENCY: 2593
BERTI CROSS_PAGE 10558009 NO_CROSS_PAGE: 60828942
BERTI FOUND_BERTI: 14631000 NO_FOUND_BERTI: 77076521
BERTI AVERAGE_ISSUED: 3.27231
