Original cmd-> /home/grads/r/rdas40/ECEN676/ChampSim/bin/multi_core/berti_2ch --warmup_instructions=50000000 --simulation_instructions=150000000  /home/grads/r/rdas40/dpc3_traces/620.omnetpp_s-874B.champsimtrace.xz /home/grads/r/rdas40/dpc3_traces/603.bwaves_s-3699B.champsimtrace.xz /home/grads/r/rdas40/dpc3_traces/649.fotonik3d_s-1176B.champsimtrace.xz /home/grads/r/rdas40/dpc3_traces/627.cam4_s-573B.champsimtrace.xz
WARNING: physical memory size is smaller than virtual memory size.
WARNING: option --warmup_instructions is deprecated. Use --warmup-instructions instead.
WARNING: option --simulation_instructions is deprecated. Use --simulation-instructions instead.

*** ChampSim Multicore Out-of-Order Simulator ***
Warmup Instructions: 50000000
Simulation Instructions: 150000000
Number of CPUs: 4
Page size: 4096

Berti Prefetcher
BERTI HASH ORIGINAL
BERTI IP MASK ffff
Berti Prefetcher
BERTI HASH ORIGINAL
BERTI IP MASK ffff
Berti Prefetcher
BERTI HASH ORIGINAL
BERTI IP MASK ffff
Berti Prefetcher
BERTI HASH ORIGINAL
BERTI IP MASK ffff
Off-chip DRAM Size: 8 GiB Channels: 2 Width: 64-bit Data Race: 3200 MT/s
Heartbeat CPU 2 instructions: 10000003 cycles: 2500048 heartbeat IPC: 4 cumulative IPC: 4 (Simulation time: 00 hr 03 min 04 sec)
Heartbeat CPU 1 instructions: 10000003 cycles: 2521875 heartbeat IPC: 3.965 cumulative IPC: 3.965 (Simulation time: 00 hr 03 min 05 sec)
Heartbeat CPU 3 instructions: 10000003 cycles: 2711645 heartbeat IPC: 3.688 cumulative IPC: 3.688 (Simulation time: 00 hr 03 min 19 sec)
Heartbeat CPU 0 instructions: 10000001 cycles: 4176342 heartbeat IPC: 2.394 cumulative IPC: 2.394 (Simulation time: 00 hr 05 min 09 sec)
Heartbeat CPU 2 instructions: 20000003 cycles: 5000048 heartbeat IPC: 4 cumulative IPC: 4 (Simulation time: 00 hr 06 min 11 sec)
Heartbeat CPU 1 instructions: 20000001 cycles: 5038237 heartbeat IPC: 3.974 cumulative IPC: 3.97 (Simulation time: 00 hr 06 min 14 sec)
Heartbeat CPU 3 instructions: 20000003 cycles: 5231167 heartbeat IPC: 3.969 cumulative IPC: 3.823 (Simulation time: 00 hr 06 min 29 sec)
Heartbeat CPU 2 instructions: 30000003 cycles: 7500048 heartbeat IPC: 4 cumulative IPC: 4 (Simulation time: 00 hr 09 min 20 sec)
Heartbeat CPU 1 instructions: 30000000 cycles: 7553266 heartbeat IPC: 3.976 cumulative IPC: 3.972 (Simulation time: 00 hr 09 min 24 sec)
Heartbeat CPU 3 instructions: 30000000 cycles: 7750516 heartbeat IPC: 3.969 cumulative IPC: 3.871 (Simulation time: 00 hr 09 min 39 sec)
Heartbeat CPU 0 instructions: 20000004 cycles: 8348477 heartbeat IPC: 2.397 cumulative IPC: 2.396 (Simulation time: 00 hr 10 min 24 sec)
Heartbeat CPU 2 instructions: 40000003 cycles: 10000048 heartbeat IPC: 4 cumulative IPC: 4 (Simulation time: 00 hr 12 min 27 sec)
Heartbeat CPU 1 instructions: 40000003 cycles: 10077277 heartbeat IPC: 3.962 cumulative IPC: 3.969 (Simulation time: 00 hr 12 min 33 sec)
Heartbeat CPU 3 instructions: 40000000 cycles: 10280589 heartbeat IPC: 3.952 cumulative IPC: 3.891 (Simulation time: 00 hr 12 min 49 sec)
Heartbeat CPU 2 instructions: 50000003 cycles: 12500048 heartbeat IPC: 4 cumulative IPC: 4 (Simulation time: 00 hr 15 min 39 sec)
Warmup finished CPU 2 instructions: 50000003 cycles: 12500049 cumulative IPC: 4 (Simulation time: 00 hr 15 min 39 sec)
Heartbeat CPU 0 instructions: 30000001 cycles: 12520701 heartbeat IPC: 2.397 cumulative IPC: 2.396 (Simulation time: 00 hr 15 min 41 sec)
Heartbeat CPU 1 instructions: 50000000 cycles: 12599099 heartbeat IPC: 3.965 cumulative IPC: 3.969 (Simulation time: 00 hr 15 min 47 sec)
Warmup finished CPU 1 instructions: 50000000 cycles: 12599100 cumulative IPC: 3.969 (Simulation time: 00 hr 15 min 47 sec)
Heartbeat CPU 3 instructions: 50000003 cycles: 12883312 heartbeat IPC: 3.842 cumulative IPC: 3.881 (Simulation time: 00 hr 16 min 09 sec)
Warmup finished CPU 3 instructions: 50000003 cycles: 12883313 cumulative IPC: 3.881 (Simulation time: 00 hr 16 min 09 sec)
Heartbeat CPU 2 instructions: 60000003 cycles: 15000048 heartbeat IPC: 4 cumulative IPC: 4 (Simulation time: 00 hr 18 min 52 sec)
Heartbeat CPU 1 instructions: 60000002 cycles: 15124094 heartbeat IPC: 3.96 cumulative IPC: 3.967 (Simulation time: 00 hr 19 min 02 sec)
Heartbeat CPU 3 instructions: 60000002 cycles: 15501719 heartbeat IPC: 3.819 cumulative IPC: 3.871 (Simulation time: 00 hr 19 min 31 sec)
Heartbeat CPU 0 instructions: 40000000 cycles: 16706021 heartbeat IPC: 2.389 cumulative IPC: 2.394 (Simulation time: 00 hr 21 min 04 sec)
Heartbeat CPU 2 instructions: 70000003 cycles: 17500048 heartbeat IPC: 4 cumulative IPC: 4 (Simulation time: 00 hr 22 min 05 sec)
Heartbeat CPU 1 instructions: 70000000 cycles: 17648868 heartbeat IPC: 3.961 cumulative IPC: 3.966 (Simulation time: 00 hr 22 min 16 sec)
Heartbeat CPU 3 instructions: 70000000 cycles: 18079911 heartbeat IPC: 3.879 cumulative IPC: 3.872 (Simulation time: 00 hr 22 min 49 sec)
Heartbeat CPU 2 instructions: 80000003 cycles: 20000048 heartbeat IPC: 4 cumulative IPC: 4 (Simulation time: 00 hr 25 min 15 sec)
Heartbeat CPU 1 instructions: 80000001 cycles: 20174084 heartbeat IPC: 3.96 cumulative IPC: 3.965 (Simulation time: 00 hr 25 min 28 sec)
Heartbeat CPU 3 instructions: 80000004 cycles: 20640291 heartbeat IPC: 3.906 cumulative IPC: 3.876 (Simulation time: 00 hr 26 min 04 sec)
Heartbeat CPU 0 instructions: 50000000 cycles: 20872160 heartbeat IPC: 2.4 cumulative IPC: 2.396 (Simulation time: 00 hr 26 min 22 sec)
Warmup finished CPU 0 instructions: 50000000 cycles: 20872161 cumulative IPC: 2.396 (Simulation time: 00 hr 26 min 22 sec)
Warmup complete CPU 0 instructions: 50000000 cycles: 20872161 cumulative IPC: 2.396 (Simulation time: 00 hr 26 min 22 sec)
Warmup complete CPU 1 instructions: 82763689 cycles: 20872161 cumulative IPC: 3.965 (Simulation time: 00 hr 26 min 22 sec)
Warmup complete CPU 2 instructions: 83488451 cycles: 20872161 cumulative IPC: 4 (Simulation time: 00 hr 26 min 22 sec)
Warmup complete CPU 3 instructions: 80844913 cycles: 20872161 cumulative IPC: 3.873 (Simulation time: 00 hr 26 min 22 sec)
Heartbeat CPU 1 instructions: 90000002 cycles: 24020240 heartbeat IPC: 2.6 cumulative IPC: 2.299 (Simulation time: 00 hr 29 min 13 sec)
Heartbeat CPU 3 instructions: 90000003 cycles: 24621882 heartbeat IPC: 2.512 cumulative IPC: 2.442 (Simulation time: 00 hr 29 min 45 sec)
Heartbeat CPU 2 instructions: 90000004 cycles: 24839659 heartbeat IPC: 2.066 cumulative IPC: 1.641 (Simulation time: 00 hr 29 min 57 sec)
Heartbeat CPU 1 instructions: 100000000 cycles: 28334288 heartbeat IPC: 2.318 cumulative IPC: 2.31 (Simulation time: 00 hr 32 min 44 sec)
Heartbeat CPU 2 instructions: 100000002 cycles: 32394739 heartbeat IPC: 1.324 cumulative IPC: 1.433 (Simulation time: 00 hr 35 min 59 sec)
Heartbeat CPU 1 instructions: 110000002 cycles: 32727043 heartbeat IPC: 2.276 cumulative IPC: 2.297 (Simulation time: 00 hr 36 min 13 sec)
Heartbeat CPU 3 instructions: 100000000 cycles: 34764165 heartbeat IPC: 0.986 cumulative IPC: 1.379 (Simulation time: 00 hr 37 min 47 sec)
Heartbeat CPU 1 instructions: 120000001 cycles: 37033772 heartbeat IPC: 2.322 cumulative IPC: 2.304 (Simulation time: 00 hr 39 min 17 sec)
Heartbeat CPU 1 instructions: 130000000 cycles: 41513707 heartbeat IPC: 2.232 cumulative IPC: 2.288 (Simulation time: 00 hr 42 min 09 sec)
Heartbeat CPU 1 instructions: 140000000 cycles: 46006024 heartbeat IPC: 2.226 cumulative IPC: 2.277 (Simulation time: 00 hr 45 min 01 sec)
Heartbeat CPU 1 instructions: 150000002 cycles: 50444439 heartbeat IPC: 2.253 cumulative IPC: 2.274 (Simulation time: 00 hr 47 min 52 sec)
Heartbeat CPU 2 instructions: 110000000 cycles: 52797260 heartbeat IPC: 0.4901 cumulative IPC: 0.8304 (Simulation time: 00 hr 49 min 22 sec)
Heartbeat CPU 1 instructions: 160000001 cycles: 54882671 heartbeat IPC: 2.253 cumulative IPC: 2.271 (Simulation time: 00 hr 50 min 45 sec)
Heartbeat CPU 3 instructions: 110000001 cycles: 59087261 heartbeat IPC: 0.4111 cumulative IPC: 0.7629 (Simulation time: 00 hr 54 min 00 sec)
Heartbeat CPU 1 instructions: 170000000 cycles: 59277786 heartbeat IPC: 2.275 cumulative IPC: 2.271 (Simulation time: 00 hr 54 min 10 sec)
Heartbeat CPU 2 instructions: 120000004 cycles: 62449842 heartbeat IPC: 1.036 cumulative IPC: 0.8782 (Simulation time: 00 hr 56 min 56 sec)
Heartbeat CPU 3 instructions: 120000003 cycles: 63258655 heartbeat IPC: 2.397 cumulative IPC: 0.9238 (Simulation time: 00 hr 57 min 41 sec)
Heartbeat CPU 1 instructions: 180000000 cycles: 63684345 heartbeat IPC: 2.269 cumulative IPC: 2.271 (Simulation time: 00 hr 58 min 04 sec)
Heartbeat CPU 3 instructions: 130000001 cycles: 66750692 heartbeat IPC: 2.864 cumulative IPC: 1.071 (Simulation time: 01 hr 00 min 53 sec)
Heartbeat CPU 1 instructions: 190000000 cycles: 68056091 heartbeat IPC: 2.287 cumulative IPC: 2.273 (Simulation time: 01 hr 02 min 06 sec)
Heartbeat CPU 2 instructions: 130000002 cycles: 68569600 heartbeat IPC: 1.634 cumulative IPC: 0.9751 (Simulation time: 01 hr 02 min 34 sec)
Heartbeat CPU 0 instructions: 60000003 cycles: 69563693 heartbeat IPC: 0.2054 cumulative IPC: 0.2054 (Simulation time: 01 hr 03 min 30 sec)
Heartbeat CPU 3 instructions: 140000000 cycles: 70246133 heartbeat IPC: 2.861 cumulative IPC: 1.198 (Simulation time: 01 hr 04 min 08 sec)
Heartbeat CPU 1 instructions: 200000004 cycles: 72404730 heartbeat IPC: 2.3 cumulative IPC: 2.275 (Simulation time: 01 hr 06 min 02 sec)
Heartbeat CPU 2 instructions: 140000004 cycles: 74916457 heartbeat IPC: 1.576 cumulative IPC: 1.046 (Simulation time: 01 hr 08 min 11 sec)
Heartbeat CPU 3 instructions: 150000003 cycles: 75155844 heartbeat IPC: 2.037 cumulative IPC: 1.274 (Simulation time: 01 hr 08 min 23 sec)
Heartbeat CPU 1 instructions: 210000001 cycles: 76818936 heartbeat IPC: 2.265 cumulative IPC: 2.274 (Simulation time: 01 hr 09 min 49 sec)
Heartbeat CPU 3 instructions: 160000000 cycles: 80274501 heartbeat IPC: 1.954 cumulative IPC: 1.333 (Simulation time: 01 hr 12 min 49 sec)
Heartbeat CPU 2 instructions: 150000001 cycles: 81197197 heartbeat IPC: 1.592 cumulative IPC: 1.103 (Simulation time: 01 hr 13 min 36 sec)
Heartbeat CPU 1 instructions: 220000002 cycles: 81230213 heartbeat IPC: 2.267 cumulative IPC: 2.274 (Simulation time: 01 hr 13 min 38 sec)
Heartbeat CPU 3 instructions: 170000000 cycles: 85550993 heartbeat IPC: 1.895 cumulative IPC: 1.378 (Simulation time: 01 hr 17 min 22 sec)
Heartbeat CPU 1 instructions: 230000000 cycles: 85602981 heartbeat IPC: 2.287 cumulative IPC: 2.275 (Simulation time: 01 hr 17 min 25 sec)
Simulation finished CPU 1 instructions: 150000000 cycles: 65956247 cumulative IPC: 2.274 (Simulation time: 01 hr 18 min 30 sec)
Heartbeat CPU 2 instructions: 160000004 cycles: 87510946 heartbeat IPC: 1.584 cumulative IPC: 1.148 (Simulation time: 01 hr 19 min 07 sec)
Heartbeat CPU 1 instructions: 240000001 cycles: 90030322 heartbeat IPC: 2.259 cumulative IPC: 2.274 (Simulation time: 01 hr 21 min 12 sec)
Heartbeat CPU 3 instructions: 180000002 cycles: 90510160 heartbeat IPC: 2.016 cumulative IPC: 1.424 (Simulation time: 01 hr 21 min 38 sec)
Heartbeat CPU 2 instructions: 170000004 cycles: 93987830 heartbeat IPC: 1.544 cumulative IPC: 1.183 (Simulation time: 01 hr 24 min 43 sec)
Heartbeat CPU 1 instructions: 250000001 cycles: 94392833 heartbeat IPC: 2.292 cumulative IPC: 2.275 (Simulation time: 01 hr 25 min 05 sec)
Heartbeat CPU 3 instructions: 190000003 cycles: 94989925 heartbeat IPC: 2.232 cumulative IPC: 1.473 (Simulation time: 01 hr 25 min 37 sec)
Heartbeat CPU 1 instructions: 260000000 cycles: 98787154 heartbeat IPC: 2.276 cumulative IPC: 2.275 (Simulation time: 01 hr 28 min 47 sec)
Heartbeat CPU 2 instructions: 180000002 cycles: 100867238 heartbeat IPC: 1.454 cumulative IPC: 1.206 (Simulation time: 01 hr 30 min 24 sec)
Heartbeat CPU 0 instructions: 70000004 cycles: 100920126 heartbeat IPC: 0.3189 cumulative IPC: 0.2499 (Simulation time: 01 hr 30 min 26 sec)
Heartbeat CPU 1 instructions: 270000003 cycles: 103198501 heartbeat IPC: 2.267 cumulative IPC: 2.274 (Simulation time: 01 hr 32 min 16 sec)
Heartbeat CPU 3 instructions: 200000004 cycles: 103429149 heartbeat IPC: 1.185 cumulative IPC: 1.443 (Simulation time: 01 hr 32 min 27 sec)
Heartbeat CPU 1 instructions: 280000003 cycles: 107580345 heartbeat IPC: 2.282 cumulative IPC: 2.275 (Simulation time: 01 hr 35 min 28 sec)
Heartbeat CPU 1 instructions: 290000001 cycles: 112012186 heartbeat IPC: 2.256 cumulative IPC: 2.274 (Simulation time: 01 hr 38 min 19 sec)
Heartbeat CPU 2 instructions: 190000001 cycles: 114807907 heartbeat IPC: 0.7173 cumulative IPC: 1.134 (Simulation time: 01 hr 40 min 07 sec)
Heartbeat CPU 1 instructions: 300000002 cycles: 116460548 heartbeat IPC: 2.248 cumulative IPC: 2.273 (Simulation time: 01 hr 41 min 10 sec)
Heartbeat CPU 1 instructions: 310000003 cycles: 120874812 heartbeat IPC: 2.265 cumulative IPC: 2.272 (Simulation time: 01 hr 43 min 59 sec)
Heartbeat CPU 1 instructions: 320000002 cycles: 125357764 heartbeat IPC: 2.231 cumulative IPC: 2.271 (Simulation time: 01 hr 46 min 52 sec)
Heartbeat CPU 1 instructions: 330000004 cycles: 129872225 heartbeat IPC: 2.215 cumulative IPC: 2.268 (Simulation time: 01 hr 50 min 02 sec)
Heartbeat CPU 3 instructions: 210000003 cycles: 129998672 heartbeat IPC: 0.3764 cumulative IPC: 1.184 (Simulation time: 01 hr 50 min 08 sec)
Heartbeat CPU 2 instructions: 200000000 cycles: 131755077 heartbeat IPC: 0.5901 cumulative IPC: 1.051 (Simulation time: 01 hr 51 min 41 sec)
Heartbeat CPU 3 instructions: 220000000 cycles: 134248895 heartbeat IPC: 2.353 cumulative IPC: 1.227 (Simulation time: 01 hr 53 min 52 sec)
Heartbeat CPU 1 instructions: 340000001 cycles: 134283748 heartbeat IPC: 2.267 cumulative IPC: 2.268 (Simulation time: 01 hr 53 min 54 sec)
Heartbeat CPU 3 instructions: 230000001 cycles: 137684567 heartbeat IPC: 2.911 cumulative IPC: 1.277 (Simulation time: 01 hr 57 min 02 sec)
Simulation finished CPU 3 instructions: 150000000 cycles: 117109065 cumulative IPC: 1.281 (Simulation time: 01 hr 57 min 18 sec)
Heartbeat CPU 2 instructions: 210000000 cycles: 138167551 heartbeat IPC: 1.559 cumulative IPC: 1.079 (Simulation time: 01 hr 57 min 29 sec)
Heartbeat CPU 1 instructions: 350000001 cycles: 138699584 heartbeat IPC: 2.265 cumulative IPC: 2.268 (Simulation time: 01 hr 57 min 58 sec)
Heartbeat CPU 3 instructions: 240000000 cycles: 141187440 heartbeat IPC: 2.855 cumulative IPC: 1.323 (Simulation time: 02 hr 00 min 15 sec)
Heartbeat CPU 1 instructions: 360000004 cycles: 143143422 heartbeat IPC: 2.25 cumulative IPC: 2.267 (Simulation time: 02 hr 02 min 00 sec)
Heartbeat CPU 2 instructions: 220000004 cycles: 144447468 heartbeat IPC: 1.592 cumulative IPC: 1.105 (Simulation time: 02 hr 03 min 09 sec)
Heartbeat CPU 3 instructions: 250000000 cycles: 145655471 heartbeat IPC: 2.238 cumulative IPC: 1.356 (Simulation time: 02 hr 04 min 12 sec)
Heartbeat CPU 1 instructions: 370000000 cycles: 147527531 heartbeat IPC: 2.281 cumulative IPC: 2.268 (Simulation time: 02 hr 05 min 49 sec)
Heartbeat CPU 2 instructions: 230000001 cycles: 150722562 heartbeat IPC: 1.594 cumulative IPC: 1.128 (Simulation time: 02 hr 08 min 35 sec)
Heartbeat CPU 0 instructions: 80000002 cycles: 150830028 heartbeat IPC: 0.2004 cumulative IPC: 0.2308 (Simulation time: 02 hr 08 min 40 sec)
Heartbeat CPU 3 instructions: 260000002 cycles: 150832390 heartbeat IPC: 1.932 cumulative IPC: 1.379 (Simulation time: 02 hr 08 min 40 sec)
Heartbeat CPU 1 instructions: 380000000 cycles: 151954426 heartbeat IPC: 2.259 cumulative IPC: 2.268 (Simulation time: 02 hr 09 min 39 sec)
Simulation finished CPU 2 instructions: 150000000 cycles: 132059852 cumulative IPC: 1.136 (Simulation time: 02 hr 10 min 30 sec)
Heartbeat CPU 3 instructions: 270000000 cycles: 155943940 heartbeat IPC: 1.956 cumulative IPC: 1.4 (Simulation time: 02 hr 13 min 07 sec)
Heartbeat CPU 1 instructions: 390000000 cycles: 156371623 heartbeat IPC: 2.264 cumulative IPC: 2.267 (Simulation time: 02 hr 13 min 30 sec)
Heartbeat CPU 2 instructions: 240000002 cycles: 156974002 heartbeat IPC: 1.6 cumulative IPC: 1.15 (Simulation time: 02 hr 14 min 00 sec)
Heartbeat CPU 3 instructions: 280000001 cycles: 160733358 heartbeat IPC: 2.088 cumulative IPC: 1.424 (Simulation time: 02 hr 17 min 17 sec)
Heartbeat CPU 1 instructions: 400000000 cycles: 160816985 heartbeat IPC: 2.25 cumulative IPC: 2.267 (Simulation time: 02 hr 17 min 21 sec)
Heartbeat CPU 2 instructions: 250000000 cycles: 163511385 heartbeat IPC: 1.53 cumulative IPC: 1.167 (Simulation time: 02 hr 19 min 40 sec)
Heartbeat CPU 1 instructions: 410000000 cycles: 165218077 heartbeat IPC: 2.272 cumulative IPC: 2.267 (Simulation time: 02 hr 21 min 09 sec)
Heartbeat CPU 3 instructions: 290000003 cycles: 165796181 heartbeat IPC: 1.975 cumulative IPC: 1.443 (Simulation time: 02 hr 21 min 42 sec)
Heartbeat CPU 1 instructions: 420000004 cycles: 169661823 heartbeat IPC: 2.25 cumulative IPC: 2.267 (Simulation time: 02 hr 25 min 03 sec)
Heartbeat CPU 2 instructions: 260000002 cycles: 169975258 heartbeat IPC: 1.547 cumulative IPC: 1.184 (Simulation time: 02 hr 25 min 18 sec)
Heartbeat CPU 3 instructions: 300000002 cycles: 172156023 heartbeat IPC: 1.572 cumulative IPC: 1.449 (Simulation time: 02 hr 27 min 00 sec)
Heartbeat CPU 1 instructions: 430000004 cycles: 174102308 heartbeat IPC: 2.252 cumulative IPC: 2.266 (Simulation time: 02 hr 28 min 33 sec)
Heartbeat CPU 2 instructions: 270000003 cycles: 177045404 heartbeat IPC: 1.414 cumulative IPC: 1.194 (Simulation time: 02 hr 30 min 53 sec)
Heartbeat CPU 1 instructions: 440000003 cycles: 178588665 heartbeat IPC: 2.229 cumulative IPC: 2.265 (Simulation time: 02 hr 31 min 58 sec)
Heartbeat CPU 1 instructions: 450000000 cycles: 183000578 heartbeat IPC: 2.267 cumulative IPC: 2.265 (Simulation time: 02 hr 34 min 51 sec)
Heartbeat CPU 1 instructions: 460000003 cycles: 187539902 heartbeat IPC: 2.203 cumulative IPC: 2.263 (Simulation time: 02 hr 37 min 44 sec)
Heartbeat CPU 1 instructions: 470000002 cycles: 191888083 heartbeat IPC: 2.3 cumulative IPC: 2.264 (Simulation time: 02 hr 40 min 31 sec)
Heartbeat CPU 0 instructions: 90000003 cycles: 193252444 heartbeat IPC: 0.2357 cumulative IPC: 0.232 (Simulation time: 02 hr 41 min 23 sec)
Heartbeat CPU 2 instructions: 280000000 cycles: 196207396 heartbeat IPC: 0.5219 cumulative IPC: 1.121 (Simulation time: 02 hr 43 min 19 sec)
Heartbeat CPU 1 instructions: 480000000 cycles: 196309436 heartbeat IPC: 2.262 cumulative IPC: 2.264 (Simulation time: 02 hr 43 min 23 sec)
Heartbeat CPU 3 instructions: 310000002 cycles: 199416411 heartbeat IPC: 0.3668 cumulative IPC: 1.283 (Simulation time: 02 hr 45 min 26 sec)
Heartbeat CPU 1 instructions: 490000002 cycles: 200623891 heartbeat IPC: 2.318 cumulative IPC: 2.266 (Simulation time: 02 hr 46 min 22 sec)
Heartbeat CPU 3 instructions: 320000004 cycles: 204251485 heartbeat IPC: 2.068 cumulative IPC: 1.304 (Simulation time: 02 hr 49 min 32 sec)
Heartbeat CPU 1 instructions: 500000000 cycles: 204966862 heartbeat IPC: 2.303 cumulative IPC: 2.266 (Simulation time: 02 hr 50 min 11 sec)
Heartbeat CPU 2 instructions: 290000003 cycles: 205352056 heartbeat IPC: 1.094 cumulative IPC: 1.119 (Simulation time: 02 hr 50 min 33 sec)
Heartbeat CPU 3 instructions: 330000002 cycles: 207746301 heartbeat IPC: 2.861 cumulative IPC: 1.333 (Simulation time: 02 hr 52 min 46 sec)
Heartbeat CPU 1 instructions: 510000004 cycles: 209271955 heartbeat IPC: 2.323 cumulative IPC: 2.268 (Simulation time: 02 hr 54 min 12 sec)
Heartbeat CPU 3 instructions: 340000004 cycles: 211190471 heartbeat IPC: 2.903 cumulative IPC: 1.362 (Simulation time: 02 hr 55 min 58 sec)
Heartbeat CPU 2 instructions: 300000003 cycles: 211439834 heartbeat IPC: 1.643 cumulative IPC: 1.136 (Simulation time: 02 hr 56 min 12 sec)
Heartbeat CPU 1 instructions: 520000000 cycles: 213578498 heartbeat IPC: 2.322 cumulative IPC: 2.269 (Simulation time: 02 hr 58 min 10 sec)
Heartbeat CPU 3 instructions: 350000004 cycles: 215200919 heartbeat IPC: 2.493 cumulative IPC: 1.385 (Simulation time: 02 hr 59 min 38 sec)
Heartbeat CPU 1 instructions: 530000002 cycles: 218717411 heartbeat IPC: 1.946 cumulative IPC: 2.261 (Simulation time: 03 hr 02 min 25 sec)
Heartbeat CPU 2 instructions: 310000002 cycles: 220673123 heartbeat IPC: 1.083 cumulative IPC: 1.134 (Simulation time: 03 hr 04 min 01 sec)
Heartbeat CPU 3 instructions: 360000001 cycles: 221006546 heartbeat IPC: 1.722 cumulative IPC: 1.395 (Simulation time: 03 hr 04 min 18 sec)
Heartbeat CPU 1 instructions: 540000003 cycles: 223428407 heartbeat IPC: 2.123 cumulative IPC: 2.257 (Simulation time: 03 hr 06 min 24 sec)
Heartbeat CPU 3 instructions: 370000000 cycles: 226077045 heartbeat IPC: 1.972 cumulative IPC: 1.409 (Simulation time: 03 hr 08 min 44 sec)
Heartbeat CPU 2 instructions: 320000002 cycles: 226758569 heartbeat IPC: 1.643 cumulative IPC: 1.149 (Simulation time: 03 hr 09 min 21 sec)
Heartbeat CPU 1 instructions: 550000002 cycles: 227759596 heartbeat IPC: 2.309 cumulative IPC: 2.258 (Simulation time: 03 hr 10 min 14 sec)
Heartbeat CPU 3 instructions: 380000002 cycles: 230962397 heartbeat IPC: 2.047 cumulative IPC: 1.424 (Simulation time: 03 hr 13 min 01 sec)
Heartbeat CPU 1 instructions: 560000002 cycles: 232106665 heartbeat IPC: 2.3 cumulative IPC: 2.259 (Simulation time: 03 hr 14 min 03 sec)
Heartbeat CPU 0 instructions: 100000000 cycles: 232617342 heartbeat IPC: 0.254 cumulative IPC: 0.2361 (Simulation time: 03 hr 14 min 31 sec)
Heartbeat CPU 2 instructions: 330000001 cycles: 232990638 heartbeat IPC: 1.605 cumulative IPC: 1.162 (Simulation time: 03 hr 14 min 49 sec)
Heartbeat CPU 3 instructions: 390000000 cycles: 236014658 heartbeat IPC: 1.979 cumulative IPC: 1.437 (Simulation time: 03 hr 17 min 24 sec)
Heartbeat CPU 1 instructions: 570000001 cycles: 236449444 heartbeat IPC: 2.303 cumulative IPC: 2.26 (Simulation time: 03 hr 17 min 47 sec)
Heartbeat CPU 2 instructions: 340000002 cycles: 239281503 heartbeat IPC: 1.59 cumulative IPC: 1.174 (Simulation time: 03 hr 20 min 20 sec)
Heartbeat CPU 3 instructions: 400000001 cycles: 240223756 heartbeat IPC: 2.376 cumulative IPC: 1.455 (Simulation time: 03 hr 21 min 12 sec)
Heartbeat CPU 1 instructions: 580000002 cycles: 240739091 heartbeat IPC: 2.331 cumulative IPC: 2.262 (Simulation time: 03 hr 21 min 40 sec)
Heartbeat CPU 1 instructions: 590000002 cycles: 245024567 heartbeat IPC: 2.333 cumulative IPC: 2.263 (Simulation time: 03 hr 25 min 01 sec)
Heartbeat CPU 2 instructions: 350000002 cycles: 246168172 heartbeat IPC: 1.452 cumulative IPC: 1.183 (Simulation time: 03 hr 25 min 55 sec)
Heartbeat CPU 1 instructions: 600000000 cycles: 249293360 heartbeat IPC: 2.343 cumulative IPC: 2.264 (Simulation time: 03 hr 28 min 26 sec)
Heartbeat CPU 3 instructions: 410000002 cycles: 252492379 heartbeat IPC: 0.8151 cumulative IPC: 1.421 (Simulation time: 03 hr 30 min 35 sec)
Heartbeat CPU 1 instructions: 610000000 cycles: 253614933 heartbeat IPC: 2.314 cumulative IPC: 2.265 (Simulation time: 03 hr 31 min 18 sec)
Heartbeat CPU 1 instructions: 620000001 cycles: 257995616 heartbeat IPC: 2.283 cumulative IPC: 2.266 (Simulation time: 03 hr 34 min 07 sec)
Heartbeat CPU 2 instructions: 360000002 cycles: 262334694 heartbeat IPC: 0.6186 cumulative IPC: 1.145 (Simulation time: 03 hr 36 min 56 sec)
Heartbeat CPU 1 instructions: 630000001 cycles: 262388016 heartbeat IPC: 2.277 cumulative IPC: 2.266 (Simulation time: 03 hr 36 min 59 sec)
Heartbeat CPU 1 instructions: 640000001 cycles: 266747784 heartbeat IPC: 2.294 cumulative IPC: 2.266 (Simulation time: 03 hr 39 min 48 sec)
Heartbeat CPU 1 instructions: 650000000 cycles: 271130377 heartbeat IPC: 2.282 cumulative IPC: 2.267 (Simulation time: 03 hr 42 min 36 sec)
Heartbeat CPU 3 instructions: 420000002 cycles: 275026431 heartbeat IPC: 0.4438 cumulative IPC: 1.334 (Simulation time: 03 hr 45 min 41 sec)
Heartbeat CPU 1 instructions: 660000002 cycles: 275513987 heartbeat IPC: 2.281 cumulative IPC: 2.267 (Simulation time: 03 hr 46 min 06 sec)
Heartbeat CPU 2 instructions: 370000004 cycles: 276448640 heartbeat IPC: 0.7085 cumulative IPC: 1.121 (Simulation time: 03 hr 46 min 54 sec)
Heartbeat CPU 3 instructions: 430000000 cycles: 279106525 heartbeat IPC: 2.451 cumulative IPC: 1.352 (Simulation time: 03 hr 49 min 21 sec)
Heartbeat CPU 1 instructions: 670000001 cycles: 279912568 heartbeat IPC: 2.273 cumulative IPC: 2.267 (Simulation time: 03 hr 50 min 07 sec)
Heartbeat CPU 0 instructions: 110000004 cycles: 282135778 heartbeat IPC: 0.2019 cumulative IPC: 0.2297 (Simulation time: 03 hr 52 min 09 sec)
Heartbeat CPU 2 instructions: 380000000 cycles: 282660527 heartbeat IPC: 1.61 cumulative IPC: 1.133 (Simulation time: 03 hr 52 min 37 sec)
Heartbeat CPU 3 instructions: 440000003 cycles: 282662176 heartbeat IPC: 2.812 cumulative IPC: 1.372 (Simulation time: 03 hr 52 min 38 sec)
Heartbeat CPU 1 instructions: 680000002 cycles: 284334668 heartbeat IPC: 2.261 cumulative IPC: 2.267 (Simulation time: 03 hr 54 min 10 sec)
Heartbeat CPU 3 instructions: 450000002 cycles: 286310020 heartbeat IPC: 2.741 cumulative IPC: 1.391 (Simulation time: 03 hr 55 min 57 sec)
Heartbeat CPU 1 instructions: 690000001 cycles: 288719238 heartbeat IPC: 2.281 cumulative IPC: 2.267 (Simulation time: 03 hr 58 min 07 sec)
Heartbeat CPU 2 instructions: 390000003 cycles: 288822165 heartbeat IPC: 1.623 cumulative IPC: 1.144 (Simulation time: 03 hr 58 min 12 sec)
Heartbeat CPU 3 instructions: 460000001 cycles: 290899349 heartbeat IPC: 2.179 cumulative IPC: 1.404 (Simulation time: 04 hr 00 min 00 sec)
Heartbeat CPU 1 instructions: 700000000 cycles: 293111121 heartbeat IPC: 2.277 cumulative IPC: 2.267 (Simulation time: 04 hr 01 min 56 sec)
Heartbeat CPU 2 instructions: 400000004 cycles: 295067757 heartbeat IPC: 1.601 cumulative IPC: 1.154 (Simulation time: 04 hr 03 min 39 sec)
Heartbeat CPU 3 instructions: 470000000 cycles: 295910251 heartbeat IPC: 1.996 cumulative IPC: 1.415 (Simulation time: 04 hr 04 min 25 sec)
Heartbeat CPU 1 instructions: 710000002 cycles: 297507652 heartbeat IPC: 2.275 cumulative IPC: 2.267 (Simulation time: 04 hr 05 min 48 sec)
Heartbeat CPU 3 instructions: 480000000 cycles: 300986221 heartbeat IPC: 1.97 cumulative IPC: 1.425 (Simulation time: 04 hr 08 min 50 sec)
Heartbeat CPU 2 instructions: 410000001 cycles: 301194875 heartbeat IPC: 1.632 cumulative IPC: 1.165 (Simulation time: 04 hr 09 min 01 sec)
Heartbeat CPU 1 instructions: 720000004 cycles: 301951163 heartbeat IPC: 2.25 cumulative IPC: 2.267 (Simulation time: 04 hr 09 min 42 sec)
Heartbeat CPU 3 instructions: 490000001 cycles: 306047060 heartbeat IPC: 1.976 cumulative IPC: 1.435 (Simulation time: 04 hr 13 min 13 sec)
Heartbeat CPU 1 instructions: 730000002 cycles: 306360563 heartbeat IPC: 2.268 cumulative IPC: 2.267 (Simulation time: 04 hr 13 min 30 sec)
Heartbeat CPU 2 instructions: 420000002 cycles: 307659914 heartbeat IPC: 1.547 cumulative IPC: 1.173 (Simulation time: 04 hr 14 min 38 sec)
Heartbeat CPU 3 instructions: 500000000 cycles: 310191788 heartbeat IPC: 2.413 cumulative IPC: 1.449 (Simulation time: 04 hr 16 min 57 sec)
Heartbeat CPU 1 instructions: 740000004 cycles: 310760252 heartbeat IPC: 2.273 cumulative IPC: 2.267 (Simulation time: 04 hr 17 min 29 sec)
Heartbeat CPU 0 instructions: 120000004 cycles: 312927280 heartbeat IPC: 0.3248 cumulative IPC: 0.2397 (Simulation time: 04 hr 19 min 10 sec)
Heartbeat CPU 2 instructions: 430000002 cycles: 314275228 heartbeat IPC: 1.512 cumulative IPC: 1.181 (Simulation time: 04 hr 20 min 14 sec)
Heartbeat CPU 1 instructions: 750000001 cycles: 315217570 heartbeat IPC: 2.244 cumulative IPC: 2.267 (Simulation time: 04 hr 20 min 58 sec)
Heartbeat CPU 1 instructions: 760000000 cycles: 319640829 heartbeat IPC: 2.261 cumulative IPC: 2.267 (Simulation time: 04 hr 24 min 29 sec)
Heartbeat CPU 3 instructions: 510000000 cycles: 319978977 heartbeat IPC: 1.022 cumulative IPC: 1.435 (Simulation time: 04 hr 24 min 42 sec)
Heartbeat CPU 1 instructions: 770000002 cycles: 324069595 heartbeat IPC: 2.258 cumulative IPC: 2.267 (Simulation time: 04 hr 27 min 27 sec)
Heartbeat CPU 2 instructions: 440000004 cycles: 324967979 heartbeat IPC: 0.9352 cumulative IPC: 1.172 (Simulation time: 04 hr 28 min 01 sec)
Heartbeat CPU 1 instructions: 780000002 cycles: 328502637 heartbeat IPC: 2.256 cumulative IPC: 2.266 (Simulation time: 04 hr 30 min 18 sec)
Heartbeat CPU 1 instructions: 790000002 cycles: 332953387 heartbeat IPC: 2.247 cumulative IPC: 2.266 (Simulation time: 04 hr 33 min 08 sec)
Heartbeat CPU 1 instructions: 800000001 cycles: 337385312 heartbeat IPC: 2.256 cumulative IPC: 2.266 (Simulation time: 04 hr 36 min 00 sec)
Heartbeat CPU 1 instructions: 810000000 cycles: 341867351 heartbeat IPC: 2.231 cumulative IPC: 2.266 (Simulation time: 04 hr 38 min 52 sec)
Heartbeat CPU 2 instructions: 450000003 cycles: 344988933 heartbeat IPC: 0.4995 cumulative IPC: 1.131 (Simulation time: 04 hr 41 min 17 sec)
Heartbeat CPU 3 instructions: 520000003 cycles: 345418865 heartbeat IPC: 0.3931 cumulative IPC: 1.353 (Simulation time: 04 hr 41 min 40 sec)
Heartbeat CPU 1 instructions: 820000000 cycles: 346243323 heartbeat IPC: 2.285 cumulative IPC: 2.266 (Simulation time: 04 hr 42 min 21 sec)
Heartbeat CPU 3 instructions: 530000003 cycles: 349535471 heartbeat IPC: 2.429 cumulative IPC: 1.367 (Simulation time: 04 hr 45 min 20 sec)
Heartbeat CPU 1 instructions: 830000004 cycles: 350617245 heartbeat IPC: 2.286 cumulative IPC: 2.266 (Simulation time: 04 hr 46 min 20 sec)
Heartbeat CPU 2 instructions: 460000002 cycles: 351468803 heartbeat IPC: 1.543 cumulative IPC: 1.139 (Simulation time: 04 hr 47 min 08 sec)
Heartbeat CPU 3 instructions: 540000004 cycles: 353044731 heartbeat IPC: 2.85 cumulative IPC: 1.382 (Simulation time: 04 hr 48 min 36 sec)
Heartbeat CPU 1 instructions: 840000003 cycles: 355003495 heartbeat IPC: 2.28 cumulative IPC: 2.266 (Simulation time: 04 hr 50 min 25 sec)
Heartbeat CPU 3 instructions: 550000001 cycles: 356782197 heartbeat IPC: 2.676 cumulative IPC: 1.397 (Simulation time: 04 hr 52 min 01 sec)
Heartbeat CPU 2 instructions: 470000002 cycles: 357653823 heartbeat IPC: 1.617 cumulative IPC: 1.148 (Simulation time: 04 hr 52 min 48 sec)
Heartbeat CPU 1 instructions: 850000001 cycles: 359343429 heartbeat IPC: 2.304 cumulative IPC: 2.267 (Simulation time: 04 hr 54 min 20 sec)
Heartbeat CPU 3 instructions: 560000000 cycles: 361225447 heartbeat IPC: 2.251 cumulative IPC: 1.408 (Simulation time: 04 hr 55 min 58 sec)
Heartbeat CPU 0 instructions: 130000002 cycles: 362872718 heartbeat IPC: 0.2002 cumulative IPC: 0.2339 (Simulation time: 04 hr 57 min 23 sec)
Heartbeat CPU 1 instructions: 860000003 cycles: 363711430 heartbeat IPC: 2.289 cumulative IPC: 2.267 (Simulation time: 04 hr 58 min 08 sec)
Heartbeat CPU 2 instructions: 480000000 cycles: 364019705 heartbeat IPC: 1.571 cumulative IPC: 1.156 (Simulation time: 04 hr 58 min 24 sec)
Heartbeat CPU 3 instructions: 570000004 cycles: 366309267 heartbeat IPC: 1.967 cumulative IPC: 1.416 (Simulation time: 05 hr 00 min 25 sec)
Heartbeat CPU 1 instructions: 870000003 cycles: 368083421 heartbeat IPC: 2.287 cumulative IPC: 2.267 (Simulation time: 05 hr 01 min 58 sec)
Heartbeat CPU 2 instructions: 490000004 cycles: 370113719 heartbeat IPC: 1.641 cumulative IPC: 1.164 (Simulation time: 05 hr 03 min 45 sec)
Heartbeat CPU 3 instructions: 580000004 cycles: 371420399 heartbeat IPC: 1.957 cumulative IPC: 1.424 (Simulation time: 05 hr 04 min 53 sec)
Heartbeat CPU 1 instructions: 880000000 cycles: 372469739 heartbeat IPC: 2.28 cumulative IPC: 2.267 (Simulation time: 05 hr 05 min 49 sec)
Heartbeat CPU 3 instructions: 590000000 cycles: 376269208 heartbeat IPC: 2.062 cumulative IPC: 1.433 (Simulation time: 05 hr 09 min 08 sec)
Heartbeat CPU 2 instructions: 500000001 cycles: 376693272 heartbeat IPC: 1.52 cumulative IPC: 1.171 (Simulation time: 05 hr 09 min 29 sec)
Heartbeat CPU 1 instructions: 890000004 cycles: 376831475 heartbeat IPC: 2.293 cumulative IPC: 2.268 (Simulation time: 05 hr 09 min 37 sec)
Heartbeat CPU 3 instructions: 600000000 cycles: 380601968 heartbeat IPC: 2.308 cumulative IPC: 1.443 (Simulation time: 05 hr 13 min 01 sec)
Heartbeat CPU 1 instructions: 900000000 cycles: 381200172 heartbeat IPC: 2.289 cumulative IPC: 2.268 (Simulation time: 05 hr 13 min 34 sec)
Heartbeat CPU 2 instructions: 510000001 cycles: 383136245 heartbeat IPC: 1.552 cumulative IPC: 1.177 (Simulation time: 05 hr 15 min 07 sec)
Heartbeat CPU 1 instructions: 910000003 cycles: 385586456 heartbeat IPC: 2.28 cumulative IPC: 2.268 (Simulation time: 05 hr 17 min 02 sec)
Heartbeat CPU 3 instructions: 610000000 cycles: 389804696 heartbeat IPC: 1.087 cumulative IPC: 1.434 (Simulation time: 05 hr 20 min 23 sec)
Heartbeat CPU 1 instructions: 920000001 cycles: 389982579 heartbeat IPC: 2.275 cumulative IPC: 2.268 (Simulation time: 05 hr 20 min 31 sec)
Heartbeat CPU 2 instructions: 520000004 cycles: 390824412 heartbeat IPC: 1.301 cumulative IPC: 1.18 (Simulation time: 05 hr 21 min 08 sec)
Heartbeat CPU 1 instructions: 930000001 cycles: 394414299 heartbeat IPC: 2.256 cumulative IPC: 2.268 (Simulation time: 05 hr 23 min 28 sec)
Heartbeat CPU 1 instructions: 940000000 cycles: 398909299 heartbeat IPC: 2.225 cumulative IPC: 2.268 (Simulation time: 05 hr 26 min 19 sec)
Heartbeat CPU 1 instructions: 950000000 cycles: 403429447 heartbeat IPC: 2.212 cumulative IPC: 2.267 (Simulation time: 05 hr 29 min 13 sec)
Heartbeat CPU 0 instructions: 140000001 cycles: 407176417 heartbeat IPC: 0.2257 cumulative IPC: 0.233 (Simulation time: 05 hr 31 min 38 sec)
Heartbeat CPU 1 instructions: 960000003 cycles: 407968929 heartbeat IPC: 2.203 cumulative IPC: 2.266 (Simulation time: 05 hr 32 min 08 sec)
Heartbeat CPU 1 instructions: 970000001 cycles: 412418366 heartbeat IPC: 2.247 cumulative IPC: 2.266 (Simulation time: 05 hr 34 min 59 sec)
Heartbeat CPU 2 instructions: 530000003 cycles: 413280155 heartbeat IPC: 0.4453 cumulative IPC: 1.138 (Simulation time: 05 hr 35 min 36 sec)
Heartbeat CPU 3 instructions: 620000001 cycles: 415377169 heartbeat IPC: 0.391 cumulative IPC: 1.367 (Simulation time: 05 hr 37 min 16 sec)
Heartbeat CPU 1 instructions: 980000000 cycles: 416876571 heartbeat IPC: 2.243 cumulative IPC: 2.266 (Simulation time: 05 hr 38 min 31 sec)
Heartbeat CPU 3 instructions: 630000002 cycles: 419522197 heartbeat IPC: 2.413 cumulative IPC: 1.378 (Simulation time: 05 hr 40 min 51 sec)
Heartbeat CPU 2 instructions: 540000002 cycles: 420247749 heartbeat IPC: 1.435 cumulative IPC: 1.143 (Simulation time: 05 hr 41 min 29 sec)
Heartbeat CPU 1 instructions: 990000004 cycles: 421283426 heartbeat IPC: 2.269 cumulative IPC: 2.266 (Simulation time: 05 hr 42 min 25 sec)
Heartbeat CPU 3 instructions: 640000004 cycles: 423035649 heartbeat IPC: 2.846 cumulative IPC: 1.39 (Simulation time: 05 hr 44 min 00 sec)
Heartbeat CPU 1 instructions: 1000000004 cycles: 425713832 heartbeat IPC: 2.257 cumulative IPC: 2.266 (Simulation time: 05 hr 46 min 22 sec)
Heartbeat CPU 2 instructions: 550000001 cycles: 426429860 heartbeat IPC: 1.618 cumulative IPC: 1.15 (Simulation time: 05 hr 46 min 58 sec)
Heartbeat CPU 3 instructions: 650000000 cycles: 427133500 heartbeat IPC: 2.44 cumulative IPC: 1.401 (Simulation time: 05 hr 47 min 34 sec)
Heartbeat CPU 1 instructions: 1010000000 cycles: 430146939 heartbeat IPC: 2.256 cumulative IPC: 2.266 (Simulation time: 05 hr 50 min 05 sec)
Heartbeat CPU 3 instructions: 660000001 cycles: 432243058 heartbeat IPC: 1.957 cumulative IPC: 1.408 (Simulation time: 05 hr 51 min 52 sec)
Heartbeat CPU 2 instructions: 560000002 cycles: 432771926 heartbeat IPC: 1.577 cumulative IPC: 1.157 (Simulation time: 05 hr 52 min 19 sec)
Heartbeat CPU 1 instructions: 1020000002 cycles: 434516541 heartbeat IPC: 2.289 cumulative IPC: 2.266 (Simulation time: 05 hr 53 min 48 sec)
Heartbeat CPU 3 instructions: 670000000 cycles: 437388640 heartbeat IPC: 1.943 cumulative IPC: 1.414 (Simulation time: 05 hr 56 min 14 sec)
Heartbeat CPU 2 instructions: 570000001 cycles: 438811529 heartbeat IPC: 1.656 cumulative IPC: 1.164 (Simulation time: 05 hr 57 min 28 sec)
Heartbeat CPU 1 instructions: 1030000004 cycles: 438864609 heartbeat IPC: 2.3 cumulative IPC: 2.266 (Simulation time: 05 hr 57 min 31 sec)
Heartbeat CPU 3 instructions: 680000000 cycles: 442171102 heartbeat IPC: 2.091 cumulative IPC: 1.422 (Simulation time: 06 hr 00 min 19 sec)
Heartbeat CPU 1 instructions: 1040000001 cycles: 443184522 heartbeat IPC: 2.315 cumulative IPC: 2.267 (Simulation time: 06 hr 01 min 10 sec)
Heartbeat CPU 0 instructions: 150000003 cycles: 443281704 heartbeat IPC: 0.277 cumulative IPC: 0.2367 (Simulation time: 06 hr 01 min 15 sec)
Heartbeat CPU 2 instructions: 580000004 cycles: 445246513 heartbeat IPC: 1.554 cumulative IPC: 1.17 (Simulation time: 06 hr 02 min 56 sec)
Heartbeat CPU 3 instructions: 690000001 cycles: 446708851 heartbeat IPC: 2.204 cumulative IPC: 1.43 (Simulation time: 06 hr 04 min 14 sec)
Heartbeat CPU 1 instructions: 1050000004 cycles: 447467470 heartbeat IPC: 2.335 cumulative IPC: 2.267 (Simulation time: 06 hr 04 min 55 sec)
Heartbeat CPU 2 instructions: 590000000 cycles: 451768921 heartbeat IPC: 1.533 cumulative IPC: 1.175 (Simulation time: 06 hr 08 min 17 sec)
Heartbeat CPU 1 instructions: 1060000001 cycles: 451811847 heartbeat IPC: 2.302 cumulative IPC: 2.268 (Simulation time: 06 hr 08 min 20 sec)
Heartbeat CPU 3 instructions: 700000000 cycles: 454901399 heartbeat IPC: 1.221 cumulative IPC: 1.427 (Simulation time: 06 hr 10 min 43 sec)
Heartbeat CPU 1 instructions: 1070000000 cycles: 456119810 heartbeat IPC: 2.321 cumulative IPC: 2.268 (Simulation time: 06 hr 11 min 39 sec)
Heartbeat CPU 1 instructions: 1080000000 cycles: 460460749 heartbeat IPC: 2.304 cumulative IPC: 2.269 (Simulation time: 06 hr 14 min 33 sec)
Heartbeat CPU 2 instructions: 600000001 cycles: 463164073 heartbeat IPC: 0.8776 cumulative IPC: 1.168 (Simulation time: 06 hr 16 min 15 sec)
Heartbeat CPU 1 instructions: 1090000000 cycles: 464770912 heartbeat IPC: 2.32 cumulative IPC: 2.269 (Simulation time: 06 hr 17 min 15 sec)
Heartbeat CPU 1 instructions: 1100000000 cycles: 469065928 heartbeat IPC: 2.328 cumulative IPC: 2.27 (Simulation time: 06 hr 19 min 55 sec)
Heartbeat CPU 1 instructions: 1110000001 cycles: 473457165 heartbeat IPC: 2.277 cumulative IPC: 2.27 (Simulation time: 06 hr 22 min 40 sec)
Heartbeat CPU 1 instructions: 1120000004 cycles: 477772781 heartbeat IPC: 2.317 cumulative IPC: 2.27 (Simulation time: 06 hr 25 min 23 sec)
Heartbeat CPU 3 instructions: 710000000 cycles: 481164168 heartbeat IPC: 0.3808 cumulative IPC: 1.367 (Simulation time: 06 hr 27 min 47 sec)
Heartbeat CPU 2 instructions: 610000004 cycles: 482011822 heartbeat IPC: 0.5306 cumulative IPC: 1.142 (Simulation time: 06 hr 28 min 31 sec)
Heartbeat CPU 1 instructions: 1130000000 cycles: 482159594 heartbeat IPC: 2.28 cumulative IPC: 2.27 (Simulation time: 06 hr 28 min 39 sec)
Heartbeat CPU 3 instructions: 720000001 cycles: 485434642 heartbeat IPC: 2.342 cumulative IPC: 1.376 (Simulation time: 06 hr 31 min 28 sec)
Heartbeat CPU 1 instructions: 1140000002 cycles: 486473517 heartbeat IPC: 2.318 cumulative IPC: 2.271 (Simulation time: 06 hr 32 min 24 sec)
Heartbeat CPU 2 instructions: 620000000 cycles: 488329842 heartbeat IPC: 1.583 cumulative IPC: 1.148 (Simulation time: 06 hr 34 min 08 sec)
Heartbeat CPU 3 instructions: 730000003 cycles: 488977221 heartbeat IPC: 2.823 cumulative IPC: 1.387 (Simulation time: 06 hr 34 min 42 sec)
Heartbeat CPU 1 instructions: 1150000000 cycles: 490741012 heartbeat IPC: 2.343 cumulative IPC: 2.271 (Simulation time: 06 hr 36 min 15 sec)
Heartbeat CPU 3 instructions: 740000002 cycles: 493875467 heartbeat IPC: 2.042 cumulative IPC: 1.394 (Simulation time: 06 hr 38 min 40 sec)
Heartbeat CPU 0 instructions: 160000002 cycles: 495755973 heartbeat IPC: 0.1906 cumulative IPC: 0.2316 (Simulation time: 06 hr 40 min 11 sec)
Heartbeat CPU 1 instructions: 1160000001 cycles: 496321560 heartbeat IPC: 1.792 cumulative IPC: 2.266 (Simulation time: 06 hr 40 min 40 sec)
Heartbeat CPU 2 instructions: 630000003 cycles: 497820976 heartbeat IPC: 1.054 cumulative IPC: 1.146 (Simulation time: 06 hr 41 min 55 sec)
Heartbeat CPU 3 instructions: 750000003 cycles: 499104814 heartbeat IPC: 1.912 cumulative IPC: 1.399 (Simulation time: 06 hr 43 min 00 sec)
Heartbeat CPU 1 instructions: 1170000004 cycles: 500649490 heartbeat IPC: 2.311 cumulative IPC: 2.266 (Simulation time: 06 hr 44 min 21 sec)
Heartbeat CPU 2 instructions: 640000000 cycles: 503633318 heartbeat IPC: 1.72 cumulative IPC: 1.153 (Simulation time: 06 hr 46 min 56 sec)
Heartbeat CPU 3 instructions: 760000000 cycles: 504091253 heartbeat IPC: 2.005 cumulative IPC: 1.405 (Simulation time: 06 hr 47 min 19 sec)
Heartbeat CPU 1 instructions: 1180000001 cycles: 504960522 heartbeat IPC: 2.32 cumulative IPC: 2.267 (Simulation time: 06 hr 48 min 03 sec)
Heartbeat CPU 3 instructions: 770000003 cycles: 509018717 heartbeat IPC: 2.029 cumulative IPC: 1.412 (Simulation time: 06 hr 51 min 28 sec)
Heartbeat CPU 1 instructions: 1190000001 cycles: 509294118 heartbeat IPC: 2.308 cumulative IPC: 2.267 (Simulation time: 06 hr 51 min 43 sec)
Heartbeat CPU 2 instructions: 650000003 cycles: 510157721 heartbeat IPC: 1.533 cumulative IPC: 1.158 (Simulation time: 06 hr 52 min 27 sec)
Heartbeat CPU 1 instructions: 1200000001 cycles: 513576296 heartbeat IPC: 2.335 cumulative IPC: 2.268 (Simulation time: 06 hr 55 min 25 sec)
Heartbeat CPU 3 instructions: 780000001 cycles: 513594107 heartbeat IPC: 2.186 cumulative IPC: 1.419 (Simulation time: 06 hr 55 min 26 sec)
Heartbeat CPU 2 instructions: 660000000 cycles: 516395460 heartbeat IPC: 1.603 cumulative IPC: 1.163 (Simulation time: 06 hr 57 min 49 sec)
Heartbeat CPU 1 instructions: 1210000002 cycles: 517871425 heartbeat IPC: 2.328 cumulative IPC: 2.268 (Simulation time: 06 hr 58 min 57 sec)
Heartbeat CPU 3 instructions: 790000003 cycles: 521017573 heartbeat IPC: 1.347 cumulative IPC: 1.418 (Simulation time: 07 hr 01 min 22 sec)
Heartbeat CPU 1 instructions: 1220000003 cycles: 522195235 heartbeat IPC: 2.313 cumulative IPC: 2.268 (Simulation time: 07 hr 02 min 17 sec)
Heartbeat CPU 2 instructions: 670000002 cycles: 523853333 heartbeat IPC: 1.341 cumulative IPC: 1.166 (Simulation time: 07 hr 03 min 33 sec)
Heartbeat CPU 1 instructions: 1230000002 cycles: 526475686 heartbeat IPC: 2.336 cumulative IPC: 2.269 (Simulation time: 07 hr 05 min 18 sec)
Heartbeat CPU 1 instructions: 1240000002 cycles: 530795748 heartbeat IPC: 2.315 cumulative IPC: 2.269 (Simulation time: 07 hr 08 min 03 sec)
Heartbeat CPU 0 instructions: 170000001 cycles: 532175471 heartbeat IPC: 0.2746 cumulative IPC: 0.2347 (Simulation time: 07 hr 08 min 54 sec)
Heartbeat CPU 1 instructions: 1250000003 cycles: 535173545 heartbeat IPC: 2.284 cumulative IPC: 2.27 (Simulation time: 07 hr 10 min 46 sec)
Heartbeat CPU 1 instructions: 1260000000 cycles: 539464439 heartbeat IPC: 2.331 cumulative IPC: 2.27 (Simulation time: 07 hr 13 min 27 sec)
Heartbeat CPU 1 instructions: 1270000000 cycles: 543755655 heartbeat IPC: 2.33 cumulative IPC: 2.271 (Simulation time: 07 hr 16 min 10 sec)
Heartbeat CPU 2 instructions: 680000003 cycles: 545798426 heartbeat IPC: 0.4557 cumulative IPC: 1.136 (Simulation time: 07 hr 17 min 26 sec)
Heartbeat CPU 3 instructions: 800000000 cycles: 547904867 heartbeat IPC: 0.3719 cumulative IPC: 1.365 (Simulation time: 07 hr 19 min 00 sec)
Heartbeat CPU 1 instructions: 1280000001 cycles: 548025479 heartbeat IPC: 2.342 cumulative IPC: 2.271 (Simulation time: 07 hr 19 min 06 sec)
Heartbeat CPU 3 instructions: 810000001 cycles: 552090689 heartbeat IPC: 2.389 cumulative IPC: 1.373 (Simulation time: 07 hr 22 min 35 sec)
Heartbeat CPU 1 instructions: 1290000003 cycles: 552377696 heartbeat IPC: 2.298 cumulative IPC: 2.271 (Simulation time: 07 hr 22 min 51 sec)
Heartbeat CPU 2 instructions: 690000002 cycles: 553065500 heartbeat IPC: 1.376 cumulative IPC: 1.14 (Simulation time: 07 hr 23 min 28 sec)
Heartbeat CPU 3 instructions: 820000003 cycles: 555542122 heartbeat IPC: 2.897 cumulative IPC: 1.382 (Simulation time: 07 hr 25 min 42 sec)
Heartbeat CPU 1 instructions: 1300000001 cycles: 556710397 heartbeat IPC: 2.308 cumulative IPC: 2.272 (Simulation time: 07 hr 26 min 44 sec)
Heartbeat CPU 2 instructions: 700000001 cycles: 559212659 heartbeat IPC: 1.627 cumulative IPC: 1.145 (Simulation time: 07 hr 28 min 52 sec)
Heartbeat CPU 3 instructions: 830000001 cycles: 560108402 heartbeat IPC: 2.19 cumulative IPC: 1.389 (Simulation time: 07 hr 29 min 38 sec)
Heartbeat CPU 1 instructions: 1310000003 cycles: 561051511 heartbeat IPC: 2.304 cumulative IPC: 2.272 (Simulation time: 07 hr 30 min 29 sec)
Heartbeat CPU 3 instructions: 840000001 cycles: 564732115 heartbeat IPC: 2.163 cumulative IPC: 1.396 (Simulation time: 07 hr 33 min 36 sec)
Heartbeat CPU 2 instructions: 710000003 cycles: 565399164 heartbeat IPC: 1.616 cumulative IPC: 1.151 (Simulation time: 07 hr 34 min 11 sec)
Heartbeat CPU 1 instructions: 1320000000 cycles: 565406751 heartbeat IPC: 2.296 cumulative IPC: 2.272 (Simulation time: 07 hr 34 min 11 sec)
Heartbeat CPU 3 instructions: 850000002 cycles: 569712571 heartbeat IPC: 2.008 cumulative IPC: 1.401 (Simulation time: 07 hr 37 min 54 sec)
Heartbeat CPU 1 instructions: 1330000004 cycles: 569770254 heartbeat IPC: 2.292 cumulative IPC: 2.272 (Simulation time: 07 hr 37 min 57 sec)
Heartbeat CPU 2 instructions: 720000000 cycles: 571614021 heartbeat IPC: 1.609 cumulative IPC: 1.156 (Simulation time: 07 hr 39 min 30 sec)
Heartbeat CPU 0 instructions: 180000001 cycles: 573930051 heartbeat IPC: 0.2395 cumulative IPC: 0.2351 (Simulation time: 07 hr 41 min 32 sec)
Heartbeat CPU 1 instructions: 1340000000 cycles: 574163141 heartbeat IPC: 2.276 cumulative IPC: 2.272 (Simulation time: 07 hr 41 min 43 sec)
Heartbeat CPU 3 instructions: 860000001 cycles: 574502891 heartbeat IPC: 2.088 cumulative IPC: 1.407 (Simulation time: 07 hr 42 min 00 sec)
Heartbeat CPU 2 instructions: 730000000 cycles: 578047481 heartbeat IPC: 1.554 cumulative IPC: 1.16 (Simulation time: 07 hr 44 min 59 sec)
Heartbeat CPU 1 instructions: 1350000001 cycles: 578548567 heartbeat IPC: 2.28 cumulative IPC: 2.272 (Simulation time: 07 hr 45 min 26 sec)
Heartbeat CPU 3 instructions: 870000000 cycles: 579349656 heartbeat IPC: 2.063 cumulative IPC: 1.413 (Simulation time: 07 hr 46 min 09 sec)
Heartbeat CPU 1 instructions: 1360000003 cycles: 582930939 heartbeat IPC: 2.282 cumulative IPC: 2.272 (Simulation time: 07 hr 49 min 08 sec)
Heartbeat CPU 2 instructions: 740000002 cycles: 584549257 heartbeat IPC: 1.538 cumulative IPC: 1.165 (Simulation time: 07 hr 50 min 22 sec)
Heartbeat CPU 3 instructions: 880000000 cycles: 586623993 heartbeat IPC: 1.375 cumulative IPC: 1.413 (Simulation time: 07 hr 51 min 57 sec)
Heartbeat CPU 1 instructions: 1370000003 cycles: 587345703 heartbeat IPC: 2.265 cumulative IPC: 2.272 (Simulation time: 07 hr 52 min 31 sec)
Heartbeat CPU 1 instructions: 1380000002 cycles: 591757143 heartbeat IPC: 2.267 cumulative IPC: 2.272 (Simulation time: 07 hr 55 min 42 sec)
Heartbeat CPU 2 instructions: 750000004 cycles: 595769972 heartbeat IPC: 0.8912 cumulative IPC: 1.159 (Simulation time: 07 hr 58 min 12 sec)
Heartbeat CPU 1 instructions: 1390000000 cycles: 596278496 heartbeat IPC: 2.212 cumulative IPC: 2.272 (Simulation time: 07 hr 58 min 31 sec)
Heartbeat CPU 1 instructions: 1400000003 cycles: 600756162 heartbeat IPC: 2.233 cumulative IPC: 2.272 (Simulation time: 08 hr 01 min 18 sec)
Heartbeat CPU 1 instructions: 1410000002 cycles: 605179202 heartbeat IPC: 2.261 cumulative IPC: 2.271 (Simulation time: 08 hr 04 min 04 sec)
Heartbeat CPU 1 instructions: 1420000001 cycles: 609692767 heartbeat IPC: 2.216 cumulative IPC: 2.271 (Simulation time: 08 hr 06 min 55 sec)
Heartbeat CPU 3 instructions: 890000004 cycles: 614026249 heartbeat IPC: 0.3649 cumulative IPC: 1.364 (Simulation time: 08 hr 09 min 50 sec)
Heartbeat CPU 1 instructions: 1430000000 cycles: 614124838 heartbeat IPC: 2.256 cumulative IPC: 2.271 (Simulation time: 08 hr 09 min 55 sec)
Heartbeat CPU 2 instructions: 760000004 cycles: 615081928 heartbeat IPC: 0.5178 cumulative IPC: 1.139 (Simulation time: 08 hr 10 min 46 sec)
Heartbeat CPU 3 instructions: 900000000 cycles: 618123549 heartbeat IPC: 2.441 cumulative IPC: 1.372 (Simulation time: 08 hr 13 min 24 sec)
Heartbeat CPU 1 instructions: 1440000000 cycles: 618516296 heartbeat IPC: 2.277 cumulative IPC: 2.271 (Simulation time: 08 hr 13 min 45 sec)
Heartbeat CPU 2 instructions: 770000001 cycles: 621467894 heartbeat IPC: 1.566 cumulative IPC: 1.143 (Simulation time: 08 hr 16 min 25 sec)
Heartbeat CPU 3 instructions: 910000000 cycles: 621658356 heartbeat IPC: 2.829 cumulative IPC: 1.38 (Simulation time: 08 hr 16 min 35 sec)
Heartbeat CPU 1 instructions: 1450000001 cycles: 622920890 heartbeat IPC: 2.27 cumulative IPC: 2.271 (Simulation time: 08 hr 17 min 44 sec)
Heartbeat CPU 0 instructions: 190000001 cycles: 623951601 heartbeat IPC: 0.1999 cumulative IPC: 0.2321 (Simulation time: 08 hr 18 min 42 sec)
Heartbeat CPU 3 instructions: 920000001 cycles: 625136873 heartbeat IPC: 2.875 cumulative IPC: 1.389 (Simulation time: 08 hr 19 min 46 sec)
Heartbeat CPU 1 instructions: 1460000004 cycles: 627310638 heartbeat IPC: 2.278 cumulative IPC: 2.271 (Simulation time: 08 hr 21 min 40 sec)
Heartbeat CPU 2 instructions: 780000002 cycles: 627623150 heartbeat IPC: 1.625 cumulative IPC: 1.148 (Simulation time: 08 hr 21 min 56 sec)
Heartbeat CPU 3 instructions: 930000001 cycles: 629977872 heartbeat IPC: 2.066 cumulative IPC: 1.394 (Simulation time: 08 hr 23 min 56 sec)
Heartbeat CPU 1 instructions: 1470000000 cycles: 631714054 heartbeat IPC: 2.271 cumulative IPC: 2.271 (Simulation time: 08 hr 25 min 25 sec)
Heartbeat CPU 2 instructions: 790000000 cycles: 633748664 heartbeat IPC: 1.633 cumulative IPC: 1.153 (Simulation time: 08 hr 27 min 11 sec)
Heartbeat CPU 3 instructions: 940000004 cycles: 635035843 heartbeat IPC: 1.977 cumulative IPC: 1.399 (Simulation time: 08 hr 28 min 17 sec)
Heartbeat CPU 1 instructions: 1480000001 cycles: 636122738 heartbeat IPC: 2.268 cumulative IPC: 2.271 (Simulation time: 08 hr 29 min 13 sec)
Heartbeat CPU 2 instructions: 800000002 cycles: 640019034 heartbeat IPC: 1.595 cumulative IPC: 1.157 (Simulation time: 08 hr 32 min 30 sec)
Heartbeat CPU 3 instructions: 950000002 cycles: 640198919 heartbeat IPC: 1.937 cumulative IPC: 1.403 (Simulation time: 08 hr 32 min 39 sec)
Heartbeat CPU 1 instructions: 1490000000 cycles: 640500343 heartbeat IPC: 2.284 cumulative IPC: 2.271 (Simulation time: 08 hr 32 min 55 sec)
Heartbeat CPU 1 instructions: 1500000003 cycles: 644899975 heartbeat IPC: 2.273 cumulative IPC: 2.271 (Simulation time: 08 hr 36 min 42 sec)
Heartbeat CPU 3 instructions: 960000000 cycles: 645117867 heartbeat IPC: 2.033 cumulative IPC: 1.408 (Simulation time: 08 hr 36 min 52 sec)
Heartbeat CPU 2 instructions: 810000003 cycles: 646357521 heartbeat IPC: 1.578 cumulative IPC: 1.162 (Simulation time: 08 hr 37 min 58 sec)
Heartbeat CPU 1 instructions: 1510000002 cycles: 649256365 heartbeat IPC: 2.295 cumulative IPC: 2.271 (Simulation time: 08 hr 40 min 31 sec)
Heartbeat CPU 3 instructions: 970000003 cycles: 649347087 heartbeat IPC: 2.365 cumulative IPC: 1.415 (Simulation time: 08 hr 40 min 36 sec)
Heartbeat CPU 2 instructions: 820000001 cycles: 652873213 heartbeat IPC: 1.535 cumulative IPC: 1.165 (Simulation time: 08 hr 43 min 30 sec)
Heartbeat CPU 1 instructions: 1520000003 cycles: 653680734 heartbeat IPC: 2.26 cumulative IPC: 2.271 (Simulation time: 08 hr 44 min 07 sec)
Heartbeat CPU 0 instructions: 200000001 cycles: 654402251 heartbeat IPC: 0.3284 cumulative IPC: 0.2368 (Simulation time: 08 hr 44 min 40 sec)
Simulation finished CPU 0 instructions: 150000001 cycles: 633530091 cumulative IPC: 0.2368 (Simulation time: 08 hr 44 min 40 sec)
Simulation complete CPU 0 instructions: 150000001 cycles: 633530091 cumulative IPC: 0.2368 (Simulation time: 08 hr 44 min 40 sec)
Simulation complete CPU 1 instructions: 1438910476 cycles: 633530091 cumulative IPC: 2.271 (Simulation time: 08 hr 44 min 40 sec)
Simulation complete CPU 2 instructions: 738811102 cycles: 633530091 cumulative IPC: 1.166 (Simulation time: 08 hr 44 min 40 sec)
Simulation complete CPU 3 instructions: 895687649 cycles: 633530091 cumulative IPC: 1.414 (Simulation time: 08 hr 44 min 40 sec)

ChampSim completed all CPUs

=== Simulation ===
CPU 0 runs /home/grads/r/rdas40/dpc3_traces/620.omnetpp_s-874B.champsimtrace.xzCPU 1 runs /home/grads/r/rdas40/dpc3_traces/603.bwaves_s-3699B.champsimtrace.xzCPU 2 runs /home/grads/r/rdas40/dpc3_traces/649.fotonik3d_s-1176B.champsimtrace.xzCPU 3 runs /home/grads/r/rdas40/dpc3_traces/627.cam4_s-573B.champsimtrace.xz
Total Simulation Statistics (not including warmup)

CPU 0 cumulative IPC: 0.2368 instructions: 150000001 cycles: 633530091
CPU 0 Branch Prediction Accuracy: 94.9% MPKI: 10.6 Average ROB Occupancy at Mispredict: 84.33
Branch type MPKI
BRANCH_DIRECT_JUMP: 0.923
BRANCH_INDIRECT: 0.128
BRANCH_CONDITIONAL: 8.42
BRANCH_DIRECT_CALL: 0.00016
BRANCH_INDIRECT_CALL: 0.734
BRANCH_RETURN: 0.399


CPU 1 cumulative IPC: 2.271 instructions: 1438910476 cycles: 633530091
CPU 1 Branch Prediction Accuracy: 90.05% MPKI: 14.48 Average ROB Occupancy at Mispredict: 30.26
Branch type MPKI
BRANCH_DIRECT_JUMP: 0.0581
BRANCH_INDIRECT: 0
BRANCH_CONDITIONAL: 14.4
BRANCH_DIRECT_CALL: 0
BRANCH_INDIRECT_CALL: 0
BRANCH_RETURN: 0.0638


CPU 2 cumulative IPC: 1.166 instructions: 738811102 cycles: 633530091
CPU 2 Branch Prediction Accuracy: 99.74% MPKI: 0.04749 Average ROB Occupancy at Mispredict: 90.11
Branch type MPKI
BRANCH_DIRECT_JUMP: 0.00012
BRANCH_INDIRECT: 0
BRANCH_CONDITIONAL: 0.0365
BRANCH_DIRECT_CALL: 2.17e-05
BRANCH_INDIRECT_CALL: 0
BRANCH_RETURN: 0.0109


CPU 3 cumulative IPC: 1.414 instructions: 895687649 cycles: 633530091
CPU 3 Branch Prediction Accuracy: 94.74% MPKI: 7.091 Average ROB Occupancy at Mispredict: 66.29
Branch type MPKI
BRANCH_DIRECT_JUMP: 0.00535
BRANCH_INDIRECT: 0.00151
BRANCH_CONDITIONAL: 6.44
BRANCH_DIRECT_CALL: 0.0182
BRANCH_INDIRECT_CALL: 0
BRANCH_RETURN: 0.627

LLC TOTAL        ACCESS:    3518495 HIT:    1382532 MISS:    2135963
LLC LOAD         ACCESS:    1683413 HIT:     332350 MISS:    1351063
LLC RFO          ACCESS:     257843 HIT:      97030 MISS:     160813
LLC PREFETCH     ACCESS:      11913 HIT:       1256 MISS:      10657
LLC WRITE        ACCESS:     969235 HIT:     897983 MISS:      71252
LLC TRANSLATION  ACCESS:     596091 HIT:      53913 MISS:     542178
LLC PREFETCH REQUESTED:          0 ISSUED:          0 USEFUL:          0 USELESS:          0
LLC AVERAGE MISS LATENCY: 951.7 cycles
LLC TOTAL        ACCESS:     445288 HIT:      90083 MISS:     355205
LLC LOAD         ACCESS:       3195 HIT:        229 MISS:       2966
LLC RFO          ACCESS:     193516 HIT:       5986 MISS:     187530
LLC PREFETCH     ACCESS:      51476 HIT:       5862 MISS:      45614
LLC WRITE        ACCESS:     197075 HIT:      78000 MISS:     119075
LLC TRANSLATION  ACCESS:         26 HIT:          6 MISS:         20
LLC PREFETCH REQUESTED:          0 ISSUED:          0 USEFUL:          0 USELESS:          0
LLC AVERAGE MISS LATENCY: 951.7 cycles
LLC TOTAL        ACCESS:   13949265 HIT:    7368461 MISS:    6580804
LLC LOAD         ACCESS:    1696641 HIT:     181411 MISS:    1515230
LLC RFO          ACCESS:       3015 HIT:       3007 MISS:          8
LLC PREFETCH     ACCESS:    5795932 HIT:     732358 MISS:    5063574
LLC WRITE        ACCESS:    6450912 HIT:    6449454 MISS:       1458
LLC TRANSLATION  ACCESS:       2765 HIT:       2231 MISS:        534
LLC PREFETCH REQUESTED:          0 ISSUED:          0 USEFUL:          0 USELESS:          0
LLC AVERAGE MISS LATENCY: 951.7 cycles
LLC TOTAL        ACCESS:    9877105 HIT:    4754661 MISS:    5122444
LLC LOAD         ACCESS:     592789 HIT:     125403 MISS:     467386
LLC RFO          ACCESS:    4419579 HIT:     108446 MISS:    4311133
LLC PREFETCH     ACCESS:     343210 HIT:      72537 MISS:     270673
LLC WRITE        ACCESS:    4506301 HIT:    4446720 MISS:      59581
LLC TRANSLATION  ACCESS:      15226 HIT:       1555 MISS:      13671
LLC PREFETCH REQUESTED:          0 ISSUED:          0 USEFUL:          0 USELESS:          0
LLC AVERAGE MISS LATENCY: 951.7 cycles
cpu0_DTLB TOTAL        ACCESS:   38216174 HIT:   34919377 MISS:    3296797
cpu0_DTLB LOAD         ACCESS:   38216174 HIT:   34919377 MISS:    3296797
cpu0_DTLB RFO          ACCESS:          0 HIT:          0 MISS:          0
cpu0_DTLB PREFETCH     ACCESS:          0 HIT:          0 MISS:          0
cpu0_DTLB WRITE        ACCESS:          0 HIT:          0 MISS:          0
cpu0_DTLB TRANSLATION  ACCESS:          0 HIT:          0 MISS:          0
cpu0_DTLB PREFETCH REQUESTED:          0 ISSUED:          0 USEFUL:          0 USELESS:          0
cpu0_DTLB AVERAGE MISS LATENCY: 119.7 cycles
cpu0_DTLB TOTAL        ACCESS:          0 HIT:          0 MISS:          0
cpu0_DTLB LOAD         ACCESS:          0 HIT:          0 MISS:          0
cpu0_DTLB RFO          ACCESS:          0 HIT:          0 MISS:          0
cpu0_DTLB PREFETCH     ACCESS:          0 HIT:          0 MISS:          0
cpu0_DTLB WRITE        ACCESS:          0 HIT:          0 MISS:          0
cpu0_DTLB TRANSLATION  ACCESS:          0 HIT:          0 MISS:          0
cpu0_DTLB PREFETCH REQUESTED:          0 ISSUED:          0 USEFUL:          0 USELESS:          0
cpu0_DTLB AVERAGE MISS LATENCY: 119.7 cycles
cpu0_DTLB TOTAL        ACCESS:          0 HIT:          0 MISS:          0
cpu0_DTLB LOAD         ACCESS:          0 HIT:          0 MISS:          0
cpu0_DTLB RFO          ACCESS:          0 HIT:          0 MISS:          0
cpu0_DTLB PREFETCH     ACCESS:          0 HIT:          0 MISS:          0
cpu0_DTLB WRITE        ACCESS:          0 HIT:          0 MISS:          0
cpu0_DTLB TRANSLATION  ACCESS:          0 HIT:          0 MISS:          0
cpu0_DTLB PREFETCH REQUESTED:          0 ISSUED:          0 USEFUL:          0 USELESS:          0
cpu0_DTLB AVERAGE MISS LATENCY: 119.7 cycles
cpu0_DTLB TOTAL        ACCESS:          0 HIT:          0 MISS:          0
cpu0_DTLB LOAD         ACCESS:          0 HIT:          0 MISS:          0
cpu0_DTLB RFO          ACCESS:          0 HIT:          0 MISS:          0
cpu0_DTLB PREFETCH     ACCESS:          0 HIT:          0 MISS:          0
cpu0_DTLB WRITE        ACCESS:          0 HIT:          0 MISS:          0
cpu0_DTLB TRANSLATION  ACCESS:          0 HIT:          0 MISS:          0
cpu0_DTLB PREFETCH REQUESTED:          0 ISSUED:          0 USEFUL:          0 USELESS:          0
cpu0_DTLB AVERAGE MISS LATENCY: 119.7 cycles
cpu0_ITLB TOTAL        ACCESS:   10779019 HIT:   10506529 MISS:     272490
cpu0_ITLB LOAD         ACCESS:   10779019 HIT:   10506529 MISS:     272490
cpu0_ITLB RFO          ACCESS:          0 HIT:          0 MISS:          0
cpu0_ITLB PREFETCH     ACCESS:          0 HIT:          0 MISS:          0
cpu0_ITLB WRITE        ACCESS:          0 HIT:          0 MISS:          0
cpu0_ITLB TRANSLATION  ACCESS:          0 HIT:          0 MISS:          0
cpu0_ITLB PREFETCH REQUESTED:          0 ISSUED:          0 USEFUL:          0 USELESS:          0
cpu0_ITLB AVERAGE MISS LATENCY: 9.909 cycles
cpu0_ITLB TOTAL        ACCESS:          0 HIT:          0 MISS:          0
cpu0_ITLB LOAD         ACCESS:          0 HIT:          0 MISS:          0
cpu0_ITLB RFO          ACCESS:          0 HIT:          0 MISS:          0
cpu0_ITLB PREFETCH     ACCESS:          0 HIT:          0 MISS:          0
cpu0_ITLB WRITE        ACCESS:          0 HIT:          0 MISS:          0
cpu0_ITLB TRANSLATION  ACCESS:          0 HIT:          0 MISS:          0
cpu0_ITLB PREFETCH REQUESTED:          0 ISSUED:          0 USEFUL:          0 USELESS:          0
cpu0_ITLB AVERAGE MISS LATENCY: 9.909 cycles
cpu0_ITLB TOTAL        ACCESS:          0 HIT:          0 MISS:          0
cpu0_ITLB LOAD         ACCESS:          0 HIT:          0 MISS:          0
cpu0_ITLB RFO          ACCESS:          0 HIT:          0 MISS:          0
cpu0_ITLB PREFETCH     ACCESS:          0 HIT:          0 MISS:          0
cpu0_ITLB WRITE        ACCESS:          0 HIT:          0 MISS:          0
cpu0_ITLB TRANSLATION  ACCESS:          0 HIT:          0 MISS:          0
cpu0_ITLB PREFETCH REQUESTED:          0 ISSUED:          0 USEFUL:          0 USELESS:          0
cpu0_ITLB AVERAGE MISS LATENCY: 9.909 cycles
cpu0_ITLB TOTAL        ACCESS:          0 HIT:          0 MISS:          0
cpu0_ITLB LOAD         ACCESS:          0 HIT:          0 MISS:          0
cpu0_ITLB RFO          ACCESS:          0 HIT:          0 MISS:          0
cpu0_ITLB PREFETCH     ACCESS:          0 HIT:          0 MISS:          0
cpu0_ITLB WRITE        ACCESS:          0 HIT:          0 MISS:          0
cpu0_ITLB TRANSLATION  ACCESS:          0 HIT:          0 MISS:          0
cpu0_ITLB PREFETCH REQUESTED:          0 ISSUED:          0 USEFUL:          0 USELESS:          0
cpu0_ITLB AVERAGE MISS LATENCY: 9.909 cycles
cpu0_L1D TOTAL        ACCESS:   49768082 HIT:   44810626 MISS:    4957456
cpu0_L1D LOAD         ACCESS:   22924565 HIT:   19854187 MISS:    3070378
cpu0_L1D RFO          ACCESS:          0 HIT:          0 MISS:          0
cpu0_L1D PREFETCH     ACCESS:      22222 HIT:       2649 MISS:      19573
cpu0_L1D WRITE        ACCESS:   25930074 HIT:   24808582 MISS:    1121492
cpu0_L1D TRANSLATION  ACCESS:     891221 HIT:     145208 MISS:     746013
cpu0_L1D PREFETCH REQUESTED:      22222 ISSUED:      22222 USEFUL:       1231 USELESS:        893
cpu0_L1D AVERAGE MISS LATENCY: 295.3 cycles
cpu0_L1D TOTAL        ACCESS:          0 HIT:          0 MISS:          0
cpu0_L1D LOAD         ACCESS:          0 HIT:          0 MISS:          0
cpu0_L1D RFO          ACCESS:          0 HIT:          0 MISS:          0
cpu0_L1D PREFETCH     ACCESS:          0 HIT:          0 MISS:          0
cpu0_L1D WRITE        ACCESS:          0 HIT:          0 MISS:          0
cpu0_L1D TRANSLATION  ACCESS:          0 HIT:          0 MISS:          0
cpu0_L1D PREFETCH REQUESTED:      22222 ISSUED:      22222 USEFUL:       1231 USELESS:        893
cpu0_L1D AVERAGE MISS LATENCY: 295.3 cycles
cpu0_L1D TOTAL        ACCESS:          0 HIT:          0 MISS:          0
cpu0_L1D LOAD         ACCESS:          0 HIT:          0 MISS:          0
cpu0_L1D RFO          ACCESS:          0 HIT:          0 MISS:          0
cpu0_L1D PREFETCH     ACCESS:          0 HIT:          0 MISS:          0
cpu0_L1D WRITE        ACCESS:          0 HIT:          0 MISS:          0
cpu0_L1D TRANSLATION  ACCESS:          0 HIT:          0 MISS:          0
cpu0_L1D PREFETCH REQUESTED:      22222 ISSUED:      22222 USEFUL:       1231 USELESS:        893
cpu0_L1D AVERAGE MISS LATENCY: 295.3 cycles
cpu0_L1D TOTAL        ACCESS:          0 HIT:          0 MISS:          0
cpu0_L1D LOAD         ACCESS:          0 HIT:          0 MISS:          0
cpu0_L1D RFO          ACCESS:          0 HIT:          0 MISS:          0
cpu0_L1D PREFETCH     ACCESS:          0 HIT:          0 MISS:          0
cpu0_L1D WRITE        ACCESS:          0 HIT:          0 MISS:          0
cpu0_L1D TRANSLATION  ACCESS:          0 HIT:          0 MISS:          0
cpu0_L1D PREFETCH REQUESTED:      22222 ISSUED:      22222 USEFUL:       1231 USELESS:        893
cpu0_L1D AVERAGE MISS LATENCY: 295.3 cycles
cpu0_L1I TOTAL        ACCESS:   12864719 HIT:   12790782 MISS:      73937
cpu0_L1I LOAD         ACCESS:   12864719 HIT:   12790782 MISS:      73937
cpu0_L1I RFO          ACCESS:          0 HIT:          0 MISS:          0
cpu0_L1I PREFETCH     ACCESS:          0 HIT:          0 MISS:          0
cpu0_L1I WRITE        ACCESS:          0 HIT:          0 MISS:          0
cpu0_L1I TRANSLATION  ACCESS:          0 HIT:          0 MISS:          0
cpu0_L1I PREFETCH REQUESTED:          0 ISSUED:          0 USEFUL:          0 USELESS:          0
cpu0_L1I AVERAGE MISS LATENCY: 59.91 cycles
cpu0_L1I TOTAL        ACCESS:          0 HIT:          0 MISS:          0
cpu0_L1I LOAD         ACCESS:          0 HIT:          0 MISS:          0
cpu0_L1I RFO          ACCESS:          0 HIT:          0 MISS:          0
cpu0_L1I PREFETCH     ACCESS:          0 HIT:          0 MISS:          0
cpu0_L1I WRITE        ACCESS:          0 HIT:          0 MISS:          0
cpu0_L1I TRANSLATION  ACCESS:          0 HIT:          0 MISS:          0
cpu0_L1I PREFETCH REQUESTED:          0 ISSUED:          0 USEFUL:          0 USELESS:          0
cpu0_L1I AVERAGE MISS LATENCY: 59.91 cycles
cpu0_L1I TOTAL        ACCESS:          0 HIT:          0 MISS:          0
cpu0_L1I LOAD         ACCESS:          0 HIT:          0 MISS:          0
cpu0_L1I RFO          ACCESS:          0 HIT:          0 MISS:          0
cpu0_L1I PREFETCH     ACCESS:          0 HIT:          0 MISS:          0
cpu0_L1I WRITE        ACCESS:          0 HIT:          0 MISS:          0
cpu0_L1I TRANSLATION  ACCESS:          0 HIT:          0 MISS:          0
cpu0_L1I PREFETCH REQUESTED:          0 ISSUED:          0 USEFUL:          0 USELESS:          0
cpu0_L1I AVERAGE MISS LATENCY: 59.91 cycles
cpu0_L1I TOTAL        ACCESS:          0 HIT:          0 MISS:          0
cpu0_L1I LOAD         ACCESS:          0 HIT:          0 MISS:          0
cpu0_L1I RFO          ACCESS:          0 HIT:          0 MISS:          0
cpu0_L1I PREFETCH     ACCESS:          0 HIT:          0 MISS:          0
cpu0_L1I WRITE        ACCESS:          0 HIT:          0 MISS:          0
cpu0_L1I TRANSLATION  ACCESS:          0 HIT:          0 MISS:          0
cpu0_L1I PREFETCH REQUESTED:          0 ISSUED:          0 USEFUL:          0 USELESS:          0
cpu0_L1I AVERAGE MISS LATENCY: 59.91 cycles
cpu0_L2C TOTAL        ACCESS:    5067633 HIT:    2515335 MISS:    2552298
cpu0_L2C LOAD         ACCESS:    2538299 HIT:     854418 MISS:    1683881
cpu0_L2C RFO          ACCESS:     365498 HIT:     107655 MISS:     257843
cpu0_L2C PREFETCH     ACCESS:      19061 HIT:       7025 MISS:      12036
cpu0_L2C WRITE        ACCESS:    1399560 HIT:    1397113 MISS:       2447
cpu0_L2C TRANSLATION  ACCESS:     745215 HIT:     149124 MISS:     596091
cpu0_L2C PREFETCH REQUESTED:          0 ISSUED:          0 USEFUL:          0 USELESS:          0
cpu0_L2C AVERAGE MISS LATENCY: 577.2 cycles
cpu0_L2C TOTAL        ACCESS:          0 HIT:          0 MISS:          0
cpu0_L2C LOAD         ACCESS:          0 HIT:          0 MISS:          0
cpu0_L2C RFO          ACCESS:          0 HIT:          0 MISS:          0
cpu0_L2C PREFETCH     ACCESS:          0 HIT:          0 MISS:          0
cpu0_L2C WRITE        ACCESS:          0 HIT:          0 MISS:          0
cpu0_L2C TRANSLATION  ACCESS:          0 HIT:          0 MISS:          0
cpu0_L2C PREFETCH REQUESTED:          0 ISSUED:          0 USEFUL:          0 USELESS:          0
cpu0_L2C AVERAGE MISS LATENCY: 577.2 cycles
cpu0_L2C TOTAL        ACCESS:          0 HIT:          0 MISS:          0
cpu0_L2C LOAD         ACCESS:          0 HIT:          0 MISS:          0
cpu0_L2C RFO          ACCESS:          0 HIT:          0 MISS:          0
cpu0_L2C PREFETCH     ACCESS:          0 HIT:          0 MISS:          0
cpu0_L2C WRITE        ACCESS:          0 HIT:          0 MISS:          0
cpu0_L2C TRANSLATION  ACCESS:          0 HIT:          0 MISS:          0
cpu0_L2C PREFETCH REQUESTED:          0 ISSUED:          0 USEFUL:          0 USELESS:          0
cpu0_L2C AVERAGE MISS LATENCY: 577.2 cycles
cpu0_L2C TOTAL        ACCESS:          0 HIT:          0 MISS:          0
cpu0_L2C LOAD         ACCESS:          0 HIT:          0 MISS:          0
cpu0_L2C RFO          ACCESS:          0 HIT:          0 MISS:          0
cpu0_L2C PREFETCH     ACCESS:          0 HIT:          0 MISS:          0
cpu0_L2C WRITE        ACCESS:          0 HIT:          0 MISS:          0
cpu0_L2C TRANSLATION  ACCESS:          0 HIT:          0 MISS:          0
cpu0_L2C PREFETCH REQUESTED:          0 ISSUED:          0 USEFUL:          0 USELESS:          0
cpu0_L2C AVERAGE MISS LATENCY: 577.2 cycles
cpu0_STLB TOTAL        ACCESS:    3014807 HIT:    2372386 MISS:     642421
cpu0_STLB LOAD         ACCESS:    3014807 HIT:    2372386 MISS:     642421
cpu0_STLB RFO          ACCESS:          0 HIT:          0 MISS:          0
cpu0_STLB PREFETCH     ACCESS:          0 HIT:          0 MISS:          0
cpu0_STLB WRITE        ACCESS:          0 HIT:          0 MISS:          0
cpu0_STLB TRANSLATION  ACCESS:          0 HIT:          0 MISS:          0
cpu0_STLB PREFETCH REQUESTED:          0 ISSUED:          0 USEFUL:          0 USELESS:          0
cpu0_STLB AVERAGE MISS LATENCY: 598 cycles
cpu0_STLB TOTAL        ACCESS:          0 HIT:          0 MISS:          0
cpu0_STLB LOAD         ACCESS:          0 HIT:          0 MISS:          0
cpu0_STLB RFO          ACCESS:          0 HIT:          0 MISS:          0
cpu0_STLB PREFETCH     ACCESS:          0 HIT:          0 MISS:          0
cpu0_STLB WRITE        ACCESS:          0 HIT:          0 MISS:          0
cpu0_STLB TRANSLATION  ACCESS:          0 HIT:          0 MISS:          0
cpu0_STLB PREFETCH REQUESTED:          0 ISSUED:          0 USEFUL:          0 USELESS:          0
cpu0_STLB AVERAGE MISS LATENCY: 598 cycles
cpu0_STLB TOTAL        ACCESS:          0 HIT:          0 MISS:          0
cpu0_STLB LOAD         ACCESS:          0 HIT:          0 MISS:          0
cpu0_STLB RFO          ACCESS:          0 HIT:          0 MISS:          0
cpu0_STLB PREFETCH     ACCESS:          0 HIT:          0 MISS:          0
cpu0_STLB WRITE        ACCESS:          0 HIT:          0 MISS:          0
cpu0_STLB TRANSLATION  ACCESS:          0 HIT:          0 MISS:          0
cpu0_STLB PREFETCH REQUESTED:          0 ISSUED:          0 USEFUL:          0 USELESS:          0
cpu0_STLB AVERAGE MISS LATENCY: 598 cycles
cpu0_STLB TOTAL        ACCESS:          0 HIT:          0 MISS:          0
cpu0_STLB LOAD         ACCESS:          0 HIT:          0 MISS:          0
cpu0_STLB RFO          ACCESS:          0 HIT:          0 MISS:          0
cpu0_STLB PREFETCH     ACCESS:          0 HIT:          0 MISS:          0
cpu0_STLB WRITE        ACCESS:          0 HIT:          0 MISS:          0
cpu0_STLB TRANSLATION  ACCESS:          0 HIT:          0 MISS:          0
cpu0_STLB PREFETCH REQUESTED:          0 ISSUED:          0 USEFUL:          0 USELESS:          0
cpu0_STLB AVERAGE MISS LATENCY: 598 cycles
cpu1_DTLB TOTAL        ACCESS:          0 HIT:          0 MISS:          0
cpu1_DTLB LOAD         ACCESS:          0 HIT:          0 MISS:          0
cpu1_DTLB RFO          ACCESS:          0 HIT:          0 MISS:          0
cpu1_DTLB PREFETCH     ACCESS:          0 HIT:          0 MISS:          0
cpu1_DTLB WRITE        ACCESS:          0 HIT:          0 MISS:          0
cpu1_DTLB TRANSLATION  ACCESS:          0 HIT:          0 MISS:          0
cpu1_DTLB PREFETCH REQUESTED:          0 ISSUED:          0 USEFUL:          0 USELESS:          0
cpu1_DTLB AVERAGE MISS LATENCY: 18.81 cycles
cpu1_DTLB TOTAL        ACCESS:  177590713 HIT:  177559647 MISS:      31066
cpu1_DTLB LOAD         ACCESS:  177590713 HIT:  177559647 MISS:      31066
cpu1_DTLB RFO          ACCESS:          0 HIT:          0 MISS:          0
cpu1_DTLB PREFETCH     ACCESS:          0 HIT:          0 MISS:          0
cpu1_DTLB WRITE        ACCESS:          0 HIT:          0 MISS:          0
cpu1_DTLB TRANSLATION  ACCESS:          0 HIT:          0 MISS:          0
cpu1_DTLB PREFETCH REQUESTED:          0 ISSUED:          0 USEFUL:          0 USELESS:          0
cpu1_DTLB AVERAGE MISS LATENCY: 18.81 cycles
cpu1_DTLB TOTAL        ACCESS:          0 HIT:          0 MISS:          0
cpu1_DTLB LOAD         ACCESS:          0 HIT:          0 MISS:          0
cpu1_DTLB RFO          ACCESS:          0 HIT:          0 MISS:          0
cpu1_DTLB PREFETCH     ACCESS:          0 HIT:          0 MISS:          0
cpu1_DTLB WRITE        ACCESS:          0 HIT:          0 MISS:          0
cpu1_DTLB TRANSLATION  ACCESS:          0 HIT:          0 MISS:          0
cpu1_DTLB PREFETCH REQUESTED:          0 ISSUED:          0 USEFUL:          0 USELESS:          0
cpu1_DTLB AVERAGE MISS LATENCY: 18.81 cycles
cpu1_DTLB TOTAL        ACCESS:          0 HIT:          0 MISS:          0
cpu1_DTLB LOAD         ACCESS:          0 HIT:          0 MISS:          0
cpu1_DTLB RFO          ACCESS:          0 HIT:          0 MISS:          0
cpu1_DTLB PREFETCH     ACCESS:          0 HIT:          0 MISS:          0
cpu1_DTLB WRITE        ACCESS:          0 HIT:          0 MISS:          0
cpu1_DTLB TRANSLATION  ACCESS:          0 HIT:          0 MISS:          0
cpu1_DTLB PREFETCH REQUESTED:          0 ISSUED:          0 USEFUL:          0 USELESS:          0
cpu1_DTLB AVERAGE MISS LATENCY: 18.81 cycles
cpu1_ITLB TOTAL        ACCESS:          0 HIT:          0 MISS:          0
cpu1_ITLB LOAD         ACCESS:          0 HIT:          0 MISS:          0
cpu1_ITLB RFO          ACCESS:          0 HIT:          0 MISS:          0
cpu1_ITLB PREFETCH     ACCESS:          0 HIT:          0 MISS:          0
cpu1_ITLB WRITE        ACCESS:          0 HIT:          0 MISS:          0
cpu1_ITLB TRANSLATION  ACCESS:          0 HIT:          0 MISS:          0
cpu1_ITLB PREFETCH REQUESTED:          0 ISSUED:          0 USEFUL:          0 USELESS:          0
cpu1_ITLB AVERAGE MISS LATENCY: -nan cycles
cpu1_ITLB TOTAL        ACCESS:    4431344 HIT:    4431344 MISS:          0
cpu1_ITLB LOAD         ACCESS:    4431344 HIT:    4431344 MISS:          0
cpu1_ITLB RFO          ACCESS:          0 HIT:          0 MISS:          0
cpu1_ITLB PREFETCH     ACCESS:          0 HIT:          0 MISS:          0
cpu1_ITLB WRITE        ACCESS:          0 HIT:          0 MISS:          0
cpu1_ITLB TRANSLATION  ACCESS:          0 HIT:          0 MISS:          0
cpu1_ITLB PREFETCH REQUESTED:          0 ISSUED:          0 USEFUL:          0 USELESS:          0
cpu1_ITLB AVERAGE MISS LATENCY: -nan cycles
cpu1_ITLB TOTAL        ACCESS:          0 HIT:          0 MISS:          0
cpu1_ITLB LOAD         ACCESS:          0 HIT:          0 MISS:          0
cpu1_ITLB RFO          ACCESS:          0 HIT:          0 MISS:          0
cpu1_ITLB PREFETCH     ACCESS:          0 HIT:          0 MISS:          0
cpu1_ITLB WRITE        ACCESS:          0 HIT:          0 MISS:          0
cpu1_ITLB TRANSLATION  ACCESS:          0 HIT:          0 MISS:          0
cpu1_ITLB PREFETCH REQUESTED:          0 ISSUED:          0 USEFUL:          0 USELESS:          0
cpu1_ITLB AVERAGE MISS LATENCY: -nan cycles
cpu1_ITLB TOTAL        ACCESS:          0 HIT:          0 MISS:          0
cpu1_ITLB LOAD         ACCESS:          0 HIT:          0 MISS:          0
cpu1_ITLB RFO          ACCESS:          0 HIT:          0 MISS:          0
cpu1_ITLB PREFETCH     ACCESS:          0 HIT:          0 MISS:          0
cpu1_ITLB WRITE        ACCESS:          0 HIT:          0 MISS:          0
cpu1_ITLB TRANSLATION  ACCESS:          0 HIT:          0 MISS:          0
cpu1_ITLB PREFETCH REQUESTED:          0 ISSUED:          0 USEFUL:          0 USELESS:          0
cpu1_ITLB AVERAGE MISS LATENCY: -nan cycles
cpu1_L1D TOTAL        ACCESS:          0 HIT:          0 MISS:          0
cpu1_L1D LOAD         ACCESS:          0 HIT:          0 MISS:          0
cpu1_L1D RFO          ACCESS:          0 HIT:          0 MISS:          0
cpu1_L1D PREFETCH     ACCESS:          0 HIT:          0 MISS:          0
cpu1_L1D WRITE        ACCESS:          0 HIT:          0 MISS:          0
cpu1_L1D TRANSLATION  ACCESS:          0 HIT:          0 MISS:          0
cpu1_L1D PREFETCH REQUESTED:    4993894 ISSUED:    2723347 USEFUL:      19208 USELESS:       3043
cpu1_L1D AVERAGE MISS LATENCY: 212.5 cycles
cpu1_L1D TOTAL        ACCESS:  275065710 HIT:  272985283 MISS:    2080427
cpu1_L1D LOAD         ACCESS:  217013266 HIT:  216985547 MISS:      27719
cpu1_L1D RFO          ACCESS:          0 HIT:          0 MISS:          0
cpu1_L1D PREFETCH     ACCESS:    2723347 HIT:    2192612 MISS:     530735
cpu1_L1D WRITE        ACCESS:   55325387 HIT:   53803871 MISS:    1521516
cpu1_L1D TRANSLATION  ACCESS:       3710 HIT:       3253 MISS:        457
cpu1_L1D PREFETCH REQUESTED:    4993894 ISSUED:    2723347 USEFUL:      19208 USELESS:       3043
cpu1_L1D AVERAGE MISS LATENCY: 212.5 cycles
cpu1_L1D TOTAL        ACCESS:          0 HIT:          0 MISS:          0
cpu1_L1D LOAD         ACCESS:          0 HIT:          0 MISS:          0
cpu1_L1D RFO          ACCESS:          0 HIT:          0 MISS:          0
cpu1_L1D PREFETCH     ACCESS:          0 HIT:          0 MISS:          0
cpu1_L1D WRITE        ACCESS:          0 HIT:          0 MISS:          0
cpu1_L1D TRANSLATION  ACCESS:          0 HIT:          0 MISS:          0
cpu1_L1D PREFETCH REQUESTED:    4993894 ISSUED:    2723347 USEFUL:      19208 USELESS:       3043
cpu1_L1D AVERAGE MISS LATENCY: 212.5 cycles
cpu1_L1D TOTAL        ACCESS:          0 HIT:          0 MISS:          0
cpu1_L1D LOAD         ACCESS:          0 HIT:          0 MISS:          0
cpu1_L1D RFO          ACCESS:          0 HIT:          0 MISS:          0
cpu1_L1D PREFETCH     ACCESS:          0 HIT:          0 MISS:          0
cpu1_L1D WRITE        ACCESS:          0 HIT:          0 MISS:          0
cpu1_L1D TRANSLATION  ACCESS:          0 HIT:          0 MISS:          0
cpu1_L1D PREFETCH REQUESTED:    4993894 ISSUED:    2723347 USEFUL:      19208 USELESS:       3043
cpu1_L1D AVERAGE MISS LATENCY: 212.5 cycles
cpu1_L1I TOTAL        ACCESS:          0 HIT:          0 MISS:          0
cpu1_L1I LOAD         ACCESS:          0 HIT:          0 MISS:          0
cpu1_L1I RFO          ACCESS:          0 HIT:          0 MISS:          0
cpu1_L1I PREFETCH     ACCESS:          0 HIT:          0 MISS:          0
cpu1_L1I WRITE        ACCESS:          0 HIT:          0 MISS:          0
cpu1_L1I TRANSLATION  ACCESS:          0 HIT:          0 MISS:          0
cpu1_L1I PREFETCH REQUESTED:          0 ISSUED:          0 USEFUL:          0 USELESS:          0
cpu1_L1I AVERAGE MISS LATENCY: -nan cycles
cpu1_L1I TOTAL        ACCESS:    5397364 HIT:    5397364 MISS:          0
cpu1_L1I LOAD         ACCESS:    5397364 HIT:    5397364 MISS:          0
cpu1_L1I RFO          ACCESS:          0 HIT:          0 MISS:          0
cpu1_L1I PREFETCH     ACCESS:          0 HIT:          0 MISS:          0
cpu1_L1I WRITE        ACCESS:          0 HIT:          0 MISS:          0
cpu1_L1I TRANSLATION  ACCESS:          0 HIT:          0 MISS:          0
cpu1_L1I PREFETCH REQUESTED:          0 ISSUED:          0 USEFUL:          0 USELESS:          0
cpu1_L1I AVERAGE MISS LATENCY: -nan cycles
cpu1_L1I TOTAL        ACCESS:          0 HIT:          0 MISS:          0
cpu1_L1I LOAD         ACCESS:          0 HIT:          0 MISS:          0
cpu1_L1I RFO          ACCESS:          0 HIT:          0 MISS:          0
cpu1_L1I PREFETCH     ACCESS:          0 HIT:          0 MISS:          0
cpu1_L1I WRITE        ACCESS:          0 HIT:          0 MISS:          0
cpu1_L1I TRANSLATION  ACCESS:          0 HIT:          0 MISS:          0
cpu1_L1I PREFETCH REQUESTED:          0 ISSUED:          0 USEFUL:          0 USELESS:          0
cpu1_L1I AVERAGE MISS LATENCY: -nan cycles
cpu1_L1I TOTAL        ACCESS:          0 HIT:          0 MISS:          0
cpu1_L1I LOAD         ACCESS:          0 HIT:          0 MISS:          0
cpu1_L1I RFO          ACCESS:          0 HIT:          0 MISS:          0
cpu1_L1I PREFETCH     ACCESS:          0 HIT:          0 MISS:          0
cpu1_L1I WRITE        ACCESS:          0 HIT:          0 MISS:          0
cpu1_L1I TRANSLATION  ACCESS:          0 HIT:          0 MISS:          0
cpu1_L1I PREFETCH REQUESTED:          0 ISSUED:          0 USEFUL:          0 USELESS:          0
cpu1_L1I AVERAGE MISS LATENCY: -nan cycles
cpu1_L2C TOTAL        ACCESS:          0 HIT:          0 MISS:          0
cpu1_L2C LOAD         ACCESS:          0 HIT:          0 MISS:          0
cpu1_L2C RFO          ACCESS:          0 HIT:          0 MISS:          0
cpu1_L2C PREFETCH     ACCESS:          0 HIT:          0 MISS:          0
[...]
cpu2_L2C PREFETCH REQUESTED:          0 ISSUED:          0 USEFUL:          0 USELESS:          0
cpu2_L2C AVERAGE MISS LATENCY: 455.6 cycles
cpu2_L2C TOTAL        ACCESS:          0 HIT:          0 MISS:          0
cpu2_L2C LOAD         ACCESS:          0 HIT:          0 MISS:          0
cpu2_L2C RFO          ACCESS:          0 HIT:          0 MISS:          0
cpu2_L2C PREFETCH     ACCESS:          0 HIT:          0 MISS:          0
cpu2_L2C WRITE        ACCESS:          0 HIT:          0 MISS:          0
cpu2_L2C TRANSLATION  ACCESS:          0 HIT:          0 MISS:          0
cpu2_L2C PREFETCH REQUESTED:          0 ISSUED:          0 USEFUL:          0 USELESS:          0
cpu2_L2C AVERAGE MISS LATENCY: 455.6 cycles
cpu2_L2C TOTAL        ACCESS:    4830034 HIT:    2910698 MISS:    1919336
cpu2_L2C LOAD         ACCESS:     637714 HIT:     245823 MISS:     391891
cpu2_L2C RFO          ACCESS:       2296 HIT:       1661 MISS:        635
cpu2_L2C PREFETCH     ACCESS:    2871440 HIT:    1345159 MISS:    1526281
cpu2_L2C WRITE        ACCESS:    1317774 HIT:    1317774 MISS:          0
cpu2_L2C TRANSLATION  ACCESS:        810 HIT:        281 MISS:        529
cpu2_L2C PREFETCH REQUESTED:          0 ISSUED:          0 USEFUL:          0 USELESS:          0
cpu2_L2C AVERAGE MISS LATENCY: 455.6 cycles
cpu2_L2C TOTAL        ACCESS:          0 HIT:          0 MISS:          0
cpu2_L2C LOAD         ACCESS:          0 HIT:          0 MISS:          0
cpu2_L2C RFO          ACCESS:          0 HIT:          0 MISS:          0
cpu2_L2C PREFETCH     ACCESS:          0 HIT:          0 MISS:          0
cpu2_L2C WRITE        ACCESS:          0 HIT:          0 MISS:          0
cpu2_L2C TRANSLATION  ACCESS:          0 HIT:          0 MISS:          0
cpu2_L2C PREFETCH REQUESTED:          0 ISSUED:          0 USEFUL:          0 USELESS:          0
cpu2_L2C AVERAGE MISS LATENCY: 455.6 cycles
cpu2_STLB TOTAL        ACCESS:          0 HIT:          0 MISS:          0
cpu2_STLB LOAD         ACCESS:          0 HIT:          0 MISS:          0
cpu2_STLB RFO          ACCESS:          0 HIT:          0 MISS:          0
cpu2_STLB PREFETCH     ACCESS:          0 HIT:          0 MISS:          0
cpu2_STLB WRITE        ACCESS:          0 HIT:          0 MISS:          0
cpu2_STLB TRANSLATION  ACCESS:          0 HIT:          0 MISS:          0
cpu2_STLB PREFETCH REQUESTED:          0 ISSUED:          0 USEFUL:          0 USELESS:          0
cpu2_STLB AVERAGE MISS LATENCY: 212.4 cycles
cpu2_STLB TOTAL        ACCESS:          0 HIT:          0 MISS:          0
cpu2_STLB LOAD         ACCESS:          0 HIT:          0 MISS:          0
cpu2_STLB RFO          ACCESS:          0 HIT:          0 MISS:          0
cpu2_STLB PREFETCH     ACCESS:          0 HIT:          0 MISS:          0
cpu2_STLB WRITE        ACCESS:          0 HIT:          0 MISS:          0
cpu2_STLB TRANSLATION  ACCESS:          0 HIT:          0 MISS:          0
cpu2_STLB PREFETCH REQUESTED:          0 ISSUED:          0 USEFUL:          0 USELESS:          0
cpu2_STLB AVERAGE MISS LATENCY: 212.4 cycles
cpu2_STLB TOTAL        ACCESS:      34992 HIT:      14403 MISS:      20589
cpu2_STLB LOAD         ACCESS:      34992 HIT:      14403 MISS:      20589
cpu2_STLB RFO          ACCESS:          0 HIT:          0 MISS:          0
cpu2_STLB PREFETCH     ACCESS:          0 HIT:          0 MISS:          0
cpu2_STLB WRITE        ACCESS:          0 HIT:          0 MISS:          0
cpu2_STLB TRANSLATION  ACCESS:          0 HIT:          0 MISS:          0
cpu2_STLB PREFETCH REQUESTED:          0 ISSUED:          0 USEFUL:          0 USELESS:          0
cpu2_STLB AVERAGE MISS LATENCY: 212.4 cycles
cpu2_STLB TOTAL        ACCESS:          0 HIT:          0 MISS:          0
cpu2_STLB LOAD         ACCESS:          0 HIT:          0 MISS:          0
cpu2_STLB RFO          ACCESS:          0 HIT:          0 MISS:          0
cpu2_STLB PREFETCH     ACCESS:          0 HIT:          0 MISS:          0
cpu2_STLB WRITE        ACCESS:          0 HIT:          0 MISS:          0
cpu2_STLB TRANSLATION  ACCESS:          0 HIT:          0 MISS:          0
cpu2_STLB PREFETCH REQUESTED:          0 ISSUED:          0 USEFUL:          0 USELESS:          0
cpu2_STLB AVERAGE MISS LATENCY: 212.4 cycles
cpu3_DTLB TOTAL        ACCESS:          0 HIT:          0 MISS:          0
cpu3_DTLB LOAD         ACCESS:          0 HIT:          0 MISS:          0
cpu3_DTLB RFO          ACCESS:          0 HIT:          0 MISS:          0
cpu3_DTLB PREFETCH     ACCESS:          0 HIT:          0 MISS:          0
cpu3_DTLB WRITE        ACCESS:          0 HIT:          0 MISS:          0
cpu3_DTLB TRANSLATION  ACCESS:          0 HIT:          0 MISS:          0
cpu3_DTLB PREFETCH REQUESTED:          0 ISSUED:          0 USEFUL:          0 USELESS:          0
cpu3_DTLB AVERAGE MISS LATENCY: 8.283 cycles
cpu3_DTLB TOTAL        ACCESS:          0 HIT:          0 MISS:          0
cpu3_DTLB LOAD         ACCESS:          0 HIT:          0 MISS:          0
cpu3_DTLB RFO          ACCESS:          0 HIT:          0 MISS:          0
cpu3_DTLB PREFETCH     ACCESS:          0 HIT:          0 MISS:          0
cpu3_DTLB WRITE        ACCESS:          0 HIT:          0 MISS:          0
cpu3_DTLB TRANSLATION  ACCESS:          0 HIT:          0 MISS:          0
cpu3_DTLB PREFETCH REQUESTED:          0 ISSUED:          0 USEFUL:          0 USELESS:          0
cpu3_DTLB AVERAGE MISS LATENCY: 8.283 cycles
cpu3_DTLB TOTAL        ACCESS:          0 HIT:          0 MISS:          0
cpu3_DTLB LOAD         ACCESS:          0 HIT:          0 MISS:          0
cpu3_DTLB RFO          ACCESS:          0 HIT:          0 MISS:          0
cpu3_DTLB PREFETCH     ACCESS:          0 HIT:          0 MISS:          0
cpu3_DTLB WRITE        ACCESS:          0 HIT:          0 MISS:          0
cpu3_DTLB TRANSLATION  ACCESS:          0 HIT:          0 MISS:          0
cpu3_DTLB PREFETCH REQUESTED:          0 ISSUED:          0 USEFUL:          0 USELESS:          0
cpu3_DTLB AVERAGE MISS LATENCY: 8.283 cycles
cpu3_DTLB TOTAL        ACCESS:   21936531 HIT:   21663745 MISS:     272786
cpu3_DTLB LOAD         ACCESS:   21936531 HIT:   21663745 MISS:     272786
cpu3_DTLB RFO          ACCESS:          0 HIT:          0 MISS:          0
cpu3_DTLB PREFETCH     ACCESS:          0 HIT:          0 MISS:          0
cpu3_DTLB WRITE        ACCESS:          0 HIT:          0 MISS:          0
cpu3_DTLB TRANSLATION  ACCESS:          0 HIT:          0 MISS:          0
cpu3_DTLB PREFETCH REQUESTED:          0 ISSUED:          0 USEFUL:          0 USELESS:          0
cpu3_DTLB AVERAGE MISS LATENCY: 8.283 cycles
cpu3_ITLB TOTAL        ACCESS:          0 HIT:          0 MISS:          0
cpu3_ITLB LOAD         ACCESS:          0 HIT:          0 MISS:          0
cpu3_ITLB RFO          ACCESS:          0 HIT:          0 MISS:          0
cpu3_ITLB PREFETCH     ACCESS:          0 HIT:          0 MISS:          0
cpu3_ITLB WRITE        ACCESS:          0 HIT:          0 MISS:          0
cpu3_ITLB TRANSLATION  ACCESS:          0 HIT:          0 MISS:          0
cpu3_ITLB PREFETCH REQUESTED:          0 ISSUED:          0 USEFUL:          0 USELESS:          0
cpu3_ITLB AVERAGE MISS LATENCY: 48.85 cycles
cpu3_ITLB TOTAL        ACCESS:          0 HIT:          0 MISS:          0
cpu3_ITLB LOAD         ACCESS:          0 HIT:          0 MISS:          0
cpu3_ITLB RFO          ACCESS:          0 HIT:          0 MISS:          0
cpu3_ITLB PREFETCH     ACCESS:          0 HIT:          0 MISS:          0
cpu3_ITLB WRITE        ACCESS:          0 HIT:          0 MISS:          0
cpu3_ITLB TRANSLATION  ACCESS:          0 HIT:          0 MISS:          0
cpu3_ITLB PREFETCH REQUESTED:          0 ISSUED:          0 USEFUL:          0 USELESS:          0
cpu3_ITLB AVERAGE MISS LATENCY: 48.85 cycles
cpu3_ITLB TOTAL        ACCESS:          0 HIT:          0 MISS:          0
cpu3_ITLB LOAD         ACCESS:          0 HIT:          0 MISS:          0
cpu3_ITLB RFO          ACCESS:          0 HIT:          0 MISS:          0
cpu3_ITLB PREFETCH     ACCESS:          0 HIT:          0 MISS:          0
cpu3_ITLB WRITE        ACCESS:          0 HIT:          0 MISS:          0
cpu3_ITLB TRANSLATION  ACCESS:          0 HIT:          0 MISS:          0
cpu3_ITLB PREFETCH REQUESTED:          0 ISSUED:          0 USEFUL:          0 USELESS:          0
cpu3_ITLB AVERAGE MISS LATENCY: 48.85 cycles
cpu3_ITLB TOTAL        ACCESS:    2872055 HIT:    2868000 MISS:       4055
cpu3_ITLB LOAD         ACCESS:    2872055 HIT:    2868000 MISS:       4055
cpu3_ITLB RFO          ACCESS:          0 HIT:          0 MISS:          0
cpu3_ITLB PREFETCH     ACCESS:          0 HIT:          0 MISS:          0
cpu3_ITLB WRITE        ACCESS:          0 HIT:          0 MISS:          0
cpu3_ITLB TRANSLATION  ACCESS:          0 HIT:          0 MISS:          0
cpu3_ITLB PREFETCH REQUESTED:          0 ISSUED:          0 USEFUL:          0 USELESS:          0
cpu3_ITLB AVERAGE MISS LATENCY: 48.85 cycles
cpu3_L1D TOTAL        ACCESS:          0 HIT:          0 MISS:          0
cpu3_L1D LOAD         ACCESS:          0 HIT:          0 MISS:          0
cpu3_L1D RFO          ACCESS:          0 HIT:          0 MISS:          0
cpu3_L1D PREFETCH     ACCESS:          0 HIT:          0 MISS:          0
cpu3_L1D WRITE        ACCESS:          0 HIT:          0 MISS:          0
cpu3_L1D TRANSLATION  ACCESS:          0 HIT:          0 MISS:          0
cpu3_L1D PREFETCH REQUESTED:   71934671 ISSUED:   14228060 USEFUL:     451043 USELESS:     228524
cpu3_L1D AVERAGE MISS LATENCY: 247.8 cycles
cpu3_L1D TOTAL        ACCESS:          0 HIT:          0 MISS:          0
cpu3_L1D LOAD         ACCESS:          0 HIT:          0 MISS:          0
cpu3_L1D RFO          ACCESS:          0 HIT:          0 MISS:          0
cpu3_L1D PREFETCH     ACCESS:          0 HIT:          0 MISS:          0
cpu3_L1D WRITE        ACCESS:          0 HIT:          0 MISS:          0
cpu3_L1D TRANSLATION  ACCESS:          0 HIT:          0 MISS:          0
cpu3_L1D PREFETCH REQUESTED:   71934671 ISSUED:   14228060 USEFUL:     451043 USELESS:     228524
cpu3_L1D AVERAGE MISS LATENCY: 247.8 cycles
cpu3_L1D TOTAL        ACCESS:          0 HIT:          0 MISS:          0
cpu3_L1D LOAD         ACCESS:          0 HIT:          0 MISS:          0
cpu3_L1D RFO          ACCESS:          0 HIT:          0 MISS:          0
cpu3_L1D PREFETCH     ACCESS:          0 HIT:          0 MISS:          0
cpu3_L1D WRITE        ACCESS:          0 HIT:          0 MISS:          0
cpu3_L1D TRANSLATION  ACCESS:          0 HIT:          0 MISS:          0
cpu3_L1D PREFETCH REQUESTED:   71934671 ISSUED:   14228060 USEFUL:     451043 USELESS:     228524
cpu3_L1D AVERAGE MISS LATENCY: 247.8 cycles
cpu3_L1D TOTAL        ACCESS:   31704308 HIT:   25888881 MISS:    5815427
cpu3_L1D LOAD         ACCESS:   13809414 HIT:   13277464 MISS:     531950
cpu3_L1D RFO          ACCESS:          0 HIT:          0 MISS:          0
cpu3_L1D PREFETCH     ACCESS:    2593167 HIT:    1881325 MISS:     711842
cpu3_L1D WRITE        ACCESS:   15282284 HIT:   10714969 MISS:    4567315
cpu3_L1D TRANSLATION  ACCESS:      19443 HIT:      15123 MISS:       4320
cpu3_L1D PREFETCH REQUESTED:   71934671 ISSUED:   14228060 USEFUL:     451043 USELESS:     228524
cpu3_L1D AVERAGE MISS LATENCY: 247.8 cycles
cpu3_L1I TOTAL        ACCESS:          0 HIT:          0 MISS:          0
cpu3_L1I LOAD         ACCESS:          0 HIT:          0 MISS:          0
cpu3_L1I RFO          ACCESS:          0 HIT:          0 MISS:          0
cpu3_L1I PREFETCH     ACCESS:          0 HIT:          0 MISS:          0
cpu3_L1I WRITE        ACCESS:          0 HIT:          0 MISS:          0
cpu3_L1I TRANSLATION  ACCESS:          0 HIT:          0 MISS:          0
cpu3_L1I PREFETCH REQUESTED:          0 ISSUED:          0 USEFUL:          0 USELESS:          0
cpu3_L1I AVERAGE MISS LATENCY: 121.4 cycles
cpu3_L1I TOTAL        ACCESS:          0 HIT:          0 MISS:          0
cpu3_L1I LOAD         ACCESS:          0 HIT:          0 MISS:          0
cpu3_L1I RFO          ACCESS:          0 HIT:          0 MISS:          0
cpu3_L1I PREFETCH     ACCESS:          0 HIT:          0 MISS:          0
cpu3_L1I WRITE        ACCESS:          0 HIT:          0 MISS:          0
cpu3_L1I TRANSLATION  ACCESS:          0 HIT:          0 MISS:          0
cpu3_L1I PREFETCH REQUESTED:          0 ISSUED:          0 USEFUL:          0 USELESS:          0
cpu3_L1I AVERAGE MISS LATENCY: 121.4 cycles
cpu3_L1I TOTAL        ACCESS:          0 HIT:          0 MISS:          0
cpu3_L1I LOAD         ACCESS:          0 HIT:          0 MISS:          0
cpu3_L1I RFO          ACCESS:          0 HIT:          0 MISS:          0
cpu3_L1I PREFETCH     ACCESS:          0 HIT:          0 MISS:          0
cpu3_L1I WRITE        ACCESS:          0 HIT:          0 MISS:          0
cpu3_L1I TRANSLATION  ACCESS:          0 HIT:          0 MISS:          0
cpu3_L1I PREFETCH REQUESTED:          0 ISSUED:          0 USEFUL:          0 USELESS:          0
cpu3_L1I AVERAGE MISS LATENCY: 121.4 cycles
cpu3_L1I TOTAL        ACCESS:    3639467 HIT:    3549722 MISS:      89745
cpu3_L1I LOAD         ACCESS:    3639467 HIT:    3549722 MISS:      89745
cpu3_L1I RFO          ACCESS:          0 HIT:          0 MISS:          0
cpu3_L1I PREFETCH     ACCESS:          0 HIT:          0 MISS:          0
cpu3_L1I WRITE        ACCESS:          0 HIT:          0 MISS:          0
cpu3_L1I TRANSLATION  ACCESS:          0 HIT:          0 MISS:          0
cpu3_L1I PREFETCH REQUESTED:          0 ISSUED:          0 USEFUL:          0 USELESS:          0
cpu3_L1I AVERAGE MISS LATENCY: 121.4 cycles
cpu3_L2C TOTAL        ACCESS:          0 HIT:          0 MISS:          0
cpu3_L2C LOAD         ACCESS:          0 HIT:          0 MISS:          0
cpu3_L2C RFO          ACCESS:          0 HIT:          0 MISS:          0
cpu3_L2C PREFETCH     ACCESS:          0 HIT:          0 MISS:          0
cpu3_L2C WRITE        ACCESS:          0 HIT:          0 MISS:          0
cpu3_L2C TRANSLATION  ACCESS:          0 HIT:          0 MISS:          0
cpu3_L2C PREFETCH REQUESTED:          0 ISSUED:          0 USEFUL:          0 USELESS:          0
cpu3_L2C AVERAGE MISS LATENCY: 1344 cycles
cpu3_L2C TOTAL        ACCESS:          0 HIT:          0 MISS:          0
cpu3_L2C LOAD         ACCESS:          0 HIT:          0 MISS:          0
cpu3_L2C RFO          ACCESS:          0 HIT:          0 MISS:          0
cpu3_L2C PREFETCH     ACCESS:          0 HIT:          0 MISS:          0
cpu3_L2C WRITE        ACCESS:          0 HIT:          0 MISS:          0
cpu3_L2C TRANSLATION  ACCESS:          0 HIT:          0 MISS:          0
cpu3_L2C PREFETCH REQUESTED:          0 ISSUED:          0 USEFUL:          0 USELESS:          0
cpu3_L2C AVERAGE MISS LATENCY: 1344 cycles
cpu3_L2C TOTAL        ACCESS:          0 HIT:          0 MISS:          0
cpu3_L2C LOAD         ACCESS:          0 HIT:          0 MISS:          0
cpu3_L2C RFO          ACCESS:          0 HIT:          0 MISS:          0
cpu3_L2C PREFETCH     ACCESS:          0 HIT:          0 MISS:          0
cpu3_L2C WRITE        ACCESS:          0 HIT:          0 MISS:          0
cpu3_L2C TRANSLATION  ACCESS:          0 HIT:          0 MISS:          0
cpu3_L2C PREFETCH REQUESTED:          0 ISSUED:          0 USEFUL:          0 USELESS:          0
cpu3_L2C AVERAGE MISS LATENCY: 1344 cycles
cpu3_L2C TOTAL        ACCESS:    3545444 HIT:    2373783 MISS:    1171661
cpu3_L2C LOAD         ACCESS:     453414 HIT:     344842 MISS:     108572
cpu3_L2C RFO          ACCESS:    1157488 HIT:     188243 MISS:     969245
cpu3_L2C PREFETCH     ACCESS:     697397 HIT:     606745 MISS:      90652
cpu3_L2C WRITE        ACCESS:    1232854 HIT:    1232758 MISS:         96
cpu3_L2C TRANSLATION  ACCESS:       4291 HIT:       1195 MISS:       3096
cpu3_L2C PREFETCH REQUESTED:          0 ISSUED:          0 USEFUL:          0 USELESS:          0
cpu3_L2C AVERAGE MISS LATENCY: 1344 cycles
cpu3_STLB TOTAL        ACCESS:          0 HIT:          0 MISS:          0
cpu3_STLB LOAD         ACCESS:          0 HIT:          0 MISS:          0
cpu3_STLB RFO          ACCESS:          0 HIT:          0 MISS:          0
cpu3_STLB PREFETCH     ACCESS:          0 HIT:          0 MISS:          0
cpu3_STLB WRITE        ACCESS:          0 HIT:          0 MISS:          0
cpu3_STLB TRANSLATION  ACCESS:          0 HIT:          0 MISS:          0
cpu3_STLB PREFETCH REQUESTED:          0 ISSUED:          0 USEFUL:          0 USELESS:          0
cpu3_STLB AVERAGE MISS LATENCY: 123.5 cycles
cpu3_STLB TOTAL        ACCESS:          0 HIT:          0 MISS:          0
cpu3_STLB LOAD         ACCESS:          0 HIT:          0 MISS:          0
cpu3_STLB RFO          ACCESS:          0 HIT:          0 MISS:          0
cpu3_STLB PREFETCH     ACCESS:          0 HIT:          0 MISS:          0
cpu3_STLB WRITE        ACCESS:          0 HIT:          0 MISS:          0
cpu3_STLB TRANSLATION  ACCESS:          0 HIT:          0 MISS:          0
cpu3_STLB PREFETCH REQUESTED:          0 ISSUED:          0 USEFUL:          0 USELESS:          0
cpu3_STLB AVERAGE MISS LATENCY: 123.5 cycles
cpu3_STLB TOTAL        ACCESS:          0 HIT:          0 MISS:          0
cpu3_STLB LOAD         ACCESS:          0 HIT:          0 MISS:          0
cpu3_STLB RFO          ACCESS:          0 HIT:          0 MISS:          0
cpu3_STLB PREFETCH     ACCESS:          0 HIT:          0 MISS:          0
cpu3_STLB WRITE        ACCESS:          0 HIT:          0 MISS:          0
cpu3_STLB TRANSLATION  ACCESS:          0 HIT:          0 MISS:          0
cpu3_STLB PREFETCH REQUESTED:          0 ISSUED:          0 USEFUL:          0 USELESS:          0
cpu3_STLB AVERAGE MISS LATENCY: 123.5 cycles
cpu3_STLB TOTAL        ACCESS:      95498 HIT:      76420 MISS:      19078
cpu3_STLB LOAD         ACCESS:      95498 HIT:      76420 MISS:      19078
cpu3_STLB RFO          ACCESS:          0 HIT:          0 MISS:          0
cpu3_STLB PREFETCH     ACCESS:          0 HIT:          0 MISS:          0
cpu3_STLB WRITE        ACCESS:          0 HIT:          0 MISS:          0
cpu3_STLB TRANSLATION  ACCESS:          0 HIT:          0 MISS:          0
cpu3_STLB PREFETCH REQUESTED:          0 ISSUED:          0 USEFUL:          0 USELESS:          0
cpu3_STLB AVERAGE MISS LATENCY: 123.5 cycles

DRAM Statistics

Channel 0 RQ ROW_BUFFER_HIT:    1494214
  ROW_BUFFER_MISS:    5481404
 AVG DBUS CONGESTED CYCLE: 3.977
WQ ROW_BUFFER_HIT: Channel 0 
  ROW_BUFFER_MISS:     230981
  FULL:    5644457

Channel 1 RQ ROW_BUFFER_HIT:    1487939
  ROW_BUFFER_MISS:    5477351
 AVG DBUS CONGESTED CYCLE: 3.977
WQ ROW_BUFFER_HIT: Channel 1 
  ROW_BUFFER_MISS:     232668
  FULL:    5641763
BERTI TO_L1: 183624911 TO_L2: 99898564 TO_L2_BC_MSHR: 6187228
BERTI AVG_LAT: 445.778 NUM_TRACK_LATENCY: 18161339 NUM_CANT_TRACK_LATENCY: 56877
BERTI CROSS_PAGE 53697950 NO_CROSS_PAGE: 229825525
BERTI FOUND_BERTI: 77512895 NO_FOUND_BERTI: 342977804
BERTI AVERAGE_ISSUED: 4.41749
BERTI TO_L1: 183624911 TO_L2: 99898564 TO_L2_BC_MSHR: 6187228
BERTI AVG_LAT: 445.778 NUM_TRACK_LATENCY: 18161339 NUM_CANT_TRACK_LATENCY: 56877
BERTI CROSS_PAGE 53697950 NO_CROSS_PAGE: 229825525
BERTI FOUND_BERTI: 77512895 NO_FOUND_BERTI: 342977804
BERTI AVERAGE_ISSUED: 4.41749
BERTI TO_L1: 183624911 TO_L2: 99898564 TO_L2_BC_MSHR: 6187228
BERTI AVG_LAT: 445.778 NUM_TRACK_LATENCY: 18161339 NUM_CANT_TRACK_LATENCY: 56877
BERTI CROSS_PAGE 53697950 NO_CROSS_PAGE: 229825525
BERTI FOUND_BERTI: 77512895 NO_FOUND_BERTI: 342977804
BERTI AVERAGE_ISSUED: 4.41749
BERTI TO_L1: 183624911 TO_L2: 99898564 TO_L2_BC_MSHR: 6187228
BERTI AVG_LAT: 445.778 NUM_TRACK_LATENCY: 18161339 NUM_CANT_TRACK_LATENCY: 56877
BERTI CROSS_PAGE 53697950 NO_CROSS_PAGE: 229825525
BERTI FOUND_BERTI: 77512895 NO_FOUND_BERTI: 342977804
BERTI AVERAGE_ISSUED: 4.41749
