Original cmd-> /home/grads/r/rdas40/ECEN676/ChampSim/bin/multi_core/berti_2ch --warmup_instructions=50000000 --simulation_instructions=150000000  /home/grads/r/rdas40/dpc3_traces/607.cactuBSSN_s-2421B.champsimtrace.xz /home/grads/r/rdas40/dpc3_traces/627.cam4_s-573B.champsimtrace.xz /home/grads/r/rdas40/dpc3_traces/628.pop2_s-17B.champsimtrace.xz /home/grads/r/rdas40/dpc3_traces/621.wrf_s-575B.champsimtrace.xz
WARNING: physical memory size is smaller than virtual memory size.
WARNING: option --warmup_instructions is deprecated. Use --warmup-instructions instead.
WARNING: option --simulation_instructions is deprecated. Use --simulation-instructions instead.

*** ChampSim Multicore Out-of-Order Simulator ***
Warmup Instructions: 50000000
Simulation Instructions: 150000000
Number of CPUs: 4
Page size: 4096

Berti Prefetcher
BERTI HASH ORIGINAL
BERTI IP MASK ffff
Berti Prefetcher
BERTI HASH ORIGINAL
BERTI IP MASK ffff
Berti Prefetcher
BERTI HASH ORIGINAL
BERTI IP MASK ffff
Berti Prefetcher
BERTI HASH ORIGINAL
BERTI IP MASK ffff
Off-chip DRAM Size: 8 GiB Channels: 2 Width: 64-bit Data Race: 3200 MT/s
Heartbeat CPU 3 instructions: 10000002 cycles: 2502841 heartbeat IPC: 3.995 cumulative IPC: 3.995 (Simulation time: 00 hr 03 min 06 sec)
Heartbeat CPU 2 instructions: 10000000 cycles: 2639433 heartbeat IPC: 3.789 cumulative IPC: 3.789 (Simulation time: 00 hr 03 min 16 sec)
Heartbeat CPU 1 instructions: 10000003 cycles: 2696978 heartbeat IPC: 3.708 cumulative IPC: 3.708 (Simulation time: 00 hr 03 min 21 sec)
Heartbeat CPU 0 instructions: 10000001 cycles: 3840991 heartbeat IPC: 2.603 cumulative IPC: 2.603 (Simulation time: 00 hr 04 min 47 sec)
Heartbeat CPU 3 instructions: 20000000 cycles: 5005501 heartbeat IPC: 3.996 cumulative IPC: 3.996 (Simulation time: 00 hr 06 min 15 sec)
Heartbeat CPU 1 instructions: 20000001 cycles: 5210231 heartbeat IPC: 3.979 cumulative IPC: 3.839 (Simulation time: 00 hr 06 min 31 sec)
Heartbeat CPU 2 instructions: 20000000 cycles: 5278183 heartbeat IPC: 3.79 cumulative IPC: 3.789 (Simulation time: 00 hr 06 min 36 sec)
Heartbeat CPU 3 instructions: 30000003 cycles: 7507845 heartbeat IPC: 3.996 cumulative IPC: 3.996 (Simulation time: 00 hr 09 min 25 sec)
Heartbeat CPU 0 instructions: 20000002 cycles: 7678854 heartbeat IPC: 2.606 cumulative IPC: 2.605 (Simulation time: 00 hr 09 min 38 sec)
Heartbeat CPU 1 instructions: 30000000 cycles: 7723249 heartbeat IPC: 3.979 cumulative IPC: 3.884 (Simulation time: 00 hr 09 min 41 sec)
Heartbeat CPU 2 instructions: 30000003 cycles: 7916826 heartbeat IPC: 3.79 cumulative IPC: 3.789 (Simulation time: 00 hr 09 min 56 sec)
Heartbeat CPU 3 instructions: 40000001 cycles: 10010512 heartbeat IPC: 3.996 cumulative IPC: 3.996 (Simulation time: 00 hr 12 min 34 sec)
Heartbeat CPU 1 instructions: 40000003 cycles: 10239882 heartbeat IPC: 3.974 cumulative IPC: 3.906 (Simulation time: 00 hr 12 min 51 sec)
Heartbeat CPU 2 instructions: 40000002 cycles: 10555659 heartbeat IPC: 3.79 cumulative IPC: 3.789 (Simulation time: 00 hr 13 min 15 sec)
Heartbeat CPU 0 instructions: 30000002 cycles: 11517467 heartbeat IPC: 2.605 cumulative IPC: 2.605 (Simulation time: 00 hr 14 min 29 sec)
Heartbeat CPU 3 instructions: 50000003 cycles: 12513255 heartbeat IPC: 3.996 cumulative IPC: 3.996 (Simulation time: 00 hr 15 min 46 sec)
Warmup finished CPU 3 instructions: 50000003 cycles: 12513256 cumulative IPC: 3.996 (Simulation time: 00 hr 15 min 46 sec)
Heartbeat CPU 1 instructions: 50000001 cycles: 12760503 heartbeat IPC: 3.967 cumulative IPC: 3.918 (Simulation time: 00 hr 16 min 05 sec)
Warmup finished CPU 1 instructions: 50000001 cycles: 12760504 cumulative IPC: 3.918 (Simulation time: 00 hr 16 min 05 sec)
Heartbeat CPU 2 instructions: 50000002 cycles: 13195659 heartbeat IPC: 3.788 cumulative IPC: 3.789 (Simulation time: 00 hr 16 min 39 sec)
Warmup finished CPU 2 instructions: 50000002 cycles: 13195660 cumulative IPC: 3.789 (Simulation time: 00 hr 16 min 39 sec)
Heartbeat CPU 3 instructions: 60000002 cycles: 15015974 heartbeat IPC: 3.996 cumulative IPC: 3.996 (Simulation time: 00 hr 18 min 59 sec)
Heartbeat CPU 1 instructions: 60000004 cycles: 15281496 heartbeat IPC: 3.967 cumulative IPC: 3.926 (Simulation time: 00 hr 19 min 20 sec)
Heartbeat CPU 0 instructions: 40000000 cycles: 15360412 heartbeat IPC: 2.602 cumulative IPC: 2.604 (Simulation time: 00 hr 19 min 26 sec)
Heartbeat CPU 2 instructions: 60000003 cycles: 15838597 heartbeat IPC: 3.784 cumulative IPC: 3.788 (Simulation time: 00 hr 20 min 03 sec)
Heartbeat CPU 3 instructions: 70000001 cycles: 17520911 heartbeat IPC: 3.992 cumulative IPC: 3.995 (Simulation time: 00 hr 22 min 11 sec)
Heartbeat CPU 1 instructions: 70000002 cycles: 17797538 heartbeat IPC: 3.974 cumulative IPC: 3.933 (Simulation time: 00 hr 22 min 32 sec)
Heartbeat CPU 2 instructions: 70000003 cycles: 18486023 heartbeat IPC: 3.777 cumulative IPC: 3.787 (Simulation time: 00 hr 23 min 24 sec)
Heartbeat CPU 0 instructions: 50000000 cycles: 19201675 heartbeat IPC: 2.603 cumulative IPC: 2.604 (Simulation time: 00 hr 24 min 18 sec)
Warmup finished CPU 0 instructions: 50000000 cycles: 19201676 cumulative IPC: 2.604 (Simulation time: 00 hr 24 min 18 sec)
Warmup complete CPU 0 instructions: 50000000 cycles: 19201676 cumulative IPC: 2.604 (Simulation time: 00 hr 24 min 18 sec)
Warmup complete CPU 1 instructions: 75587722 cycles: 19201676 cumulative IPC: 3.937 (Simulation time: 00 hr 24 min 18 sec)
Warmup complete CPU 2 instructions: 72812403 cycles: 19201676 cumulative IPC: 3.792 (Simulation time: 00 hr 24 min 18 sec)
Warmup complete CPU 3 instructions: 76723057 cycles: 19201676 cumulative IPC: 3.996 (Simulation time: 00 hr 24 min 18 sec)
Heartbeat CPU 3 instructions: 80000000 cycles: 20736931 heartbeat IPC: 3.109 cumulative IPC: 2.134 (Simulation time: 00 hr 25 min 55 sec)
Heartbeat CPU 1 instructions: 80000003 cycles: 21065363 heartbeat IPC: 3.06 cumulative IPC: 2.368 (Simulation time: 00 hr 26 min 14 sec)
Heartbeat CPU 2 instructions: 80000000 cycles: 22084690 heartbeat IPC: 2.779 cumulative IPC: 2.493 (Simulation time: 00 hr 27 min 13 sec)
Heartbeat CPU 1 instructions: 90000003 cycles: 25047177 heartbeat IPC: 2.511 cumulative IPC: 2.466 (Simulation time: 00 hr 30 min 17 sec)
Heartbeat CPU 3 instructions: 90000004 cycles: 25440018 heartbeat IPC: 2.126 cumulative IPC: 2.128 (Simulation time: 00 hr 30 min 41 sec)
Heartbeat CPU 2 instructions: 90000001 cycles: 26139405 heartbeat IPC: 2.466 cumulative IPC: 2.477 (Simulation time: 00 hr 31 min 24 sec)
Heartbeat CPU 0 instructions: 60000004 cycles: 26717434 heartbeat IPC: 1.331 cumulative IPC: 1.331 (Simulation time: 00 hr 31 min 55 sec)
Heartbeat CPU 3 instructions: 100000000 cycles: 30149764 heartbeat IPC: 2.123 cumulative IPC: 2.126 (Simulation time: 00 hr 35 min 06 sec)
Heartbeat CPU 2 instructions: 100000002 cycles: 30405433 heartbeat IPC: 2.344 cumulative IPC: 2.427 (Simulation time: 00 hr 35 min 22 sec)
Heartbeat CPU 1 instructions: 100000001 cycles: 34247120 heartbeat IPC: 1.087 cumulative IPC: 1.623 (Simulation time: 00 hr 38 min 44 sec)
Heartbeat CPU 3 instructions: 110000001 cycles: 34850472 heartbeat IPC: 2.127 cumulative IPC: 2.126 (Simulation time: 00 hr 39 min 12 sec)
Heartbeat CPU 2 instructions: 110000001 cycles: 36831541 heartbeat IPC: 1.556 cumulative IPC: 2.109 (Simulation time: 00 hr 40 min 39 sec)
Heartbeat CPU 3 instructions: 120000000 cycles: 39506057 heartbeat IPC: 2.148 cumulative IPC: 2.131 (Simulation time: 00 hr 42 min 37 sec)
Heartbeat CPU 0 instructions: 70000000 cycles: 41808262 heartbeat IPC: 0.6627 cumulative IPC: 0.8847 (Simulation time: 00 hr 44 min 11 sec)
Heartbeat CPU 3 instructions: 130000002 cycles: 44234190 heartbeat IPC: 2.115 cumulative IPC: 2.128 (Simulation time: 00 hr 45 min 50 sec)
Heartbeat CPU 3 instructions: 140000000 cycles: 48997187 heartbeat IPC: 2.1 cumulative IPC: 2.124 (Simulation time: 00 hr 49 min 06 sec)
Heartbeat CPU 2 instructions: 120000003 cycles: 51682580 heartbeat IPC: 0.6734 cumulative IPC: 1.453 (Simulation time: 00 hr 51 min 04 sec)
Heartbeat CPU 3 instructions: 150000004 cycles: 53676134 heartbeat IPC: 2.137 cumulative IPC: 2.126 (Simulation time: 00 hr 52 min 27 sec)
Heartbeat CPU 3 instructions: 160000003 cycles: 58314900 heartbeat IPC: 2.156 cumulative IPC: 2.129 (Simulation time: 00 hr 55 min 47 sec)
Heartbeat CPU 2 instructions: 130000002 cycles: 60747656 heartbeat IPC: 1.103 cumulative IPC: 1.376 (Simulation time: 00 hr 57 min 38 sec)
Heartbeat CPU 3 instructions: 170000003 cycles: 62956994 heartbeat IPC: 2.154 cumulative IPC: 2.132 (Simulation time: 00 hr 59 min 27 sec)
Heartbeat CPU 1 instructions: 110000001 cycles: 63107243 heartbeat IPC: 0.3465 cumulative IPC: 0.7838 (Simulation time: 00 hr 59 min 34 sec)
Heartbeat CPU 0 instructions: 80000003 cycles: 65093755 heartbeat IPC: 0.4295 cumulative IPC: 0.6537 (Simulation time: 01 hr 01 min 22 sec)
Heartbeat CPU 2 instructions: 140000002 cycles: 66134396 heartbeat IPC: 1.856 cumulative IPC: 1.432 (Simulation time: 01 hr 02 min 25 sec)
Heartbeat CPU 1 instructions: 120000003 cycles: 67123403 heartbeat IPC: 2.49 cumulative IPC: 0.9268 (Simulation time: 01 hr 03 min 25 sec)
Heartbeat CPU 3 instructions: 180000004 cycles: 67552744 heartbeat IPC: 2.176 cumulative IPC: 2.136 (Simulation time: 01 hr 03 min 51 sec)
Heartbeat CPU 2 instructions: 150000000 cycles: 69721388 heartbeat IPC: 2.788 cumulative IPC: 1.528 (Simulation time: 01 hr 06 min 02 sec)
Heartbeat CPU 1 instructions: 130000001 cycles: 70556515 heartbeat IPC: 2.913 cumulative IPC: 1.06 (Simulation time: 01 hr 06 min 52 sec)
Heartbeat CPU 3 instructions: 190000002 cycles: 72164502 heartbeat IPC: 2.168 cumulative IPC: 2.139 (Simulation time: 01 hr 08 min 25 sec)
Heartbeat CPU 1 instructions: 140000000 cycles: 74013630 heartbeat IPC: 2.893 cumulative IPC: 1.175 (Simulation time: 01 hr 10 min 11 sec)
Heartbeat CPU 0 instructions: 90000002 cycles: 74611567 heartbeat IPC: 1.051 cumulative IPC: 0.7219 (Simulation time: 01 hr 10 min 49 sec)
Heartbeat CPU 2 instructions: 160000000 cycles: 74621983 heartbeat IPC: 2.041 cumulative IPC: 1.573 (Simulation time: 01 hr 10 min 49 sec)
Heartbeat CPU 3 instructions: 200000000 cycles: 76785610 heartbeat IPC: 2.164 cumulative IPC: 2.141 (Simulation time: 01 hr 13 min 00 sec)
Heartbeat CPU 2 instructions: 170000000 cycles: 78294593 heartbeat IPC: 2.723 cumulative IPC: 1.645 (Simulation time: 01 hr 14 min 33 sec)
Heartbeat CPU 1 instructions: 150000003 cycles: 78536051 heartbeat IPC: 2.211 cumulative IPC: 1.254 (Simulation time: 01 hr 14 min 47 sec)
Heartbeat CPU 3 instructions: 210000000 cycles: 81357868 heartbeat IPC: 2.187 cumulative IPC: 2.144 (Simulation time: 01 hr 17 min 32 sec)
Heartbeat CPU 0 instructions: 100000000 cycles: 82307581 heartbeat IPC: 1.299 cumulative IPC: 0.7923 (Simulation time: 01 hr 18 min 29 sec)
Heartbeat CPU 2 instructions: 180000003 cycles: 83280597 heartbeat IPC: 2.006 cumulative IPC: 1.673 (Simulation time: 01 hr 19 min 27 sec)
Heartbeat CPU 1 instructions: 160000000 cycles: 83358753 heartbeat IPC: 2.074 cumulative IPC: 1.316 (Simulation time: 01 hr 19 min 32 sec)
Heartbeat CPU 3 instructions: 220000000 cycles: 85922393 heartbeat IPC: 2.191 cumulative IPC: 2.147 (Simulation time: 01 hr 22 min 03 sec)
Heartbeat CPU 1 instructions: 170000000 cycles: 88213778 heartbeat IPC: 2.06 cumulative IPC: 1.368 (Simulation time: 01 hr 24 min 21 sec)
Heartbeat CPU 2 instructions: 190000004 cycles: 88250139 heartbeat IPC: 2.012 cumulative IPC: 1.697 (Simulation time: 01 hr 24 min 23 sec)
Simulation finished CPU 3 instructions: 150000001 cycles: 69827146 cumulative IPC: 2.148 (Simulation time: 01 hr 25 min 12 sec)
Heartbeat CPU 0 instructions: 110000003 cycles: 90073457 heartbeat IPC: 1.288 cumulative IPC: 0.8466 (Simulation time: 01 hr 26 min 17 sec)
Heartbeat CPU 3 instructions: 230000001 cycles: 90501805 heartbeat IPC: 2.184 cumulative IPC: 2.15 (Simulation time: 01 hr 26 min 44 sec)
Heartbeat CPU 1 instructions: 180000004 cycles: 92549811 heartbeat IPC: 2.306 cumulative IPC: 1.424 (Simulation time: 01 hr 28 min 47 sec)
Heartbeat CPU 2 instructions: 200000002 cycles: 93021294 heartbeat IPC: 2.096 cumulative IPC: 1.723 (Simulation time: 01 hr 29 min 16 sec)
Heartbeat CPU 3 instructions: 240000000 cycles: 95104384 heartbeat IPC: 2.173 cumulative IPC: 2.151 (Simulation time: 01 hr 31 min 24 sec)
Heartbeat CPU 1 instructions: 190000002 cycles: 96813245 heartbeat IPC: 2.346 cumulative IPC: 1.474 (Simulation time: 01 hr 33 min 12 sec)
Heartbeat CPU 0 instructions: 120000004 cycles: 97458362 heartbeat IPC: 1.354 cumulative IPC: 0.8945 (Simulation time: 01 hr 33 min 53 sec)
Heartbeat CPU 2 instructions: 210000000 cycles: 97710491 heartbeat IPC: 2.133 cumulative IPC: 1.747 (Simulation time: 01 hr 34 min 09 sec)
Heartbeat CPU 3 instructions: 250000002 cycles: 99725110 heartbeat IPC: 2.164 cumulative IPC: 2.152 (Simulation time: 01 hr 36 min 07 sec)
Heartbeat CPU 2 instructions: 220000001 cycles: 102718746 heartbeat IPC: 1.997 cumulative IPC: 1.762 (Simulation time: 01 hr 38 min 57 sec)
Heartbeat CPU 1 instructions: 200000004 cycles: 103212091 heartbeat IPC: 1.563 cumulative IPC: 1.481 (Simulation time: 01 hr 39 min 25 sec)
Simulation finished CPU 2 instructions: 150000000 cycles: 85112677 cumulative IPC: 1.762 (Simulation time: 01 hr 40 min 28 sec)
Heartbeat CPU 3 instructions: 260000000 cycles: 104367172 heartbeat IPC: 2.154 cumulative IPC: 2.152 (Simulation time: 01 hr 40 min 31 sec)
Heartbeat CPU 0 instructions: 130000000 cycles: 106232622 heartbeat IPC: 1.14 cumulative IPC: 0.9192 (Simulation time: 01 hr 42 min 04 sec)
Heartbeat CPU 3 instructions: 270000000 cycles: 109020448 heartbeat IPC: 2.149 cumulative IPC: 2.152 (Simulation time: 01 hr 44 min 05 sec)
Heartbeat CPU 2 instructions: 230000000 cycles: 112985135 heartbeat IPC: 0.9741 cumulative IPC: 1.676 (Simulation time: 01 hr 46 min 52 sec)
Heartbeat CPU 3 instructions: 280000001 cycles: 113694126 heartbeat IPC: 2.14 cumulative IPC: 2.151 (Simulation time: 01 hr 47 min 22 sec)
Heartbeat CPU 3 instructions: 290000004 cycles: 118359481 heartbeat IPC: 2.143 cumulative IPC: 2.151 (Simulation time: 01 hr 50 min 39 sec)
Heartbeat CPU 3 instructions: 300000000 cycles: 123016494 heartbeat IPC: 2.147 cumulative IPC: 2.151 (Simulation time: 01 hr 53 min 57 sec)
Heartbeat CPU 3 instructions: 310000001 cycles: 127672623 heartbeat IPC: 2.148 cumulative IPC: 2.151 (Simulation time: 01 hr 57 min 26 sec)
Heartbeat CPU 2 instructions: 240000000 cycles: 128257130 heartbeat IPC: 0.6548 cumulative IPC: 1.533 (Simulation time: 01 hr 57 min 52 sec)
Heartbeat CPU 1 instructions: 210000003 cycles: 128741825 heartbeat IPC: 0.3917 cumulative IPC: 1.227 (Simulation time: 01 hr 58 min 20 sec)
Heartbeat CPU 0 instructions: 140000002 cycles: 129549395 heartbeat IPC: 0.4289 cumulative IPC: 0.8156 (Simulation time: 01 hr 59 min 07 sec)
Heartbeat CPU 3 instructions: 320000001 cycles: 132282129 heartbeat IPC: 2.169 cumulative IPC: 2.151 (Simulation time: 02 hr 01 min 39 sec)
Heartbeat CPU 1 instructions: 220000001 cycles: 133034254 heartbeat IPC: 2.33 cumulative IPC: 1.269 (Simulation time: 02 hr 02 min 23 sec)
Heartbeat CPU 2 instructions: 250000000 cycles: 134289012 heartbeat IPC: 1.658 cumulative IPC: 1.54 (Simulation time: 02 hr 03 min 40 sec)
Simulation finished CPU 1 instructions: 150000001 cycles: 115727831 cumulative IPC: 1.296 (Simulation time: 02 hr 04 min 19 sec)
Heartbeat CPU 1 instructions: 230000001 cycles: 136458699 heartbeat IPC: 2.92 cumulative IPC: 1.317 (Simulation time: 02 hr 05 min 53 sec)
Heartbeat CPU 3 instructions: 330000001 cycles: 136901070 heartbeat IPC: 2.165 cumulative IPC: 2.152 (Simulation time: 02 hr 06 min 20 sec)
Heartbeat CPU 2 instructions: 260000001 cycles: 138956721 heartbeat IPC: 2.142 cumulative IPC: 1.563 (Simulation time: 02 hr 08 min 23 sec)
Heartbeat CPU 1 instructions: 240000000 cycles: 139877802 heartbeat IPC: 2.925 cumulative IPC: 1.362 (Simulation time: 02 hr 09 min 21 sec)
Heartbeat CPU 0 instructions: 150000004 cycles: 139973766 heartbeat IPC: 0.9593 cumulative IPC: 0.828 (Simulation time: 02 hr 09 min 28 sec)
Heartbeat CPU 3 instructions: 340000000 cycles: 142385854 heartbeat IPC: 1.823 cumulative IPC: 2.137 (Simulation time: 02 hr 12 min 01 sec)
Heartbeat CPU 2 instructions: 270000001 cycles: 143036007 heartbeat IPC: 2.451 cumulative IPC: 1.592 (Simulation time: 02 hr 12 min 41 sec)
Heartbeat CPU 1 instructions: 250000004 cycles: 144025140 heartbeat IPC: 2.411 cumulative IPC: 1.397 (Simulation time: 02 hr 13 min 41 sec)
Heartbeat CPU 2 instructions: 280000002 cycles: 147368299 heartbeat IPC: 2.308 cumulative IPC: 1.617 (Simulation time: 02 hr 17 min 05 sec)
Heartbeat CPU 3 instructions: 350000002 cycles: 147657173 heartbeat IPC: 1.897 cumulative IPC: 2.127 (Simulation time: 02 hr 17 min 23 sec)
Heartbeat CPU 0 instructions: 160000004 cycles: 148008909 heartbeat IPC: 1.245 cumulative IPC: 0.854 (Simulation time: 02 hr 17 min 44 sec)
Heartbeat CPU 1 instructions: 260000004 cycles: 148949858 heartbeat IPC: 2.031 cumulative IPC: 1.421 (Simulation time: 02 hr 18 min 40 sec)
Heartbeat CPU 2 instructions: 290000002 cycles: 151809851 heartbeat IPC: 2.251 cumulative IPC: 1.638 (Simulation time: 02 hr 21 min 30 sec)
Heartbeat CPU 3 instructions: 360000003 cycles: 152800823 heartbeat IPC: 1.944 cumulative IPC: 2.12 (Simulation time: 02 hr 22 min 26 sec)
Heartbeat CPU 1 instructions: 270000000 cycles: 154134130 heartbeat IPC: 1.929 cumulative IPC: 1.441 (Simulation time: 02 hr 23 min 42 sec)
Heartbeat CPU 2 instructions: 300000000 cycles: 156738732 heartbeat IPC: 2.029 cumulative IPC: 1.652 (Simulation time: 02 hr 26 min 14 sec)
Heartbeat CPU 3 instructions: 370000000 cycles: 157879564 heartbeat IPC: 1.969 cumulative IPC: 2.115 (Simulation time: 02 hr 27 min 21 sec)
Heartbeat CPU 0 instructions: 170000000 cycles: 158293273 heartbeat IPC: 0.9723 cumulative IPC: 0.8627 (Simulation time: 02 hr 27 min 44 sec)
Heartbeat CPU 1 instructions: 280000001 cycles: 158704614 heartbeat IPC: 2.188 cumulative IPC: 1.465 (Simulation time: 02 hr 28 min 07 sec)
Heartbeat CPU 2 instructions: 310000002 cycles: 161762473 heartbeat IPC: 1.991 cumulative IPC: 1.664 (Simulation time: 02 hr 31 min 00 sec)
Heartbeat CPU 3 instructions: 380000002 cycles: 162927823 heartbeat IPC: 1.981 cumulative IPC: 2.11 (Simulation time: 02 hr 32 min 06 sec)
Heartbeat CPU 1 instructions: 290000003 cycles: 163963212 heartbeat IPC: 1.902 cumulative IPC: 1.481 (Simulation time: 02 hr 33 min 03 sec)
Heartbeat CPU 2 instructions: 320000003 cycles: 166117493 heartbeat IPC: 2.296 cumulative IPC: 1.683 (Simulation time: 02 hr 35 min 14 sec)
Heartbeat CPU 0 instructions: 180000001 cycles: 171385672 heartbeat IPC: 0.7638 cumulative IPC: 0.8542 (Simulation time: 02 hr 38 min 57 sec)
Heartbeat CPU 2 instructions: 330000002 cycles: 174402080 heartbeat IPC: 1.207 cumulative IPC: 1.657 (Simulation time: 02 hr 40 min 58 sec)
Heartbeat CPU 1 instructions: 300000002 cycles: 175856563 heartbeat IPC: 0.8408 cumulative IPC: 1.433 (Simulation time: 02 hr 42 min 02 sec)
Heartbeat CPU 3 instructions: 390000001 cycles: 176327291 heartbeat IPC: 0.7463 cumulative IPC: 1.994 (Simulation time: 02 hr 42 min 25 sec)
Heartbeat CPU 2 instructions: 340000000 cycles: 181345994 heartbeat IPC: 1.44 cumulative IPC: 1.648 (Simulation time: 02 hr 46 min 44 sec)
Heartbeat CPU 3 instructions: 400000003 cycles: 181437468 heartbeat IPC: 1.957 cumulative IPC: 1.993 (Simulation time: 02 hr 46 min 50 sec)
Heartbeat CPU 0 instructions: 190000003 cycles: 188107965 heartbeat IPC: 0.598 cumulative IPC: 0.8289 (Simulation time: 02 hr 51 min 54 sec)
Heartbeat CPU 3 instructions: 410000003 cycles: 188194731 heartbeat IPC: 1.48 cumulative IPC: 1.972 (Simulation time: 02 hr 51 min 58 sec)
Heartbeat CPU 2 instructions: 350000000 cycles: 188942885 heartbeat IPC: 1.316 cumulative IPC: 1.633 (Simulation time: 02 hr 52 min 29 sec)
Heartbeat CPU 3 instructions: 420000001 cycles: 196290168 heartbeat IPC: 1.235 cumulative IPC: 1.938 (Simulation time: 02 hr 57 min 39 sec)
Heartbeat CPU 3 instructions: 430000004 cycles: 204346013 heartbeat IPC: 1.241 cumulative IPC: 1.908 (Simulation time: 03 hr 02 min 59 sec)
Heartbeat CPU 2 instructions: 360000002 cycles: 207434772 heartbeat IPC: 0.5408 cumulative IPC: 1.526 (Simulation time: 03 hr 05 min 09 sec)
Heartbeat CPU 1 instructions: 310000002 cycles: 207883205 heartbeat IPC: 0.3122 cumulative IPC: 1.242 (Simulation time: 03 hr 05 min 30 sec)
Heartbeat CPU 3 instructions: 440000003 cycles: 210873190 heartbeat IPC: 1.532 cumulative IPC: 1.895 (Simulation time: 03 hr 08 min 18 sec)
Heartbeat CPU 0 instructions: 200000002 cycles: 212069590 heartbeat IPC: 0.4173 cumulative IPC: 0.7777 (Simulation time: 03 hr 09 min 21 sec)
Simulation finished CPU 0 instructions: 150000002 cycles: 192867915 cumulative IPC: 0.7777 (Simulation time: 03 hr 09 min 21 sec)
Simulation complete CPU 0 instructions: 150000002 cycles: 192867915 cumulative IPC: 0.7777 (Simulation time: 03 hr 09 min 21 sec)
Simulation complete CPU 1 instructions: 242120718 cycles: 192867915 cumulative IPC: 1.255 (Simulation time: 03 hr 09 min 21 sec)
Simulation complete CPU 2 instructions: 292917627 cycles: 192867915 cumulative IPC: 1.519 (Simulation time: 03 hr 09 min 21 sec)
Simulation complete CPU 3 instructions: 365230397 cycles: 192867915 cumulative IPC: 1.894 (Simulation time: 03 hr 09 min 21 sec)

ChampSim completed all CPUs

=== Simulation ===
CPU 0 runs /home/grads/r/rdas40/dpc3_traces/607.cactuBSSN_s-2421B.champsimtrace.xzCPU 1 runs /home/grads/r/rdas40/dpc3_traces/627.cam4_s-573B.champsimtrace.xzCPU 2 runs /home/grads/r/rdas40/dpc3_traces/628.pop2_s-17B.champsimtrace.xzCPU 3 runs /home/grads/r/rdas40/dpc3_traces/621.wrf_s-575B.champsimtrace.xz
Total Simulation Statistics (not including warmup)

CPU 0 cumulative IPC: 0.7777 instructions: 150000002 cycles: 192867915
CPU 0 Branch Prediction Accuracy: 97.89% MPKI: 0.03077 Average ROB Occupancy at Mispredict: 116.1
Branch type MPKI
BRANCH_DIRECT_JUMP: 0.0002
BRANCH_INDIRECT: 0.000567
BRANCH_CONDITIONAL: 0.0181
BRANCH_DIRECT_CALL: 0.00413
BRANCH_INDIRECT_CALL: 2e-05
BRANCH_RETURN: 0.00774


CPU 1 cumulative IPC: 1.255 instructions: 242120718 cycles: 192867915
CPU 1 Branch Prediction Accuracy: 94.79% MPKI: 7.198 Average ROB Occupancy at Mispredict: 63.64
Branch type MPKI
BRANCH_DIRECT_JUMP: 0.00678
BRANCH_INDIRECT: 0.00213
BRANCH_CONDITIONAL: 6.59
BRANCH_DIRECT_CALL: 0.0236
BRANCH_INDIRECT_CALL: 0
BRANCH_RETURN: 0.578


CPU 2 cumulative IPC: 1.519 instructions: 292917627 cycles: 192867915
CPU 2 Branch Prediction Accuracy: 97.64% MPKI: 3.914 Average ROB Occupancy at Mispredict: 92.65
Branch type MPKI
BRANCH_DIRECT_JUMP: 0.025
BRANCH_INDIRECT: 0.000556
BRANCH_CONDITIONAL: 3.83
BRANCH_DIRECT_CALL: 0.000884
BRANCH_INDIRECT_CALL: 0
BRANCH_RETURN: 0.0603


CPU 3 cumulative IPC: 1.894 instructions: 365230397 cycles: 192867915
CPU 3 Branch Prediction Accuracy: 95.35% MPKI: 6.026 Average ROB Occupancy at Mispredict: 85.68
Branch type MPKI
BRANCH_DIRECT_JUMP: 0.000389
BRANCH_INDIRECT: 8.21e-06
BRANCH_CONDITIONAL: 5.93
BRANCH_DIRECT_CALL: 0.00168
BRANCH_INDIRECT_CALL: 0
BRANCH_RETURN: 0.0942

LLC TOTAL        ACCESS:    1706164 HIT:     538641 MISS:    1167523
LLC LOAD         ACCESS:    1530721 HIT:     378992 MISS:    1151729
LLC RFO          ACCESS:       4607 HIT:       3499 MISS:       1108
LLC PREFETCH     ACCESS:        104 HIT:          7 MISS:         97
LLC WRITE        ACCESS:     147955 HIT:     147881 MISS:         74
LLC TRANSLATION  ACCESS:      22777 HIT:       8262 MISS:      14515
LLC PREFETCH REQUESTED:          0 ISSUED:          0 USEFUL:          0 USELESS:          0
LLC AVERAGE MISS LATENCY: 1452 cycles
LLC TOTAL        ACCESS:    3169412 HIT:    1547543 MISS:    1621869
LLC LOAD         ACCESS:     151099 HIT:      31458 MISS:     119641
LLC RFO          ACCESS:    1455699 HIT:      32876 MISS:    1422823
LLC PREFETCH     ACCESS:      81424 HIT:      24441 MISS:      56983
LLC WRITE        ACCESS:    1476487 HIT:    1458274 MISS:      18213
LLC TRANSLATION  ACCESS:       4703 HIT:        494 MISS:       4209
LLC PREFETCH REQUESTED:          0 ISSUED:          0 USEFUL:          0 USELESS:          0
LLC AVERAGE MISS LATENCY: 1452 cycles
LLC TOTAL        ACCESS:    2797444 HIT:    1722245 MISS:    1075199
LLC LOAD         ACCESS:     649581 HIT:     445275 MISS:     204306
LLC RFO          ACCESS:     610866 HIT:     173937 MISS:     436929
LLC PREFETCH     ACCESS:     679642 HIT:     259451 MISS:     420191
LLC WRITE        ACCESS:     850324 HIT:     841610 MISS:       8714
LLC TRANSLATION  ACCESS:       7031 HIT:       1972 MISS:       5059
LLC PREFETCH REQUESTED:          0 ISSUED:          0 USEFUL:          0 USELESS:          0
LLC AVERAGE MISS LATENCY: 1452 cycles
LLC TOTAL        ACCESS:     482351 HIT:     248998 MISS:     233353
LLC LOAD         ACCESS:      60144 HIT:      24348 MISS:      35796
LLC RFO          ACCESS:     170418 HIT:      50172 MISS:     120246
LLC PREFETCH     ACCESS:      67568 HIT:      10367 MISS:      57201
LLC WRITE        ACCESS:     183081 HIT:     163752 MISS:      19329
LLC TRANSLATION  ACCESS:       1140 HIT:        359 MISS:        781
LLC PREFETCH REQUESTED:          0 ISSUED:          0 USEFUL:          0 USELESS:          0
LLC AVERAGE MISS LATENCY: 1452 cycles
cpu0_DTLB TOTAL        ACCESS:   31589839 HIT:   18425780 MISS:   13164059
cpu0_DTLB LOAD         ACCESS:   31589839 HIT:   18425780 MISS:   13164059
cpu0_DTLB RFO          ACCESS:          0 HIT:          0 MISS:          0
cpu0_DTLB PREFETCH     ACCESS:          0 HIT:          0 MISS:          0
cpu0_DTLB WRITE        ACCESS:          0 HIT:          0 MISS:          0
cpu0_DTLB TRANSLATION  ACCESS:          0 HIT:          0 MISS:          0
cpu0_DTLB PREFETCH REQUESTED:          0 ISSUED:          0 USEFUL:          0 USELESS:          0
cpu0_DTLB AVERAGE MISS LATENCY: 7.633 cycles
cpu0_DTLB TOTAL        ACCESS:          0 HIT:          0 MISS:          0
cpu0_DTLB LOAD         ACCESS:          0 HIT:          0 MISS:          0
cpu0_DTLB RFO          ACCESS:          0 HIT:          0 MISS:          0
cpu0_DTLB PREFETCH     ACCESS:          0 HIT:          0 MISS:          0
cpu0_DTLB WRITE        ACCESS:          0 HIT:          0 MISS:          0
cpu0_DTLB TRANSLATION  ACCESS:          0 HIT:          0 MISS:          0
cpu0_DTLB PREFETCH REQUESTED:          0 ISSUED:          0 USEFUL:          0 USELESS:          0
cpu0_DTLB AVERAGE MISS LATENCY: 7.633 cycles
cpu0_DTLB TOTAL        ACCESS:          0 HIT:          0 MISS:          0
cpu0_DTLB LOAD         ACCESS:          0 HIT:          0 MISS:          0
cpu0_DTLB RFO          ACCESS:          0 HIT:          0 MISS:          0
cpu0_DTLB PREFETCH     ACCESS:          0 HIT:          0 MISS:          0
cpu0_DTLB WRITE        ACCESS:          0 HIT:          0 MISS:          0
cpu0_DTLB TRANSLATION  ACCESS:          0 HIT:          0 MISS:          0
cpu0_DTLB PREFETCH REQUESTED:          0 ISSUED:          0 USEFUL:          0 USELESS:          0
cpu0_DTLB AVERAGE MISS LATENCY: 7.633 cycles
cpu0_DTLB TOTAL        ACCESS:          0 HIT:          0 MISS:          0
cpu0_DTLB LOAD         ACCESS:          0 HIT:          0 MISS:          0
cpu0_DTLB RFO          ACCESS:          0 HIT:          0 MISS:          0
cpu0_DTLB PREFETCH     ACCESS:          0 HIT:          0 MISS:          0
cpu0_DTLB WRITE        ACCESS:          0 HIT:          0 MISS:          0
cpu0_DTLB TRANSLATION  ACCESS:          0 HIT:          0 MISS:          0
cpu0_DTLB PREFETCH REQUESTED:          0 ISSUED:          0 USEFUL:          0 USELESS:          0
cpu0_DTLB AVERAGE MISS LATENCY: 7.633 cycles
cpu0_ITLB TOTAL        ACCESS:   19747903 HIT:   19747816 MISS:         87
cpu0_ITLB LOAD         ACCESS:   19747903 HIT:   19747816 MISS:         87
cpu0_ITLB RFO          ACCESS:          0 HIT:          0 MISS:          0
cpu0_ITLB PREFETCH     ACCESS:          0 HIT:          0 MISS:          0
cpu0_ITLB WRITE        ACCESS:          0 HIT:          0 MISS:          0
cpu0_ITLB TRANSLATION  ACCESS:          0 HIT:          0 MISS:          0
cpu0_ITLB PREFETCH REQUESTED:          0 ISSUED:          0 USEFUL:          0 USELESS:          0
cpu0_ITLB AVERAGE MISS LATENCY: 223.1 cycles
cpu0_ITLB TOTAL        ACCESS:          0 HIT:          0 MISS:          0
cpu0_ITLB LOAD         ACCESS:          0 HIT:          0 MISS:          0
cpu0_ITLB RFO          ACCESS:          0 HIT:          0 MISS:          0
cpu0_ITLB PREFETCH     ACCESS:          0 HIT:          0 MISS:          0
cpu0_ITLB WRITE        ACCESS:          0 HIT:          0 MISS:          0
cpu0_ITLB TRANSLATION  ACCESS:          0 HIT:          0 MISS:          0
cpu0_ITLB PREFETCH REQUESTED:          0 ISSUED:          0 USEFUL:          0 USELESS:          0
cpu0_ITLB AVERAGE MISS LATENCY: 223.1 cycles
cpu0_ITLB TOTAL        ACCESS:          0 HIT:          0 MISS:          0
cpu0_ITLB LOAD         ACCESS:          0 HIT:          0 MISS:          0
cpu0_ITLB RFO          ACCESS:          0 HIT:          0 MISS:          0
cpu0_ITLB PREFETCH     ACCESS:          0 HIT:          0 MISS:          0
cpu0_ITLB WRITE        ACCESS:          0 HIT:          0 MISS:          0
cpu0_ITLB TRANSLATION  ACCESS:          0 HIT:          0 MISS:          0
cpu0_ITLB PREFETCH REQUESTED:          0 ISSUED:          0 USEFUL:          0 USELESS:          0
cpu0_ITLB AVERAGE MISS LATENCY: 223.1 cycles
cpu0_ITLB TOTAL        ACCESS:          0 HIT:          0 MISS:          0
cpu0_ITLB LOAD         ACCESS:          0 HIT:          0 MISS:          0
cpu0_ITLB RFO          ACCESS:          0 HIT:          0 MISS:          0
cpu0_ITLB PREFETCH     ACCESS:          0 HIT:          0 MISS:          0
cpu0_ITLB WRITE        ACCESS:          0 HIT:          0 MISS:          0
cpu0_ITLB TRANSLATION  ACCESS:          0 HIT:          0 MISS:          0
cpu0_ITLB PREFETCH REQUESTED:          0 ISSUED:          0 USEFUL:          0 USELESS:          0
cpu0_ITLB AVERAGE MISS LATENCY: 223.1 cycles
cpu0_L1D TOTAL        ACCESS:   39272763 HIT:   21903633 MISS:   17369130
cpu0_L1D LOAD         ACCESS:   22172853 HIT:    5744414 MISS:   16428439
cpu0_L1D RFO          ACCESS:          0 HIT:          0 MISS:          0
cpu0_L1D PREFETCH     ACCESS:       1901 HIT:       1133 MISS:        768
cpu0_L1D WRITE        ACCESS:   17069487 HIT:   16157804 MISS:     911683
cpu0_L1D TRANSLATION  ACCESS:      28522 HIT:        282 MISS:      28240
cpu0_L1D PREFETCH REQUESTED:       1901 ISSUED:       1901 USEFUL:         11 USELESS:          6
cpu0_L1D AVERAGE MISS LATENCY: 119.1 cycles
cpu0_L1D TOTAL        ACCESS:          0 HIT:          0 MISS:          0
cpu0_L1D LOAD         ACCESS:          0 HIT:          0 MISS:          0
cpu0_L1D RFO          ACCESS:          0 HIT:          0 MISS:          0
cpu0_L1D PREFETCH     ACCESS:          0 HIT:          0 MISS:          0
cpu0_L1D WRITE        ACCESS:          0 HIT:          0 MISS:          0
cpu0_L1D TRANSLATION  ACCESS:          0 HIT:          0 MISS:          0
cpu0_L1D PREFETCH REQUESTED:       1901 ISSUED:       1901 USEFUL:         11 USELESS:          6
cpu0_L1D AVERAGE MISS LATENCY: 119.1 cycles
cpu0_L1D TOTAL        ACCESS:          0 HIT:          0 MISS:          0
cpu0_L1D LOAD         ACCESS:          0 HIT:          0 MISS:          0
cpu0_L1D RFO          ACCESS:          0 HIT:          0 MISS:          0
cpu0_L1D PREFETCH     ACCESS:          0 HIT:          0 MISS:          0
cpu0_L1D WRITE        ACCESS:          0 HIT:          0 MISS:          0
cpu0_L1D TRANSLATION  ACCESS:          0 HIT:          0 MISS:          0
cpu0_L1D PREFETCH REQUESTED:       1901 ISSUED:       1901 USEFUL:         11 USELESS:          6
cpu0_L1D AVERAGE MISS LATENCY: 119.1 cycles
cpu0_L1D TOTAL        ACCESS:          0 HIT:          0 MISS:          0
cpu0_L1D LOAD         ACCESS:          0 HIT:          0 MISS:          0
cpu0_L1D RFO          ACCESS:          0 HIT:          0 MISS:          0
cpu0_L1D PREFETCH     ACCESS:          0 HIT:          0 MISS:          0
cpu0_L1D WRITE        ACCESS:          0 HIT:          0 MISS:          0
cpu0_L1D TRANSLATION  ACCESS:          0 HIT:          0 MISS:          0
cpu0_L1D PREFETCH REQUESTED:       1901 ISSUED:       1901 USEFUL:         11 USELESS:          6
cpu0_L1D AVERAGE MISS LATENCY: 119.1 cycles
cpu0_L1I TOTAL        ACCESS:   25670713 HIT:   25594218 MISS:      76495
cpu0_L1I LOAD         ACCESS:   25670713 HIT:   25594218 MISS:      76495
cpu0_L1I RFO          ACCESS:          0 HIT:          0 MISS:          0
cpu0_L1I PREFETCH     ACCESS:          0 HIT:          0 MISS:          0
cpu0_L1I WRITE        ACCESS:          0 HIT:          0 MISS:          0
cpu0_L1I TRANSLATION  ACCESS:          0 HIT:          0 MISS:          0
cpu0_L1I PREFETCH REQUESTED:          0 ISSUED:          0 USEFUL:          0 USELESS:          0
cpu0_L1I AVERAGE MISS LATENCY: 8.762 cycles
cpu0_L1I TOTAL        ACCESS:          0 HIT:          0 MISS:          0
cpu0_L1I LOAD         ACCESS:          0 HIT:          0 MISS:          0
cpu0_L1I RFO          ACCESS:          0 HIT:          0 MISS:          0
cpu0_L1I PREFETCH     ACCESS:          0 HIT:          0 MISS:          0
cpu0_L1I WRITE        ACCESS:          0 HIT:          0 MISS:          0
cpu0_L1I TRANSLATION  ACCESS:          0 HIT:          0 MISS:          0
cpu0_L1I PREFETCH REQUESTED:          0 ISSUED:          0 USEFUL:          0 USELESS:          0
cpu0_L1I AVERAGE MISS LATENCY: 8.762 cycles
cpu0_L1I TOTAL        ACCESS:          0 HIT:          0 MISS:          0
cpu0_L1I LOAD         ACCESS:          0 HIT:          0 MISS:          0
cpu0_L1I RFO          ACCESS:          0 HIT:          0 MISS:          0
cpu0_L1I PREFETCH     ACCESS:          0 HIT:          0 MISS:          0
cpu0_L1I WRITE        ACCESS:          0 HIT:          0 MISS:          0
cpu0_L1I TRANSLATION  ACCESS:          0 HIT:          0 MISS:          0
cpu0_L1I PREFETCH REQUESTED:          0 ISSUED:          0 USEFUL:          0 USELESS:          0
cpu0_L1I AVERAGE MISS LATENCY: 8.762 cycles
cpu0_L1I TOTAL        ACCESS:          0 HIT:          0 MISS:          0
cpu0_L1I LOAD         ACCESS:          0 HIT:          0 MISS:          0
cpu0_L1I RFO          ACCESS:          0 HIT:          0 MISS:          0
cpu0_L1I PREFETCH     ACCESS:          0 HIT:          0 MISS:          0
cpu0_L1I WRITE        ACCESS:          0 HIT:          0 MISS:          0
cpu0_L1I TRANSLATION  ACCESS:          0 HIT:          0 MISS:          0
cpu0_L1I PREFETCH REQUESTED:          0 ISSUED:          0 USEFUL:          0 USELESS:          0
cpu0_L1I AVERAGE MISS LATENCY: 8.762 cycles
cpu0_L2C TOTAL        ACCESS:   18283135 HIT:   16724858 MISS:    1558277
cpu0_L2C LOAD         ACCESS:   16280529 HIT:   14749791 MISS:    1530738
cpu0_L2C RFO          ACCESS:     679452 HIT:     674825 MISS:       4627
cpu0_L2C PREFETCH     ACCESS:        765 HIT:        631 MISS:        134
cpu0_L2C WRITE        ACCESS:    1294182 HIT:    1294181 MISS:          1
cpu0_L2C TRANSLATION  ACCESS:      28207 HIT:       5430 MISS:      22777
cpu0_L2C PREFETCH REQUESTED:          0 ISSUED:          0 USEFUL:          0 USELESS:          0
cpu0_L2C AVERAGE MISS LATENCY: 1215 cycles
cpu0_L2C TOTAL        ACCESS:          0 HIT:          0 MISS:          0
cpu0_L2C LOAD         ACCESS:          0 HIT:          0 MISS:          0
cpu0_L2C RFO          ACCESS:          0 HIT:          0 MISS:          0
cpu0_L2C PREFETCH     ACCESS:          0 HIT:          0 MISS:          0
cpu0_L2C WRITE        ACCESS:          0 HIT:          0 MISS:          0
cpu0_L2C TRANSLATION  ACCESS:          0 HIT:          0 MISS:          0
cpu0_L2C PREFETCH REQUESTED:          0 ISSUED:          0 USEFUL:          0 USELESS:          0
cpu0_L2C AVERAGE MISS LATENCY: 1215 cycles
cpu0_L2C TOTAL        ACCESS:          0 HIT:          0 MISS:          0
cpu0_L2C LOAD         ACCESS:          0 HIT:          0 MISS:          0
cpu0_L2C RFO          ACCESS:          0 HIT:          0 MISS:          0
cpu0_L2C PREFETCH     ACCESS:          0 HIT:          0 MISS:          0
cpu0_L2C WRITE        ACCESS:          0 HIT:          0 MISS:          0
cpu0_L2C TRANSLATION  ACCESS:          0 HIT:          0 MISS:          0
cpu0_L2C PREFETCH REQUESTED:          0 ISSUED:          0 USEFUL:          0 USELESS:          0
cpu0_L2C AVERAGE MISS LATENCY: 1215 cycles
cpu0_L2C TOTAL        ACCESS:          0 HIT:          0 MISS:          0
cpu0_L2C LOAD         ACCESS:          0 HIT:          0 MISS:          0
cpu0_L2C RFO          ACCESS:          0 HIT:          0 MISS:          0
cpu0_L2C PREFETCH     ACCESS:          0 HIT:          0 MISS:          0
cpu0_L2C WRITE        ACCESS:          0 HIT:          0 MISS:          0
cpu0_L2C TRANSLATION  ACCESS:          0 HIT:          0 MISS:          0
cpu0_L2C PREFETCH REQUESTED:          0 ISSUED:          0 USEFUL:          0 USELESS:          0
cpu0_L2C AVERAGE MISS LATENCY: 1215 cycles
cpu0_STLB TOTAL        ACCESS:   11239483 HIT:   11221138 MISS:      18345
cpu0_STLB LOAD         ACCESS:   11239483 HIT:   11221138 MISS:      18345
cpu0_STLB RFO          ACCESS:          0 HIT:          0 MISS:          0
cpu0_STLB PREFETCH     ACCESS:          0 HIT:          0 MISS:          0
cpu0_STLB WRITE        ACCESS:          0 HIT:          0 MISS:          0
cpu0_STLB TRANSLATION  ACCESS:          0 HIT:          0 MISS:          0
cpu0_STLB PREFETCH REQUESTED:          0 ISSUED:          0 USEFUL:          0 USELESS:          0
cpu0_STLB AVERAGE MISS LATENCY: 1175 cycles
cpu0_STLB TOTAL        ACCESS:          0 HIT:          0 MISS:          0
cpu0_STLB LOAD         ACCESS:          0 HIT:          0 MISS:          0
cpu0_STLB RFO          ACCESS:          0 HIT:          0 MISS:          0
cpu0_STLB PREFETCH     ACCESS:          0 HIT:          0 MISS:          0
cpu0_STLB WRITE        ACCESS:          0 HIT:          0 MISS:          0
cpu0_STLB TRANSLATION  ACCESS:          0 HIT:          0 MISS:          0
cpu0_STLB PREFETCH REQUESTED:          0 ISSUED:          0 USEFUL:          0 USELESS:          0
cpu0_STLB AVERAGE MISS LATENCY: 1175 cycles
cpu0_STLB TOTAL        ACCESS:          0 HIT:          0 MISS:          0
cpu0_STLB LOAD         ACCESS:          0 HIT:          0 MISS:          0
cpu0_STLB RFO          ACCESS:          0 HIT:          0 MISS:          0
cpu0_STLB PREFETCH     ACCESS:          0 HIT:          0 MISS:          0
cpu0_STLB WRITE        ACCESS:          0 HIT:          0 MISS:          0
cpu0_STLB TRANSLATION  ACCESS:          0 HIT:          0 MISS:          0
cpu0_STLB PREFETCH REQUESTED:          0 ISSUED:          0 USEFUL:          0 USELESS:          0
cpu0_STLB AVERAGE MISS LATENCY: 1175 cycles
cpu0_STLB TOTAL        ACCESS:          0 HIT:          0 MISS:          0
cpu0_STLB LOAD         ACCESS:          0 HIT:          0 MISS:          0
cpu0_STLB RFO          ACCESS:          0 HIT:          0 MISS:          0
cpu0_STLB PREFETCH     ACCESS:          0 HIT:          0 MISS:          0
cpu0_STLB WRITE        ACCESS:          0 HIT:          0 MISS:          0
cpu0_STLB TRANSLATION  ACCESS:          0 HIT:          0 MISS:          0
cpu0_STLB PREFETCH REQUESTED:          0 ISSUED:          0 USEFUL:          0 USELESS:          0
cpu0_STLB AVERAGE MISS LATENCY: 1175 cycles
cpu1_DTLB TOTAL        ACCESS:          0 HIT:          0 MISS:          0
cpu1_DTLB LOAD         ACCESS:          0 HIT:          0 MISS:          0
cpu1_DTLB RFO          ACCESS:          0 HIT:          0 MISS:          0
cpu1_DTLB PREFETCH     ACCESS:          0 HIT:          0 MISS:          0
cpu1_DTLB WRITE        ACCESS:          0 HIT:          0 MISS:          0
cpu1_DTLB TRANSLATION  ACCESS:          0 HIT:          0 MISS:          0
cpu1_DTLB PREFETCH REQUESTED:          0 ISSUED:          0 USEFUL:          0 USELESS:          0
cpu1_DTLB AVERAGE MISS LATENCY: 8.848 cycles
cpu1_DTLB TOTAL        ACCESS:   35963869 HIT:   35540739 MISS:     423130
cpu1_DTLB LOAD         ACCESS:   35963869 HIT:   35540739 MISS:     423130
cpu1_DTLB RFO          ACCESS:          0 HIT:          0 MISS:          0
cpu1_DTLB PREFETCH     ACCESS:          0 HIT:          0 MISS:          0
cpu1_DTLB WRITE        ACCESS:          0 HIT:          0 MISS:          0
cpu1_DTLB TRANSLATION  ACCESS:          0 HIT:          0 MISS:          0
cpu1_DTLB PREFETCH REQUESTED:          0 ISSUED:          0 USEFUL:          0 USELESS:          0
cpu1_DTLB AVERAGE MISS LATENCY: 8.848 cycles
cpu1_DTLB TOTAL        ACCESS:          0 HIT:          0 MISS:          0
cpu1_DTLB LOAD         ACCESS:          0 HIT:          0 MISS:          0
cpu1_DTLB RFO          ACCESS:          0 HIT:          0 MISS:          0
cpu1_DTLB PREFETCH     ACCESS:          0 HIT:          0 MISS:          0
cpu1_DTLB WRITE        ACCESS:          0 HIT:          0 MISS:          0
cpu1_DTLB TRANSLATION  ACCESS:          0 HIT:          0 MISS:          0
cpu1_DTLB PREFETCH REQUESTED:          0 ISSUED:          0 USEFUL:          0 USELESS:          0
cpu1_DTLB AVERAGE MISS LATENCY: 8.848 cycles
cpu1_DTLB TOTAL        ACCESS:          0 HIT:          0 MISS:          0
cpu1_DTLB LOAD         ACCESS:          0 HIT:          0 MISS:          0
cpu1_DTLB RFO          ACCESS:          0 HIT:          0 MISS:          0
cpu1_DTLB PREFETCH     ACCESS:          0 HIT:          0 MISS:          0
cpu1_DTLB WRITE        ACCESS:          0 HIT:          0 MISS:          0
cpu1_DTLB TRANSLATION  ACCESS:          0 HIT:          0 MISS:          0
cpu1_DTLB PREFETCH REQUESTED:          0 ISSUED:          0 USEFUL:          0 USELESS:          0
cpu1_DTLB AVERAGE MISS LATENCY: 8.848 cycles
cpu1_ITLB TOTAL        ACCESS:          0 HIT:          0 MISS:          0
cpu1_ITLB LOAD         ACCESS:          0 HIT:          0 MISS:          0
cpu1_ITLB RFO          ACCESS:          0 HIT:          0 MISS:          0
cpu1_ITLB PREFETCH     ACCESS:          0 HIT:          0 MISS:          0
cpu1_ITLB WRITE        ACCESS:          0 HIT:          0 MISS:          0
cpu1_ITLB TRANSLATION  ACCESS:          0 HIT:          0 MISS:          0
cpu1_ITLB PREFETCH REQUESTED:          0 ISSUED:          0 USEFUL:          0 USELESS:          0
cpu1_ITLB AVERAGE MISS LATENCY: 67.12 cycles
cpu1_ITLB TOTAL        ACCESS:    4545647 HIT:    4539826 MISS:       5821
cpu1_ITLB LOAD         ACCESS:    4545647 HIT:    4539826 MISS:       5821
cpu1_ITLB RFO          ACCESS:          0 HIT:          0 MISS:          0
cpu1_ITLB PREFETCH     ACCESS:          0 HIT:          0 MISS:          0
cpu1_ITLB WRITE        ACCESS:          0 HIT:          0 MISS:          0
cpu1_ITLB TRANSLATION  ACCESS:          0 HIT:          0 MISS:          0
cpu1_ITLB PREFETCH REQUESTED:          0 ISSUED:          0 USEFUL:          0 USELESS:          0
cpu1_ITLB AVERAGE MISS LATENCY: 67.12 cycles
cpu1_ITLB TOTAL        ACCESS:          0 HIT:          0 MISS:          0
cpu1_ITLB LOAD         ACCESS:          0 HIT:          0 MISS:          0
cpu1_ITLB RFO          ACCESS:          0 HIT:          0 MISS:          0
cpu1_ITLB PREFETCH     ACCESS:          0 HIT:          0 MISS:          0
cpu1_ITLB WRITE        ACCESS:          0 HIT:          0 MISS:          0
cpu1_ITLB TRANSLATION  ACCESS:          0 HIT:          0 MISS:          0
cpu1_ITLB PREFETCH REQUESTED:          0 ISSUED:          0 USEFUL:          0 USELESS:          0
cpu1_ITLB AVERAGE MISS LATENCY: 67.12 cycles
cpu1_ITLB TOTAL        ACCESS:          0 HIT:          0 MISS:          0
cpu1_ITLB LOAD         ACCESS:          0 HIT:          0 MISS:          0
cpu1_ITLB RFO          ACCESS:          0 HIT:          0 MISS:          0
cpu1_ITLB PREFETCH     ACCESS:          0 HIT:          0 MISS:          0
cpu1_ITLB WRITE        ACCESS:          0 HIT:          0 MISS:          0
cpu1_ITLB TRANSLATION  ACCESS:          0 HIT:          0 MISS:          0
cpu1_ITLB PREFETCH REQUESTED:          0 ISSUED:          0 USEFUL:          0 USELESS:          0
cpu1_ITLB AVERAGE MISS LATENCY: 67.12 cycles
cpu1_L1D TOTAL        ACCESS:          0 HIT:          0 MISS:          0
cpu1_L1D LOAD         ACCESS:          0 HIT:          0 MISS:          0
cpu1_L1D RFO          ACCESS:          0 HIT:          0 MISS:          0
cpu1_L1D PREFETCH     ACCESS:          0 HIT:          0 MISS:          0
cpu1_L1D WRITE        ACCESS:          0 HIT:          0 MISS:          0
cpu1_L1D TRANSLATION  ACCESS:          0 HIT:          0 MISS:          0
cpu1_L1D PREFETCH REQUESTED:   23586197 ISSUED:    4359471 USEFUL:     181862 USELESS:      68057
cpu1_L1D AVERAGE MISS LATENCY: 284.2 cycles
cpu1_L1D TOTAL        ACCESS:   51713496 HIT:   42729890 MISS:    8983606
cpu1_L1D LOAD         ACCESS:   22698142 HIT:   21814892 MISS:     883250
cpu1_L1D RFO          ACCESS:          0 HIT:          0 MISS:          0
cpu1_L1D PREFETCH     ACCESS:    4359471 HIT:    3347525 MISS:    1011946
cpu1_L1D WRITE        ACCESS:   24626702 HIT:   17544766 MISS:    7081936
cpu1_L1D TRANSLATION  ACCESS:      29181 HIT:      22707 MISS:       6474
cpu1_L1D PREFETCH REQUESTED:   23586197 ISSUED:    4359471 USEFUL:     181862 USELESS:      68057
cpu1_L1D AVERAGE MISS LATENCY: 284.2 cycles
cpu1_L1D TOTAL        ACCESS:          0 HIT:          0 MISS:          0
cpu1_L1D LOAD         ACCESS:          0 HIT:          0 MISS:          0
cpu1_L1D RFO          ACCESS:          0 HIT:          0 MISS:          0
cpu1_L1D PREFETCH     ACCESS:          0 HIT:          0 MISS:          0
cpu1_L1D WRITE        ACCESS:          0 HIT:          0 MISS:          0
cpu1_L1D TRANSLATION  ACCESS:          0 HIT:          0 MISS:          0
cpu1_L1D PREFETCH REQUESTED:   23586197 ISSUED:    4359471 USEFUL:     181862 USELESS:      68057
cpu1_L1D AVERAGE MISS LATENCY: 284.2 cycles
cpu1_L1D TOTAL        ACCESS:          0 HIT:          0 MISS:          0
cpu1_L1D LOAD         ACCESS:          0 HIT:          0 MISS:          0
cpu1_L1D RFO          ACCESS:          0 HIT:          0 MISS:          0
cpu1_L1D PREFETCH     ACCESS:          0 HIT:          0 MISS:          0
cpu1_L1D WRITE        ACCESS:          0 HIT:          0 MISS:          0
cpu1_L1D TRANSLATION  ACCESS:          0 HIT:          0 MISS:          0
cpu1_L1D PREFETCH REQUESTED:   23586197 ISSUED:    4359471 USEFUL:     181862 USELESS:      68057
cpu1_L1D AVERAGE MISS LATENCY: 284.2 cycles
cpu1_L1I TOTAL        ACCESS:          0 HIT:          0 MISS:          0
cpu1_L1I LOAD         ACCESS:          0 HIT:          0 MISS:          0
cpu1_L1I RFO          ACCESS:          0 HIT:          0 MISS:          0
cpu1_L1I PREFETCH     ACCESS:          0 HIT:          0 MISS:          0
cpu1_L1I WRITE        ACCESS:          0 HIT:          0 MISS:          0
cpu1_L1I TRANSLATION  ACCESS:          0 HIT:          0 MISS:          0
cpu1_L1I PREFETCH REQUESTED:          0 ISSUED:          0 USEFUL:          0 USELESS:          0
cpu1_L1I AVERAGE MISS LATENCY: 141.3 cycles
cpu1_L1I TOTAL        ACCESS:    5845262 HIT:    5710931 MISS:     134331
cpu1_L1I LOAD         ACCESS:    5845262 HIT:    5710931 MISS:     134331
cpu1_L1I RFO          ACCESS:          0 HIT:          0 MISS:          0
cpu1_L1I PREFETCH     ACCESS:          0 HIT:          0 MISS:          0
cpu1_L1I WRITE        ACCESS:          0 HIT:          0 MISS:          0
cpu1_L1I TRANSLATION  ACCESS:          0 HIT:          0 MISS:          0
cpu1_L1I PREFETCH REQUESTED:          0 ISSUED:          0 USEFUL:          0 USELESS:          0
cpu1_L1I AVERAGE MISS LATENCY: 141.3 cycles
cpu1_L1I TOTAL        ACCESS:          0 HIT:          0 MISS:          0
cpu1_L1I LOAD         ACCESS:          0 HIT:          0 MISS:          0
cpu1_L1I RFO          ACCESS:          0 HIT:          0 MISS:          0
cpu1_L1I PREFETCH     ACCESS:          0 HIT:          0 MISS:          0
cpu1_L1I WRITE        ACCESS:          0 HIT:          0 MISS:          0
cpu1_L1I TRANSLATION  ACCESS:          0 HIT:          0 MISS:          0
cpu1_L1I PREFETCH REQUESTED:          0 ISSUED:          0 USEFUL:          0 USELESS:          0
cpu1_L1I AVERAGE MISS LATENCY: 141.3 cycles
cpu1_L1I TOTAL        ACCESS:          0 HIT:          0 MISS:          0
cpu1_L1I LOAD         ACCESS:          0 HIT:          0 MISS:          0
cpu1_L1I RFO          ACCESS:          0 HIT:          0 MISS:          0
cpu1_L1I PREFETCH     ACCESS:          0 HIT:          0 MISS:          0
cpu1_L1I WRITE        ACCESS:          0 HIT:          0 MISS:          0
cpu1_L1I TRANSLATION  ACCESS:          0 HIT:          0 MISS:          0
cpu1_L1I PREFETCH REQUESTED:          0 ISSUED:          0 USEFUL:          0 USELESS:          0
cpu1_L1I AVERAGE MISS LATENCY: 141.3 cycles
cpu1_L2C TOTAL        ACCESS:          0 HIT:          0 MISS:          0
cpu1_L2C LOAD         ACCESS:          0 HIT:          0 MISS:          0
cpu1_L2C RFO          ACCESS:          0 HIT:          0 MISS:          0
cpu1_L2C PREFETCH     ACCESS:          0 HIT:          0 MISS:          0
cpu1_L2C WRITE        ACCESS:          0 HIT:          0 MISS:          0
cpu1_L2C TRANSLATION  ACCESS:          0 HIT:          0 MISS:          0
cpu1_L2C PREFETCH REQUESTED:          0 ISSUED:          0 USEFUL:          0 USELESS:          0
cpu1_L2C AVERAGE MISS LATENCY: 1471 cycles
cpu1_L2C TOTAL        ACCESS:    5441187 HIT:    3684043 MISS:    1757144
cpu1_L2C LOAD         ACCESS:     738481 HIT:     582244 MISS:     156237
cpu1_L2C RFO          ACCESS:    1799649 HIT:     343891 MISS:    1455758
cpu1_L2C PREFETCH     ACCESS:     977296 HIT:     836955 MISS:     140341
cpu1_L2C WRITE        ACCESS:    1919341 HIT:    1919236 MISS:        105
cpu1_L2C TRANSLATION  ACCESS:       6420 HIT:       1717 MISS:       4703
cpu1_L2C PREFETCH REQUESTED:          0 ISSUED:          0 USEFUL:          0 USELESS:          0
cpu1_L2C AVERAGE MISS LATENCY: 1471 cycles
cpu1_L2C TOTAL        ACCESS:          0 HIT:          0 MISS:          0
cpu1_L2C LOAD         ACCESS:          0 HIT:          0 MISS:          0
cpu1_L2C RFO          ACCESS:          0 HIT:          0 MISS:          0
cpu1_L2C PREFETCH     ACCESS:          0 HIT:          0 MISS:          0
cpu1_L2C WRITE        ACCESS:          0 HIT:          0 MISS:          0
cpu1_L2C TRANSLATION  ACCESS:          0 HIT:          0 MISS:          0
cpu1_L2C PREFETCH REQUESTED:          0 ISSUED:          0 USEFUL:          0 USELESS:          0
cpu1_L2C AVERAGE MISS LATENCY: 1471 cycles
cpu1_L2C TOTAL        ACCESS:          0 HIT:          0 MISS:          0
cpu1_L2C LOAD         ACCESS:          0 HIT:          0 MISS:          0
cpu1_L2C RFO          ACCESS:          0 HIT:          0 MISS:          0
cpu1_L2C PREFETCH     ACCESS:          0 HIT:          0 MISS:          0
cpu1_L2C WRITE        ACCESS:          0 HIT:          0 MISS:          0
cpu1_L2C TRANSLATION  ACCESS:          0 HIT:          0 MISS:          0
cpu1_L2C PREFETCH REQUESTED:          0 ISSUED:          0 USEFUL:          0 USELESS:          0
cpu1_L2C AVERAGE MISS LATENCY: 1471 cycles
cpu1_STLB TOTAL        ACCESS:          0 HIT:          0 MISS:          0
cpu1_STLB LOAD         ACCESS:          0 HIT:          0 MISS:          0
cpu1_STLB RFO          ACCESS:          0 HIT:          0 MISS:          0
cpu1_STLB PREFETCH     ACCESS:          0 HIT:          0 MISS:          0
cpu1_STLB WRITE        ACCESS:          0 HIT:          0 MISS:          0
cpu1_STLB TRANSLATION  ACCESS:          0 HIT:          0 MISS:          0
cpu1_STLB PREFETCH REQUESTED:          0 ISSUED:          0 USEFUL:          0 USELESS:          0
cpu1_STLB AVERAGE MISS LATENCY: 137.1 cycles
cpu1_STLB TOTAL        ACCESS:     163381 HIT:     134751 MISS:      28630
cpu1_STLB LOAD         ACCESS:     163381 HIT:     134751 MISS:      28630
cpu1_STLB RFO          ACCESS:          0 HIT:          0 MISS:          0
cpu1_STLB PREFETCH     ACCESS:          0 HIT:          0 MISS:          0
cpu1_STLB WRITE        ACCESS:          0 HIT:          0 MISS:          0
cpu1_STLB TRANSLATION  ACCESS:          0 HIT:          0 MISS:          0
cpu1_STLB PREFETCH REQUESTED:          0 ISSUED:          0 USEFUL:          0 USELESS:          0
cpu1_STLB AVERAGE MISS LATENCY: 137.1 cycles
cpu1_STLB TOTAL        ACCESS:          0 HIT:          0 MISS:          0
cpu1_STLB LOAD         ACCESS:          0 HIT:          0 MISS:          0
cpu1_STLB RFO          ACCESS:          0 HIT:          0 MISS:          0
cpu1_STLB PREFETCH     ACCESS:          0 HIT:          0 MISS:          0
cpu1_STLB WRITE        ACCESS:          0 HIT:          0 MISS:          0
cpu1_STLB TRANSLATION  ACCESS:          0 HIT:          0 MISS:          0
cpu1_STLB PREFETCH REQUESTED:          0 ISSUED:          0 USEFUL:          0 USELESS:          0
cpu1_STLB AVERAGE MISS LATENCY: 137.1 cycles
cpu1_STLB TOTAL        ACCESS:          0 HIT:          0 MISS:          0
cpu1_STLB LOAD         ACCESS:          0 HIT:          0 MISS:          0
cpu1_STLB RFO          ACCESS:          0 HIT:          0 MISS:          0
cpu1_STLB PREFETCH     ACCESS:          0 HIT:          0 MISS:          0
cpu1_STLB WRITE        ACCESS:          0 HIT:          0 MISS:          0
cpu1_STLB TRANSLATION  ACCESS:          0 HIT:          0 MISS:          0
cpu1_STLB PREFETCH REQUESTED:          0 ISSUED:          0 USEFUL:          0 USELESS:          0
cpu1_STLB AVERAGE MISS LATENCY: 137.1 cycles
cpu2_DTLB TOTAL        ACCESS:          0 HIT:          0 MISS:          0
cpu2_DTLB LOAD         ACCESS:          0 HIT:          0 MISS:          0
cpu2_DTLB RFO          ACCESS:          0 HIT:          0 MISS:          0
cpu2_DTLB PREFETCH     ACCESS:          0 HIT:          0 MISS:          0
cpu2_DTLB WRITE        ACCESS:          0 HIT:          0 MISS:          0
cpu2_DTLB TRANSLATION  ACCESS:          0 HIT:          0 MISS:          0
cpu2_DTLB PREFETCH REQUESTED:          0 ISSUED:          0 USEFUL:          0 USELESS:          0
cpu2_DTLB AVERAGE MISS LATENCY: 17.12 cycles
cpu2_DTLB TOTAL        ACCESS:          0 HIT:          0 MISS:          0
cpu2_DTLB LOAD         ACCESS:          0 HIT:          0 MISS:          0
cpu2_DTLB RFO          ACCESS:          0 HIT:          0 MISS:          0
cpu2_DTLB PREFETCH     ACCESS:          0 HIT:          0 MISS:          0
cpu2_DTLB WRITE        ACCESS:          0 HIT:          0 MISS:          0
cpu2_DTLB TRANSLATION  ACCESS:          0 HIT:          0 MISS:          0
cpu2_DTLB PREFETCH REQUESTED:          0 ISSUED:          0 USEFUL:          0 USELESS:          0
cpu2_DTLB AVERAGE MISS LATENCY: 17.12 cycles
cpu2_DTLB TOTAL        ACCESS:   39604689 HIT:   39268510 MISS:     336179
cpu2_DTLB LOAD         ACCESS:   39604689 HIT:   39268510 MISS:     336179
cpu2_DTLB RFO          ACCESS:          0 HIT:          0 MISS:          0
cpu2_DTLB PREFETCH     ACCESS:          0 HIT:          0 MISS:          0
cpu2_DTLB WRITE        ACCESS:          0 HIT:          0 MISS:          0
cpu2_DTLB TRANSLATION  ACCESS:          0 HIT:          0 MISS:          0
cpu2_DTLB PREFETCH REQUESTED:          0 ISSUED:          0 USEFUL:          0 USELESS:          0
cpu2_DTLB AVERAGE MISS LATENCY: 17.12 cycles
cpu2_DTLB TOTAL        ACCESS:          0 HIT:          0 MISS:          0
cpu2_DTLB LOAD         ACCESS:          0 HIT:          0 MISS:          0
cpu2_DTLB RFO          ACCESS:          0 HIT:          0 MISS:          0
cpu2_DTLB PREFETCH     ACCESS:          0 HIT:          0 MISS:          0
cpu2_DTLB WRITE        ACCESS:          0 HIT:          0 MISS:          0
cpu2_DTLB TRANSLATION  ACCESS:          0 HIT:          0 MISS:          0
cpu2_DTLB PREFETCH REQUESTED:          0 ISSUED:          0 USEFUL:          0 USELESS:          0
cpu2_DTLB AVERAGE MISS LATENCY: 17.12 cycles
cpu2_ITLB TOTAL        ACCESS:          0 HIT:          0 MISS:          0
cpu2_ITLB LOAD         ACCESS:          0 HIT:          0 MISS:          0
cpu2_ITLB RFO          ACCESS:          0 HIT:          0 MISS:          0
cpu2_ITLB PREFETCH     ACCESS:          0 HIT:          0 MISS:          0
cpu2_ITLB WRITE        ACCESS:          0 HIT:          0 MISS:          0
cpu2_ITLB TRANSLATION  ACCESS:          0 HIT:          0 MISS:          0
cpu2_ITLB PREFETCH REQUESTED:          0 ISSUED:          0 USEFUL:          0 USELESS:          0
cpu2_ITLB AVERAGE MISS LATENCY: 18.37 cycles
cpu2_ITLB TOTAL        ACCESS:          0 HIT:          0 MISS:          0
cpu2_ITLB LOAD         ACCESS:          0 HIT:          0 MISS:          0
cpu2_ITLB RFO          ACCESS:          0 HIT:          0 MISS:          0
cpu2_ITLB PREFETCH     ACCESS:          0 HIT:          0 MISS:          0
cpu2_ITLB WRITE        ACCESS:          0 HIT:          0 MISS:          0
cpu2_ITLB TRANSLATION  ACCESS:          0 HIT:          0 MISS:          0
cpu2_ITLB PREFETCH REQUESTED:          0 ISSUED:          0 USEFUL:          0 USELESS:          0
cpu2_ITLB AVERAGE MISS LATENCY: 18.37 cycles
cpu2_ITLB TOTAL        ACCESS:     530135 HIT:     519868 MISS:      10267
cpu2_ITLB LOAD         ACCESS:     530135 HIT:     519868 MISS:      10267
cpu2_ITLB RFO          ACCESS:          0 HIT:          0 MISS:          0
cpu2_ITLB PREFETCH     ACCESS:          0 HIT:          0 MISS:          0
cpu2_ITLB WRITE        ACCESS:          0 HIT:          0 MISS:          0
cpu2_ITLB TRANSLATION  ACCESS:          0 HIT:          0 MISS:          0
cpu2_ITLB PREFETCH REQUESTED:          0 ISSUED:          0 USEFUL:          0 USELESS:          0
cpu2_ITLB AVERAGE MISS LATENCY: 18.37 cycles
cpu2_ITLB TOTAL        ACCESS:          0 HIT:          0 MISS:          0
cpu2_ITLB LOAD         ACCESS:          0 HIT:          0 MISS:          0
cpu2_ITLB RFO          ACCESS:          0 HIT:          0 MISS:          0
cpu2_ITLB PREFETCH     ACCESS:          0 HIT:          0 MISS:          0
cpu2_ITLB WRITE        ACCESS:          0 HIT:          0 MISS:          0
cpu2_ITLB TRANSLATION  ACCESS:          0 HIT:          0 MISS:          0
cpu2_ITLB PREFETCH REQUESTED:          0 ISSUED:          0 USEFUL:          0 USELESS:          0
cpu2_ITLB AVERAGE MISS LATENCY: 18.37 cycles
cpu2_L1D TOTAL        ACCESS:          0 HIT:          0 MISS:          0
cpu2_L1D LOAD         ACCESS:          0 HIT:          0 MISS:          0
cpu2_L1D RFO          ACCESS:          0 HIT:          0 MISS:          0
cpu2_L1D PREFETCH     ACCESS:          0 HIT:          0 MISS:          0
cpu2_L1D WRITE        ACCESS:          0 HIT:          0 MISS:          0
cpu2_L1D TRANSLATION  ACCESS:          0 HIT:          0 MISS:          0
cpu2_L1D PREFETCH REQUESTED:   68409335 ISSUED:    9898501 USEFUL:     600577 USELESS:     276779
cpu2_L1D AVERAGE MISS LATENCY: 81.65 cycles
cpu2_L1D TOTAL        ACCESS:          0 HIT:          0 MISS:          0
cpu2_L1D LOAD         ACCESS:          0 HIT:          0 MISS:          0
cpu2_L1D RFO          ACCESS:          0 HIT:          0 MISS:          0
cpu2_L1D PREFETCH     ACCESS:          0 HIT:          0 MISS:          0
cpu2_L1D WRITE        ACCESS:          0 HIT:          0 MISS:          0
cpu2_L1D TRANSLATION  ACCESS:          0 HIT:          0 MISS:          0
cpu2_L1D PREFETCH REQUESTED:   68409335 ISSUED:    9898501 USEFUL:     600577 USELESS:     276779
cpu2_L1D AVERAGE MISS LATENCY: 81.65 cycles
cpu2_L1D TOTAL        ACCESS:   58133386 HIT:   46337486 MISS:   11795900
cpu2_L1D LOAD         ACCESS:   29383661 HIT:   26361454 MISS:    3022207
cpu2_L1D RFO          ACCESS:          0 HIT:          0 MISS:          0
cpu2_L1D PREFETCH     ACCESS:    9898499 HIT:    6983095 MISS:    2915404
cpu2_L1D WRITE        ACCESS:   18835264 HIT:   12988743 MISS:    5846521
cpu2_L1D TRANSLATION  ACCESS:      15962 HIT:       4194 MISS:      11768
cpu2_L1D PREFETCH REQUESTED:   68409335 ISSUED:    9898501 USEFUL:     600577 USELESS:     276779
cpu2_L1D AVERAGE MISS LATENCY: 81.65 cycles
cpu2_L1D TOTAL        ACCESS:          0 HIT:          0 MISS:          0
cpu2_L1D LOAD         ACCESS:          0 HIT:          0 MISS:          0
cpu2_L1D RFO          ACCESS:          0 HIT:          0 MISS:          0
cpu2_L1D PREFETCH     ACCESS:          0 HIT:          0 MISS:          0
cpu2_L1D WRITE        ACCESS:          0 HIT:          0 MISS:          0
cpu2_L1D TRANSLATION  ACCESS:          0 HIT:          0 MISS:          0
cpu2_L1D PREFETCH REQUESTED:   68409335 ISSUED:    9898501 USEFUL:     600577 USELESS:     276779
cpu2_L1D AVERAGE MISS LATENCY: 81.65 cycles
cpu2_L1I TOTAL        ACCESS:          0 HIT:          0 MISS:          0
cpu2_L1I LOAD         ACCESS:          0 HIT:          0 MISS:          0
cpu2_L1I RFO          ACCESS:          0 HIT:          0 MISS:          0
cpu2_L1I PREFETCH     ACCESS:          0 HIT:          0 MISS:          0
cpu2_L1I WRITE        ACCESS:          0 HIT:          0 MISS:          0
cpu2_L1I TRANSLATION  ACCESS:          0 HIT:          0 MISS:          0
cpu2_L1I PREFETCH REQUESTED:          0 ISSUED:          0 USEFUL:          0 USELESS:          0
cpu2_L1I AVERAGE MISS LATENCY: 57.85 cycles
cpu2_L1I TOTAL        ACCESS:          0 HIT:          0 MISS:          0
cpu2_L1I LOAD         ACCESS:          0 HIT:          0 MISS:          0
cpu2_L1I RFO          ACCESS:          0 HIT:          0 MISS:          0
cpu2_L1I PREFETCH     ACCESS:          0 HIT:          0 MISS:          0
cpu2_L1I WRITE        ACCESS:          0 HIT:          0 MISS:          0
cpu2_L1I TRANSLATION  ACCESS:          0 HIT:          0 MISS:          0
cpu2_L1I PREFETCH REQUESTED:          0 ISSUED:          0 USEFUL:          0 USELESS:          0
cpu2_L1I AVERAGE MISS LATENCY: 57.85 cycles
cpu2_L1I TOTAL        ACCESS:     648955 HIT:     472239 MISS:     176716
cpu2_L1I LOAD         ACCESS:     648955 HIT:     472239 MISS:     176716
cpu2_L1I RFO          ACCESS:          0 HIT:          0 MISS:          0
cpu2_L1I PREFETCH     ACCESS:          0 HIT:          0 MISS:          0
cpu2_L1I WRITE        ACCESS:          0 HIT:          0 MISS:          0
cpu2_L1I TRANSLATION  ACCESS:          0 HIT:          0 MISS:          0
cpu2_L1I PREFETCH REQUESTED:          0 ISSUED:          0 USEFUL:          0 USELESS:          0
cpu2_L1I AVERAGE MISS LATENCY: 57.85 cycles
cpu2_L1I TOTAL        ACCESS:          0 HIT:          0 MISS:          0
cpu2_L1I LOAD         ACCESS:          0 HIT:          0 MISS:          0
cpu2_L1I RFO          ACCESS:          0 HIT:          0 MISS:          0
cpu2_L1I PREFETCH     ACCESS:          0 HIT:          0 MISS:          0
cpu2_L1I WRITE        ACCESS:          0 HIT:          0 MISS:          0
cpu2_L1I TRANSLATION  ACCESS:          0 HIT:          0 MISS:          0
cpu2_L1I PREFETCH REQUESTED:          0 ISSUED:          0 USEFUL:          0 USELESS:          0
cpu2_L1I AVERAGE MISS LATENCY: 57.85 cycles
cpu2_L2C TOTAL        ACCESS:          0 HIT:          0 MISS:          0
cpu2_L2C LOAD         ACCESS:          0 HIT:          0 MISS:          0
cpu2_L2C RFO          ACCESS:          0 HIT:          0 MISS:          0
cpu2_L2C PREFETCH     ACCESS:          0 HIT:          0 MISS:          0
cpu2_L2C WRITE        ACCESS:          0 HIT:          0 MISS:          0
cpu2_L2C TRANSLATION  ACCESS:          0 HIT:          0 MISS:          0
cpu2_L2C PREFETCH REQUESTED:          0 ISSUED:          0 USEFUL:          0 USELESS:          0
cpu2_L2C AVERAGE MISS LATENCY: 472.7 cycles
cpu2_L2C TOTAL        ACCESS:          0 HIT:          0 MISS:          0
cpu2_L2C LOAD         ACCESS:          0 HIT:          0 MISS:          0
cpu2_L2C RFO          ACCESS:          0 HIT:          0 MISS:          0
cpu2_L2C PREFETCH     ACCESS:          0 HIT:          0 MISS:          0
cpu2_L2C WRITE        ACCESS:          0 HIT:          0 MISS:          0
cpu2_L2C TRANSLATION  ACCESS:          0 HIT:          0 MISS:          0
cpu2_L2C PREFETCH REQUESTED:          0 ISSUED:          0 USEFUL:          0 USELESS:          0
cpu2_L2C AVERAGE MISS LATENCY: 472.7 cycles
cpu2_L2C TOTAL        ACCESS:    8091321 HIT:    5610581 MISS:    2480740
cpu2_L2C LOAD         ACCESS:    1974105 HIT:    1299436 MISS:     674669
cpu2_L2C RFO          ACCESS:    1446337 HIT:     835452 MISS:     610885
cpu2_L2C PREFETCH     ACCESS:    2786910 HIT:    1599929 MISS:    1186981
cpu2_L2C WRITE        ACCESS:    1872365 HIT:    1871191 MISS:       1174
cpu2_L2C TRANSLATION  ACCESS:      11604 HIT:       4573 MISS:       7031
cpu2_L2C PREFETCH REQUESTED:          0 ISSUED:          0 USEFUL:          0 USELESS:          0
cpu2_L2C AVERAGE MISS LATENCY: 472.7 cycles
cpu2_L2C TOTAL        ACCESS:          0 HIT:          0 MISS:          0
cpu2_L2C LOAD         ACCESS:          0 HIT:          0 MISS:          0
cpu2_L2C RFO          ACCESS:          0 HIT:          0 MISS:          0
cpu2_L2C PREFETCH     ACCESS:          0 HIT:          0 MISS:          0
cpu2_L2C WRITE        ACCESS:          0 HIT:          0 MISS:          0
cpu2_L2C TRANSLATION  ACCESS:          0 HIT:          0 MISS:          0
cpu2_L2C PREFETCH REQUESTED:          0 ISSUED:          0 USEFUL:          0 USELESS:          0
cpu2_L2C AVERAGE MISS LATENCY: 472.7 cycles
cpu2_STLB TOTAL        ACCESS:          0 HIT:          0 MISS:          0
cpu2_STLB LOAD         ACCESS:          0 HIT:          0 MISS:          0
cpu2_STLB RFO          ACCESS:          0 HIT:          0 MISS:          0
cpu2_STLB PREFETCH     ACCESS:          0 HIT:          0 MISS:          0
cpu2_STLB WRITE        ACCESS:          0 HIT:          0 MISS:          0
cpu2_STLB TRANSLATION  ACCESS:          0 HIT:          0 MISS:          0
cpu2_STLB PREFETCH REQUESTED:          0 ISSUED:          0 USEFUL:          0 USELESS:          0
cpu2_STLB AVERAGE MISS LATENCY: 497.5 cycles
cpu2_STLB TOTAL        ACCESS:          0 HIT:          0 MISS:          0
cpu2_STLB LOAD         ACCESS:          0 HIT:          0 MISS:          0
cpu2_STLB RFO          ACCESS:          0 HIT:          0 MISS:          0
cpu2_STLB PREFETCH     ACCESS:          0 HIT:          0 MISS:          0
cpu2_STLB WRITE        ACCESS:          0 HIT:          0 MISS:          0
cpu2_STLB TRANSLATION  ACCESS:          0 HIT:          0 MISS:          0
cpu2_STLB PREFETCH REQUESTED:          0 ISSUED:          0 USEFUL:          0 USELESS:          0
cpu2_STLB AVERAGE MISS LATENCY: 497.5 cycles
cpu2_STLB TOTAL        ACCESS:     118792 HIT:     104737 MISS:      14055
cpu2_STLB LOAD         ACCESS:     118792 HIT:     104737 MISS:      14055
cpu2_STLB RFO          ACCESS:          0 HIT:          0 MISS:          0
cpu2_STLB PREFETCH     ACCESS:          0 HIT:          0 MISS:          0
cpu2_STLB WRITE        ACCESS:          0 HIT:          0 MISS:          0
cpu2_STLB TRANSLATION  ACCESS:          0 HIT:          0 MISS:          0
cpu2_STLB PREFETCH REQUESTED:          0 ISSUED:          0 USEFUL:          0 USELESS:          0
cpu2_STLB AVERAGE MISS LATENCY: 497.5 cycles
cpu2_STLB TOTAL        ACCESS:          0 HIT:          0 MISS:          0
cpu2_STLB LOAD         ACCESS:          0 HIT:          0 MISS:          0
cpu2_STLB RFO          ACCESS:          0 HIT:          0 MISS:          0
cpu2_STLB PREFETCH     ACCESS:          0 HIT:          0 MISS:          0
cpu2_STLB WRITE        ACCESS:          0 HIT:          0 MISS:          0
cpu2_STLB TRANSLATION  ACCESS:          0 HIT:          0 MISS:          0
cpu2_STLB PREFETCH REQUESTED:          0 ISSUED:          0 USEFUL:          0 USELESS:          0
cpu2_STLB AVERAGE MISS LATENCY: 497.5 cycles
cpu3_DTLB TOTAL        ACCESS:          0 HIT:          0 MISS:          0
cpu3_DTLB LOAD         ACCESS:          0 HIT:          0 MISS:          0
cpu3_DTLB RFO          ACCESS:          0 HIT:          0 MISS:          0
cpu3_DTLB PREFETCH     ACCESS:          0 HIT:          0 MISS:          0
cpu3_DTLB WRITE        ACCESS:          0 HIT:          0 MISS:          0
cpu3_DTLB TRANSLATION  ACCESS:          0 HIT:          0 MISS:          0
cpu3_DTLB PREFETCH REQUESTED:          0 ISSUED:          0 USEFUL:          0 USELESS:          0
cpu3_DTLB AVERAGE MISS LATENCY: 9.244 cycles
cpu3_DTLB TOTAL        ACCESS:          0 HIT:          0 MISS:          0
cpu3_DTLB LOAD         ACCESS:          0 HIT:          0 MISS:          0
cpu3_DTLB RFO          ACCESS:          0 HIT:          0 MISS:          0
cpu3_DTLB PREFETCH     ACCESS:          0 HIT:          0 MISS:          0
cpu3_DTLB WRITE        ACCESS:          0 HIT:          0 MISS:          0
cpu3_DTLB TRANSLATION  ACCESS:          0 HIT:          0 MISS:          0
cpu3_DTLB PREFETCH REQUESTED:          0 ISSUED:          0 USEFUL:          0 USELESS:          0
cpu3_DTLB AVERAGE MISS LATENCY: 9.244 cycles
cpu3_DTLB TOTAL        ACCESS:          0 HIT:          0 MISS:          0
cpu3_DTLB LOAD         ACCESS:          0 HIT:          0 MISS:          0
cpu3_DTLB RFO          ACCESS:          0 HIT:          0 MISS:          0
cpu3_DTLB PREFETCH     ACCESS:          0 HIT:          0 MISS:          0
cpu3_DTLB WRITE        ACCESS:          0 HIT:          0 MISS:          0
cpu3_DTLB TRANSLATION  ACCESS:          0 HIT:          0 MISS:          0
cpu3_DTLB PREFETCH REQUESTED:          0 ISSUED:          0 USEFUL:          0 USELESS:          0
cpu3_DTLB AVERAGE MISS LATENCY: 9.244 cycles
cpu3_DTLB TOTAL        ACCESS:   48947548 HIT:   48587896 MISS:     359652
cpu3_DTLB LOAD         ACCESS:   48947548 HIT:   48587896 MISS:     359652
cpu3_DTLB RFO          ACCESS:          0 HIT:          0 MISS:          0
cpu3_DTLB PREFETCH     ACCESS:          0 HIT:          0 MISS:          0
cpu3_DTLB WRITE        ACCESS:          0 HIT:          0 MISS:          0
cpu3_DTLB TRANSLATION  ACCESS:          0 HIT:          0 MISS:          0
cpu3_DTLB PREFETCH REQUESTED:          0 ISSUED:          0 USEFUL:          0 USELESS:          0
cpu3_DTLB AVERAGE MISS LATENCY: 9.244 cycles
cpu3_ITLB TOTAL        ACCESS:          0 HIT:          0 MISS:          0
cpu3_ITLB LOAD         ACCESS:          0 HIT:          0 MISS:          0
cpu3_ITLB RFO          ACCESS:          0 HIT:          0 MISS:          0
cpu3_ITLB PREFETCH     ACCESS:          0 HIT:          0 MISS:          0
cpu3_ITLB WRITE        ACCESS:          0 HIT:          0 MISS:          0
cpu3_ITLB TRANSLATION  ACCESS:          0 HIT:          0 MISS:          0
cpu3_ITLB PREFETCH REQUESTED:          0 ISSUED:          0 USEFUL:          0 USELESS:          0
cpu3_ITLB AVERAGE MISS LATENCY: 380.7 cycles
cpu3_ITLB TOTAL        ACCESS:          0 HIT:          0 MISS:          0
cpu3_ITLB LOAD         ACCESS:          0 HIT:          0 MISS:          0
cpu3_ITLB RFO          ACCESS:          0 HIT:          0 MISS:          0
cpu3_ITLB PREFETCH     ACCESS:          0 HIT:          0 MISS:          0
cpu3_ITLB WRITE        ACCESS:          0 HIT:          0 MISS:          0
cpu3_ITLB TRANSLATION  ACCESS:          0 HIT:          0 MISS:          0
cpu3_ITLB PREFETCH REQUESTED:          0 ISSUED:          0 USEFUL:          0 USELESS:          0
cpu3_ITLB AVERAGE MISS LATENCY: 380.7 cycles
cpu3_ITLB TOTAL        ACCESS:          0 HIT:          0 MISS:          0
cpu3_ITLB LOAD         ACCESS:          0 HIT:          0 MISS:          0
cpu3_ITLB RFO          ACCESS:          0 HIT:          0 MISS:          0
cpu3_ITLB PREFETCH     ACCESS:          0 HIT:          0 MISS:          0
cpu3_ITLB WRITE        ACCESS:          0 HIT:          0 MISS:          0
cpu3_ITLB TRANSLATION  ACCESS:          0 HIT:          0 MISS:          0
cpu3_ITLB PREFETCH REQUESTED:          0 ISSUED:          0 USEFUL:          0 USELESS:          0
cpu3_ITLB AVERAGE MISS LATENCY: 380.7 cycles
cpu3_ITLB TOTAL        ACCESS:    3115628 HIT:    3115504 MISS:        124
cpu3_ITLB LOAD         ACCESS:    3115628 HIT:    3115504 MISS:        124
cpu3_ITLB RFO          ACCESS:          0 HIT:          0 MISS:          0
cpu3_ITLB PREFETCH     ACCESS:          0 HIT:          0 MISS:          0
cpu3_ITLB WRITE        ACCESS:          0 HIT:          0 MISS:          0
cpu3_ITLB TRANSLATION  ACCESS:          0 HIT:          0 MISS:          0
cpu3_ITLB PREFETCH REQUESTED:          0 ISSUED:          0 USEFUL:          0 USELESS:          0
cpu3_ITLB AVERAGE MISS LATENCY: 380.7 cycles
cpu3_L1D TOTAL        ACCESS:          0 HIT:          0 MISS:          0
cpu3_L1D LOAD         ACCESS:          0 HIT:          0 MISS:          0
cpu3_L1D RFO          ACCESS:          0 HIT:          0 MISS:          0
cpu3_L1D PREFETCH     ACCESS:          0 HIT:          0 MISS:          0
cpu3_L1D WRITE        ACCESS:          0 HIT:          0 MISS:          0
cpu3_L1D TRANSLATION  ACCESS:          0 HIT:          0 MISS:          0
cpu3_L1D PREFETCH REQUESTED:   10789253 ISSUED:    1425713 USEFUL:      97842 USELESS:      25592
cpu3_L1D AVERAGE MISS LATENCY: 119.6 cycles
cpu3_L1D TOTAL        ACCESS:          0 HIT:          0 MISS:          0
cpu3_L1D LOAD         ACCESS:          0 HIT:          0 MISS:          0
cpu3_L1D RFO          ACCESS:          0 HIT:          0 MISS:          0
cpu3_L1D PREFETCH     ACCESS:          0 HIT:          0 MISS:          0
cpu3_L1D WRITE        ACCESS:          0 HIT:          0 MISS:          0
cpu3_L1D TRANSLATION  ACCESS:          0 HIT:          0 MISS:          0
cpu3_L1D PREFETCH REQUESTED:   10789253 ISSUED:    1425713 USEFUL:      97842 USELESS:      25592
cpu3_L1D AVERAGE MISS LATENCY: 119.6 cycles
cpu3_L1D TOTAL        ACCESS:          0 HIT:          0 MISS:          0
cpu3_L1D LOAD         ACCESS:          0 HIT:          0 MISS:          0
cpu3_L1D RFO          ACCESS:          0 HIT:          0 MISS:          0
cpu3_L1D PREFETCH     ACCESS:          0 HIT:          0 MISS:          0
cpu3_L1D WRITE        ACCESS:          0 HIT:          0 MISS:          0
cpu3_L1D TRANSLATION  ACCESS:          0 HIT:          0 MISS:          0
cpu3_L1D PREFETCH REQUESTED:   10789253 ISSUED:    1425713 USEFUL:      97842 USELESS:      25592
cpu3_L1D AVERAGE MISS LATENCY: 119.6 cycles
cpu3_L1D TOTAL        ACCESS:   62518801 HIT:   60142182 MISS:    2376619
cpu3_L1D LOAD         ACCESS:   40332837 HIT:   39911609 MISS:     421228
cpu3_L1D RFO          ACCESS:          0 HIT:          0 MISS:          0
cpu3_L1D PREFETCH     ACCESS:    1425713 HIT:     855962 MISS:     569751
cpu3_L1D WRITE        ACCESS:   20756642 HIT:   19373628 MISS:    1383014
cpu3_L1D TRANSLATION  ACCESS:       3609 HIT:        983 MISS:       2626
cpu3_L1D PREFETCH REQUESTED:   10789253 ISSUED:    1425713 USEFUL:      97842 USELESS:      25592
cpu3_L1D AVERAGE MISS LATENCY: 119.6 cycles
cpu3_L1I TOTAL        ACCESS:          0 HIT:          0 MISS:          0
cpu3_L1I LOAD         ACCESS:          0 HIT:          0 MISS:          0
cpu3_L1I RFO          ACCESS:          0 HIT:          0 MISS:          0
cpu3_L1I PREFETCH     ACCESS:          0 HIT:          0 MISS:          0
cpu3_L1I WRITE        ACCESS:          0 HIT:          0 MISS:          0
cpu3_L1I TRANSLATION  ACCESS:          0 HIT:          0 MISS:          0
cpu3_L1I PREFETCH REQUESTED:          0 ISSUED:          0 USEFUL:          0 USELESS:          0
cpu3_L1I AVERAGE MISS LATENCY: 9.884 cycles
cpu3_L1I TOTAL        ACCESS:          0 HIT:          0 MISS:          0
cpu3_L1I LOAD         ACCESS:          0 HIT:          0 MISS:          0
cpu3_L1I RFO          ACCESS:          0 HIT:          0 MISS:          0
cpu3_L1I PREFETCH     ACCESS:          0 HIT:          0 MISS:          0
cpu3_L1I WRITE        ACCESS:          0 HIT:          0 MISS:          0
cpu3_L1I TRANSLATION  ACCESS:          0 HIT:          0 MISS:          0
cpu3_L1I PREFETCH REQUESTED:          0 ISSUED:          0 USEFUL:          0 USELESS:          0
cpu3_L1I AVERAGE MISS LATENCY: 9.884 cycles
cpu3_L1I TOTAL        ACCESS:          0 HIT:          0 MISS:          0
cpu3_L1I LOAD         ACCESS:          0 HIT:          0 MISS:          0
cpu3_L1I RFO          ACCESS:          0 HIT:          0 MISS:          0
cpu3_L1I PREFETCH     ACCESS:          0 HIT:          0 MISS:          0
cpu3_L1I WRITE        ACCESS:          0 HIT:          0 MISS:          0
cpu3_L1I TRANSLATION  ACCESS:          0 HIT:          0 MISS:          0
cpu3_L1I PREFETCH REQUESTED:          0 ISSUED:          0 USEFUL:          0 USELESS:          0
cpu3_L1I AVERAGE MISS LATENCY: 9.884 cycles
cpu3_L1I TOTAL        ACCESS:    3865996 HIT:    3099722 MISS:     766274
cpu3_L1I LOAD         ACCESS:    3865996 HIT:    3099722 MISS:     766274
cpu3_L1I RFO          ACCESS:          0 HIT:          0 MISS:          0
cpu3_L1I PREFETCH     ACCESS:          0 HIT:          0 MISS:          0
cpu3_L1I WRITE        ACCESS:          0 HIT:          0 MISS:          0
cpu3_L1I TRANSLATION  ACCESS:          0 HIT:          0 MISS:          0
cpu3_L1I PREFETCH REQUESTED:          0 ISSUED:          0 USEFUL:          0 USELESS:          0
cpu3_L1I AVERAGE MISS LATENCY: 9.884 cycles
cpu3_L2C TOTAL        ACCESS:          0 HIT:          0 MISS:          0
cpu3_L2C LOAD         ACCESS:          0 HIT:          0 MISS:          0
cpu3_L2C RFO          ACCESS:          0 HIT:          0 MISS:          0
cpu3_L2C PREFETCH     ACCESS:          0 HIT:          0 MISS:          0
cpu3_L2C WRITE        ACCESS:          0 HIT:          0 MISS:          0
cpu3_L2C TRANSLATION  ACCESS:          0 HIT:          0 MISS:          0
cpu3_L2C PREFETCH REQUESTED:          0 ISSUED:          0 USEFUL:          0 USELESS:          0
cpu3_L2C AVERAGE MISS LATENCY: 1147 cycles
cpu3_L2C TOTAL        ACCESS:          0 HIT:          0 MISS:          0
cpu3_L2C LOAD         ACCESS:          0 HIT:          0 MISS:          0
cpu3_L2C RFO          ACCESS:          0 HIT:          0 MISS:          0
cpu3_L2C PREFETCH     ACCESS:          0 HIT:          0 MISS:          0
cpu3_L2C WRITE        ACCESS:          0 HIT:          0 MISS:          0
cpu3_L2C TRANSLATION  ACCESS:          0 HIT:          0 MISS:          0
cpu3_L2C PREFETCH REQUESTED:          0 ISSUED:          0 USEFUL:          0 USELESS:          0
cpu3_L2C AVERAGE MISS LATENCY: 1147 cycles
cpu3_L2C TOTAL        ACCESS:          0 HIT:          0 MISS:          0
cpu3_L2C LOAD         ACCESS:          0 HIT:          0 MISS:          0
cpu3_L2C RFO          ACCESS:          0 HIT:          0 MISS:          0
cpu3_L2C PREFETCH     ACCESS:          0 HIT:          0 MISS:          0
cpu3_L2C WRITE        ACCESS:          0 HIT:          0 MISS:          0
cpu3_L2C TRANSLATION  ACCESS:          0 HIT:          0 MISS:          0
cpu3_L2C PREFETCH REQUESTED:          0 ISSUED:          0 USEFUL:          0 USELESS:          0
cpu3_L2C AVERAGE MISS LATENCY: 1147 cycles
cpu3_L2C TOTAL        ACCESS:    2248499 HIT:    1904014 MISS:     344485
cpu3_L2C LOAD         ACCESS:     850194 HIT:     788052 MISS:      62142
cpu3_L2C RFO          ACCESS:     385152 HIT:     214689 MISS:     170463
cpu3_L2C PREFETCH     ACCESS:     561114 HIT:     450596 MISS:     110518
cpu3_L2C WRITE        ACCESS:     449808 HIT:     449586 MISS:        222
cpu3_L2C TRANSLATION  ACCESS:       2231 HIT:       1091 MISS:       1140
cpu3_L2C PREFETCH REQUESTED:          0 ISSUED:          0 USEFUL:          0 USELESS:          0
cpu3_L2C AVERAGE MISS LATENCY: 1147 cycles
cpu3_STLB TOTAL        ACCESS:          0 HIT:          0 MISS:          0
cpu3_STLB LOAD         ACCESS:          0 HIT:          0 MISS:          0
cpu3_STLB RFO          ACCESS:          0 HIT:          0 MISS:          0
cpu3_STLB PREFETCH     ACCESS:          0 HIT:          0 MISS:          0
cpu3_STLB WRITE        ACCESS:          0 HIT:          0 MISS:          0
[...]
cpu2_L2C PREFETCH REQUESTED:          0 ISSUED:          0 USEFUL:          0 USELESS:          0
cpu2_L2C AVERAGE MISS LATENCY: 472.7 cycles
cpu2_L2C TOTAL        ACCESS:          0 HIT:          0 MISS:          0
cpu2_L2C LOAD         ACCESS:          0 HIT:          0 MISS:          0
cpu2_L2C RFO          ACCESS:          0 HIT:          0 MISS:          0
cpu2_L2C PREFETCH     ACCESS:          0 HIT:          0 MISS:          0
cpu2_L2C WRITE        ACCESS:          0 HIT:          0 MISS:          0
cpu2_L2C TRANSLATION  ACCESS:          0 HIT:          0 MISS:          0
cpu2_L2C PREFETCH REQUESTED:          0 ISSUED:          0 USEFUL:          0 USELESS:          0
cpu2_L2C AVERAGE MISS LATENCY: 472.7 cycles
cpu2_L2C TOTAL        ACCESS:    4122577 HIT:    2847601 MISS:    1274976
cpu2_L2C LOAD         ACCESS:    1067166 HIT:     694216 MISS:     372950
cpu2_L2C RFO          ACCESS:     735588 HIT:     430990 MISS:     304598
cpu2_L2C PREFETCH     ACCESS:    1350541 HIT:     757497 MISS:     593044
cpu2_L2C WRITE        ACCESS:     963208 HIT:     962651 MISS:        557
cpu2_L2C TRANSLATION  ACCESS:       6074 HIT:       2247 MISS:       3827
cpu2_L2C PREFETCH REQUESTED:          0 ISSUED:          0 USEFUL:          0 USELESS:          0
cpu2_L2C AVERAGE MISS LATENCY: 472.7 cycles
cpu2_L2C TOTAL        ACCESS:          0 HIT:          0 MISS:          0
cpu2_L2C LOAD         ACCESS:          0 HIT:          0 MISS:          0
cpu2_L2C RFO          ACCESS:          0 HIT:          0 MISS:          0
cpu2_L2C PREFETCH     ACCESS:          0 HIT:          0 MISS:          0
cpu2_L2C WRITE        ACCESS:          0 HIT:          0 MISS:          0
cpu2_L2C TRANSLATION  ACCESS:          0 HIT:          0 MISS:          0
cpu2_L2C PREFETCH REQUESTED:          0 ISSUED:          0 USEFUL:          0 USELESS:          0
cpu2_L2C AVERAGE MISS LATENCY: 472.7 cycles
cpu2_STLB TOTAL        ACCESS:          0 HIT:          0 MISS:          0
cpu2_STLB LOAD         ACCESS:          0 HIT:          0 MISS:          0
cpu2_STLB RFO          ACCESS:          0 HIT:          0 MISS:          0
cpu2_STLB PREFETCH     ACCESS:          0 HIT:          0 MISS:          0
cpu2_STLB WRITE        ACCESS:          0 HIT:          0 MISS:          0
cpu2_STLB TRANSLATION  ACCESS:          0 HIT:          0 MISS:          0
cpu2_STLB PREFETCH REQUESTED:          0 ISSUED:          0 USEFUL:          0 USELESS:          0
cpu2_STLB AVERAGE MISS LATENCY: 497.5 cycles
cpu2_STLB TOTAL        ACCESS:          0 HIT:          0 MISS:          0
cpu2_STLB LOAD         ACCESS:          0 HIT:          0 MISS:          0
cpu2_STLB RFO          ACCESS:          0 HIT:          0 MISS:          0
cpu2_STLB PREFETCH     ACCESS:          0 HIT:          0 MISS:          0
cpu2_STLB WRITE        ACCESS:          0 HIT:          0 MISS:          0
cpu2_STLB TRANSLATION  ACCESS:          0 HIT:          0 MISS:          0
cpu2_STLB PREFETCH REQUESTED:          0 ISSUED:          0 USEFUL:          0 USELESS:          0
cpu2_STLB AVERAGE MISS LATENCY: 497.5 cycles
cpu2_STLB TOTAL        ACCESS:      63883 HIT:      56642 MISS:       7241
cpu2_STLB LOAD         ACCESS:      63883 HIT:      56642 MISS:       7241
cpu2_STLB RFO          ACCESS:          0 HIT:          0 MISS:          0
cpu2_STLB PREFETCH     ACCESS:          0 HIT:          0 MISS:          0
cpu2_STLB WRITE        ACCESS:          0 HIT:          0 MISS:          0
cpu2_STLB TRANSLATION  ACCESS:          0 HIT:          0 MISS:          0
cpu2_STLB PREFETCH REQUESTED:          0 ISSUED:          0 USEFUL:          0 USELESS:          0
cpu2_STLB AVERAGE MISS LATENCY: 497.5 cycles
cpu2_STLB TOTAL        ACCESS:          0 HIT:          0 MISS:          0
cpu2_STLB LOAD         ACCESS:          0 HIT:          0 MISS:          0
cpu2_STLB RFO          ACCESS:          0 HIT:          0 MISS:          0
cpu2_STLB PREFETCH     ACCESS:          0 HIT:          0 MISS:          0
cpu2_STLB WRITE        ACCESS:          0 HIT:          0 MISS:          0
cpu2_STLB TRANSLATION  ACCESS:          0 HIT:          0 MISS:          0
cpu2_STLB PREFETCH REQUESTED:          0 ISSUED:          0 USEFUL:          0 USELESS:          0
cpu2_STLB AVERAGE MISS LATENCY: 497.5 cycles
cpu3_DTLB TOTAL        ACCESS:          0 HIT:          0 MISS:          0
cpu3_DTLB LOAD         ACCESS:          0 HIT:          0 MISS:          0
cpu3_DTLB RFO          ACCESS:          0 HIT:          0 MISS:          0
cpu3_DTLB PREFETCH     ACCESS:          0 HIT:          0 MISS:          0
cpu3_DTLB WRITE        ACCESS:          0 HIT:          0 MISS:          0
cpu3_DTLB TRANSLATION  ACCESS:          0 HIT:          0 MISS:          0
cpu3_DTLB PREFETCH REQUESTED:          0 ISSUED:          0 USEFUL:          0 USELESS:          0
cpu3_DTLB AVERAGE MISS LATENCY: 9.244 cycles
cpu3_DTLB TOTAL        ACCESS:          0 HIT:          0 MISS:          0
cpu3_DTLB LOAD         ACCESS:          0 HIT:          0 MISS:          0
cpu3_DTLB RFO          ACCESS:          0 HIT:          0 MISS:          0
cpu3_DTLB PREFETCH     ACCESS:          0 HIT:          0 MISS:          0
cpu3_DTLB WRITE        ACCESS:          0 HIT:          0 MISS:          0
cpu3_DTLB TRANSLATION  ACCESS:          0 HIT:          0 MISS:          0
cpu3_DTLB PREFETCH REQUESTED:          0 ISSUED:          0 USEFUL:          0 USELESS:          0
cpu3_DTLB AVERAGE MISS LATENCY: 9.244 cycles
cpu3_DTLB TOTAL        ACCESS:          0 HIT:          0 MISS:          0
cpu3_DTLB LOAD         ACCESS:          0 HIT:          0 MISS:          0
cpu3_DTLB RFO          ACCESS:          0 HIT:          0 MISS:          0
cpu3_DTLB PREFETCH     ACCESS:          0 HIT:          0 MISS:          0
cpu3_DTLB WRITE        ACCESS:          0 HIT:          0 MISS:          0
cpu3_DTLB TRANSLATION  ACCESS:          0 HIT:          0 MISS:          0
cpu3_DTLB PREFETCH REQUESTED:          0 ISSUED:          0 USEFUL:          0 USELESS:          0
cpu3_DTLB AVERAGE MISS LATENCY: 9.244 cycles
cpu3_DTLB TOTAL        ACCESS:   17949286 HIT:   17937996 MISS:      11290
cpu3_DTLB LOAD         ACCESS:   17949286 HIT:   17937996 MISS:      11290
cpu3_DTLB RFO          ACCESS:          0 HIT:          0 MISS:          0
cpu3_DTLB PREFETCH     ACCESS:          0 HIT:          0 MISS:          0
cpu3_DTLB WRITE        ACCESS:          0 HIT:          0 MISS:          0
cpu3_DTLB TRANSLATION  ACCESS:          0 HIT:          0 MISS:          0
cpu3_DTLB PREFETCH REQUESTED:          0 ISSUED:          0 USEFUL:          0 USELESS:          0
cpu3_DTLB AVERAGE MISS LATENCY: 9.244 cycles
cpu3_ITLB TOTAL        ACCESS:          0 HIT:          0 MISS:          0
cpu3_ITLB LOAD         ACCESS:          0 HIT:          0 MISS:          0
cpu3_ITLB RFO          ACCESS:          0 HIT:          0 MISS:          0
cpu3_ITLB PREFETCH     ACCESS:          0 HIT:          0 MISS:          0
cpu3_ITLB WRITE        ACCESS:          0 HIT:          0 MISS:          0
cpu3_ITLB TRANSLATION  ACCESS:          0 HIT:          0 MISS:          0
cpu3_ITLB PREFETCH REQUESTED:          0 ISSUED:          0 USEFUL:          0 USELESS:          0
cpu3_ITLB AVERAGE MISS LATENCY: 380.7 cycles
cpu3_ITLB TOTAL        ACCESS:          0 HIT:          0 MISS:          0
cpu3_ITLB LOAD         ACCESS:          0 HIT:          0 MISS:          0
cpu3_ITLB RFO          ACCESS:          0 HIT:          0 MISS:          0
cpu3_ITLB PREFETCH     ACCESS:          0 HIT:          0 MISS:          0
cpu3_ITLB WRITE        ACCESS:          0 HIT:          0 MISS:          0
cpu3_ITLB TRANSLATION  ACCESS:          0 HIT:          0 MISS:          0
cpu3_ITLB PREFETCH REQUESTED:          0 ISSUED:          0 USEFUL:          0 USELESS:          0
cpu3_ITLB AVERAGE MISS LATENCY: 380.7 cycles
cpu3_ITLB TOTAL        ACCESS:          0 HIT:          0 MISS:          0
cpu3_ITLB LOAD         ACCESS:          0 HIT:          0 MISS:          0
cpu3_ITLB RFO          ACCESS:          0 HIT:          0 MISS:          0
cpu3_ITLB PREFETCH     ACCESS:          0 HIT:          0 MISS:          0
cpu3_ITLB WRITE        ACCESS:          0 HIT:          0 MISS:          0
cpu3_ITLB TRANSLATION  ACCESS:          0 HIT:          0 MISS:          0
cpu3_ITLB PREFETCH REQUESTED:          0 ISSUED:          0 USEFUL:          0 USELESS:          0
cpu3_ITLB AVERAGE MISS LATENCY: 380.7 cycles
cpu3_ITLB TOTAL        ACCESS:     508724 HIT:     508724 MISS:          0
cpu3_ITLB LOAD         ACCESS:     508724 HIT:     508724 MISS:          0
cpu3_ITLB RFO          ACCESS:          0 HIT:          0 MISS:          0
cpu3_ITLB PREFETCH     ACCESS:          0 HIT:          0 MISS:          0
cpu3_ITLB WRITE        ACCESS:          0 HIT:          0 MISS:          0
cpu3_ITLB TRANSLATION  ACCESS:          0 HIT:          0 MISS:          0
cpu3_ITLB PREFETCH REQUESTED:          0 ISSUED:          0 USEFUL:          0 USELESS:          0
cpu3_ITLB AVERAGE MISS LATENCY: 380.7 cycles
cpu3_L1D TOTAL        ACCESS:          0 HIT:          0 MISS:          0
cpu3_L1D LOAD         ACCESS:          0 HIT:          0 MISS:          0
cpu3_L1D RFO          ACCESS:          0 HIT:          0 MISS:          0
cpu3_L1D PREFETCH     ACCESS:          0 HIT:          0 MISS:          0
cpu3_L1D WRITE        ACCESS:          0 HIT:          0 MISS:          0
cpu3_L1D TRANSLATION  ACCESS:          0 HIT:          0 MISS:          0
cpu3_L1D PREFETCH REQUESTED:   10789253 ISSUED:    1425713 USEFUL:      97842 USELESS:      25592
cpu3_L1D AVERAGE MISS LATENCY: 119.6 cycles
cpu3_L1D TOTAL        ACCESS:          0 HIT:          0 MISS:          0
cpu3_L1D LOAD         ACCESS:          0 HIT:          0 MISS:          0
cpu3_L1D RFO          ACCESS:          0 HIT:          0 MISS:          0
cpu3_L1D PREFETCH     ACCESS:          0 HIT:          0 MISS:          0
cpu3_L1D WRITE        ACCESS:          0 HIT:          0 MISS:          0
cpu3_L1D TRANSLATION  ACCESS:          0 HIT:          0 MISS:          0
cpu3_L1D PREFETCH REQUESTED:   10789253 ISSUED:    1425713 USEFUL:      97842 USELESS:      25592
cpu3_L1D AVERAGE MISS LATENCY: 119.6 cycles
cpu3_L1D TOTAL        ACCESS:          0 HIT:          0 MISS:          0
cpu3_L1D LOAD         ACCESS:          0 HIT:          0 MISS:          0
cpu3_L1D RFO          ACCESS:          0 HIT:          0 MISS:          0
cpu3_L1D PREFETCH     ACCESS:          0 HIT:          0 MISS:          0
cpu3_L1D WRITE        ACCESS:          0 HIT:          0 MISS:          0
cpu3_L1D TRANSLATION  ACCESS:          0 HIT:          0 MISS:          0
cpu3_L1D PREFETCH REQUESTED:   10789253 ISSUED:    1425713 USEFUL:      97842 USELESS:      25592
cpu3_L1D AVERAGE MISS LATENCY: 119.6 cycles
cpu3_L1D TOTAL        ACCESS:   22043289 HIT:   22018977 MISS:      24312
cpu3_L1D LOAD         ACCESS:   16433784 HIT:   16431696 MISS:       2088
cpu3_L1D RFO          ACCESS:          0 HIT:          0 MISS:          0
cpu3_L1D PREFETCH     ACCESS:      25037 HIT:      13779 MISS:      11258
cpu3_L1D WRITE        ACCESS:    5584290 HIT:    5573484 MISS:      10806
cpu3_L1D TRANSLATION  ACCESS:        178 HIT:         18 MISS:        160
cpu3_L1D PREFETCH REQUESTED:   10789253 ISSUED:    1425713 USEFUL:      97842 USELESS:      25592
cpu3_L1D AVERAGE MISS LATENCY: 119.6 cycles
cpu3_L1I TOTAL        ACCESS:          0 HIT:          0 MISS:          0
cpu3_L1I LOAD         ACCESS:          0 HIT:          0 MISS:          0
cpu3_L1I RFO          ACCESS:          0 HIT:          0 MISS:          0
cpu3_L1I PREFETCH     ACCESS:          0 HIT:          0 MISS:          0
cpu3_L1I WRITE        ACCESS:          0 HIT:          0 MISS:          0
cpu3_L1I TRANSLATION  ACCESS:          0 HIT:          0 MISS:          0
cpu3_L1I PREFETCH REQUESTED:          0 ISSUED:          0 USEFUL:          0 USELESS:          0
cpu3_L1I AVERAGE MISS LATENCY: 9.884 cycles
cpu3_L1I TOTAL        ACCESS:          0 HIT:          0 MISS:          0
cpu3_L1I LOAD         ACCESS:          0 HIT:          0 MISS:          0
cpu3_L1I RFO          ACCESS:          0 HIT:          0 MISS:          0
cpu3_L1I PREFETCH     ACCESS:          0 HIT:          0 MISS:          0
cpu3_L1I WRITE        ACCESS:          0 HIT:          0 MISS:          0
cpu3_L1I TRANSLATION  ACCESS:          0 HIT:          0 MISS:          0
cpu3_L1I PREFETCH REQUESTED:          0 ISSUED:          0 USEFUL:          0 USELESS:          0
cpu3_L1I AVERAGE MISS LATENCY: 9.884 cycles
cpu3_L1I TOTAL        ACCESS:          0 HIT:          0 MISS:          0
cpu3_L1I LOAD         ACCESS:          0 HIT:          0 MISS:          0
cpu3_L1I RFO          ACCESS:          0 HIT:          0 MISS:          0
cpu3_L1I PREFETCH     ACCESS:          0 HIT:          0 MISS:          0
cpu3_L1I WRITE        ACCESS:          0 HIT:          0 MISS:          0
cpu3_L1I TRANSLATION  ACCESS:          0 HIT:          0 MISS:          0
cpu3_L1I PREFETCH REQUESTED:          0 ISSUED:          0 USEFUL:          0 USELESS:          0
cpu3_L1I AVERAGE MISS LATENCY: 9.884 cycles
cpu3_L1I TOTAL        ACCESS:     563570 HIT:     562054 MISS:       1516
cpu3_L1I LOAD         ACCESS:     563570 HIT:     562054 MISS:       1516
cpu3_L1I RFO          ACCESS:          0 HIT:          0 MISS:          0
cpu3_L1I PREFETCH     ACCESS:          0 HIT:          0 MISS:          0
cpu3_L1I WRITE        ACCESS:          0 HIT:          0 MISS:          0
cpu3_L1I TRANSLATION  ACCESS:          0 HIT:          0 MISS:          0
cpu3_L1I PREFETCH REQUESTED:          0 ISSUED:          0 USEFUL:          0 USELESS:          0
cpu3_L1I AVERAGE MISS LATENCY: 9.884 cycles
cpu3_L2C TOTAL        ACCESS:          0 HIT:          0 MISS:          0
cpu3_L2C LOAD         ACCESS:          0 HIT:          0 MISS:          0
cpu3_L2C RFO          ACCESS:          0 HIT:          0 MISS:          0
cpu3_L2C PREFETCH     ACCESS:          0 HIT:          0 MISS:          0
cpu3_L2C WRITE        ACCESS:          0 HIT:          0 MISS:          0
cpu3_L2C TRANSLATION  ACCESS:          0 HIT:          0 MISS:          0
cpu3_L2C PREFETCH REQUESTED:          0 ISSUED:          0 USEFUL:          0 USELESS:          0
cpu3_L2C AVERAGE MISS LATENCY: 1147 cycles
cpu3_L2C TOTAL        ACCESS:          0 HIT:          0 MISS:          0
cpu3_L2C LOAD         ACCESS:          0 HIT:          0 MISS:          0
cpu3_L2C RFO          ACCESS:          0 HIT:          0 MISS:          0
cpu3_L2C PREFETCH     ACCESS:          0 HIT:          0 MISS:          0
cpu3_L2C WRITE        ACCESS:          0 HIT:          0 MISS:          0
cpu3_L2C TRANSLATION  ACCESS:          0 HIT:          0 MISS:          0
cpu3_L2C PREFETCH REQUESTED:          0 ISSUED:          0 USEFUL:          0 USELESS:          0
cpu3_L2C AVERAGE MISS LATENCY: 1147 cycles
cpu3_L2C TOTAL        ACCESS:          0 HIT:          0 MISS:          0
cpu3_L2C LOAD         ACCESS:          0 HIT:          0 MISS:          0
cpu3_L2C RFO          ACCESS:          0 HIT:          0 MISS:          0
cpu3_L2C PREFETCH     ACCESS:          0 HIT:          0 MISS:          0
cpu3_L2C WRITE        ACCESS:          0 HIT:          0 MISS:          0
cpu3_L2C TRANSLATION  ACCESS:          0 HIT:          0 MISS:          0
cpu3_L2C PREFETCH REQUESTED:          0 ISSUED:          0 USEFUL:          0 USELESS:          0
cpu3_L2C AVERAGE MISS LATENCY: 1147 cycles
cpu3_L2C TOTAL        ACCESS:      19442 HIT:      12283 MISS:       7159
cpu3_L2C LOAD         ACCESS:       2235 HIT:       1409 MISS:        826
cpu3_L2C RFO          ACCESS:       2662 HIT:        120 MISS:       2542
cpu3_L2C PREFETCH     ACCESS:      11153 HIT:       7470 MISS:       3683
cpu3_L2C WRITE        ACCESS:       3232 HIT:       3226 MISS:          6
cpu3_L2C TRANSLATION  ACCESS:        160 HIT:         58 MISS:        102
cpu3_L2C PREFETCH REQUESTED:          0 ISSUED:          0 USEFUL:          0 USELESS:          0
cpu3_L2C AVERAGE MISS LATENCY: 1147 cycles
cpu3_STLB TOTAL        ACCESS:          0 HIT:          0 MISS:          0
cpu3_STLB LOAD         ACCESS:          0 HIT:          0 MISS:          0
cpu3_STLB RFO          ACCESS:          0 HIT:          0 MISS:          0
cpu3_STLB PREFETCH     ACCESS:          0 HIT:          0 MISS:          0
cpu3_STLB WRITE        ACCESS:          0 HIT:          0 MISS:          0
cpu3_STLB TRANSLATION  ACCESS:          0 HIT:          0 MISS:          0
cpu3_STLB PREFETCH REQUESTED:          0 ISSUED:          0 USEFUL:          0 USELESS:          0
cpu3_STLB AVERAGE MISS LATENCY: 459.2 cycles
cpu3_STLB TOTAL        ACCESS:          0 HIT:          0 MISS:          0
cpu3_STLB LOAD         ACCESS:          0 HIT:          0 MISS:          0
cpu3_STLB RFO          ACCESS:          0 HIT:          0 MISS:          0
cpu3_STLB PREFETCH     ACCESS:          0 HIT:          0 MISS:          0
cpu3_STLB WRITE        ACCESS:          0 HIT:          0 MISS:          0
cpu3_STLB TRANSLATION  ACCESS:          0 HIT:          0 MISS:          0
cpu3_STLB PREFETCH REQUESTED:          0 ISSUED:          0 USEFUL:          0 USELESS:          0
cpu3_STLB AVERAGE MISS LATENCY: 459.2 cycles
cpu3_STLB TOTAL        ACCESS:          0 HIT:          0 MISS:          0
cpu3_STLB LOAD         ACCESS:          0 HIT:          0 MISS:          0
cpu3_STLB RFO          ACCESS:          0 HIT:          0 MISS:          0
cpu3_STLB PREFETCH     ACCESS:          0 HIT:          0 MISS:          0
cpu3_STLB WRITE        ACCESS:          0 HIT:          0 MISS:          0
cpu3_STLB TRANSLATION  ACCESS:          0 HIT:          0 MISS:          0
cpu3_STLB PREFETCH REQUESTED:          0 ISSUED:          0 USEFUL:          0 USELESS:          0
cpu3_STLB AVERAGE MISS LATENCY: 459.2 cycles
cpu3_STLB TOTAL        ACCESS:      10011 HIT:       9834 MISS:        177
cpu3_STLB LOAD         ACCESS:      10011 HIT:       9834 MISS:        177
cpu3_STLB RFO          ACCESS:          0 HIT:          0 MISS:          0
cpu3_STLB PREFETCH     ACCESS:          0 HIT:          0 MISS:          0
cpu3_STLB WRITE        ACCESS:          0 HIT:          0 MISS:          0
cpu3_STLB TRANSLATION  ACCESS:          0 HIT:          0 MISS:          0
cpu3_STLB PREFETCH REQUESTED:          0 ISSUED:          0 USEFUL:          0 USELESS:          0
cpu3_STLB AVERAGE MISS LATENCY: 459.2 cycles

DRAM Statistics

Channel 0 RQ ROW_BUFFER_HIT:     784378
  ROW_BUFFER_MISS:    1244056
 AVG DBUS CONGESTED CYCLE: 3.965
WQ ROW_BUFFER_HIT: Channel 0 
  ROW_BUFFER_MISS:      82789
  FULL:    1043734

Channel 1 RQ ROW_BUFFER_HIT:     784376
  ROW_BUFFER_MISS:    1238576
 AVG DBUS CONGESTED CYCLE: 3.965
WQ ROW_BUFFER_HIT: Channel 1 
  ROW_BUFFER_MISS:      82937
  FULL:    1043064
BERTI TO_L1: 64585016 TO_L2: 62203341 TO_L2_BC_MSHR: 14763660
BERTI AVG_LAT: 148.702 NUM_TRACK_LATENCY: 24782966 NUM_CANT_TRACK_LATENCY: 108672
BERTI CROSS_PAGE 20808495 NO_CROSS_PAGE: 105979862
BERTI FOUND_BERTI: 24403301 NO_FOUND_BERTI: 123705568
BERTI AVERAGE_ISSUED: 3.29319
BERTI TO_L1: 64585016 TO_L2: 62203341 TO_L2_BC_MSHR: 14763660
BERTI AVG_LAT: 148.702 NUM_TRACK_LATENCY: 24782966 NUM_CANT_TRACK_LATENCY: 108672
BERTI CROSS_PAGE 20808495 NO_CROSS_PAGE: 105979862
BERTI FOUND_BERTI: 24403301 NO_FOUND_BERTI: 123705568
BERTI AVERAGE_ISSUED: 3.29319
BERTI TO_L1: 64585016 TO_L2: 62203341 TO_L2_BC_MSHR: 14763660
BERTI AVG_LAT: 148.702 NUM_TRACK_LATENCY: 24782966 NUM_CANT_TRACK_LATENCY: 108672
BERTI CROSS_PAGE 20808495 NO_CROSS_PAGE: 105979862
BERTI FOUND_BERTI: 24403301 NO_FOUND_BERTI: 123705568
BERTI AVERAGE_ISSUED: 3.29319
BERTI TO_L1: 64585016 TO_L2: 62203341 TO_L2_BC_MSHR: 14763660
BERTI AVG_LAT: 148.702 NUM_TRACK_LATENCY: 24782966 NUM_CANT_TRACK_LATENCY: 108672
BERTI CROSS_PAGE 20808495 NO_CROSS_PAGE: 105979862
BERTI FOUND_BERTI: 24403301 NO_FOUND_BERTI: 123705568
BERTI AVERAGE_ISSUED: 3.29319
