Original cmd-> /home/grads/r/rdas40/ECEN676/ChampSim/bin/multi_core/berti_2ch --warmup_instructions=50000000 --simulation_instructions=150000000  /home/grads/r/rdas40/dpc3_traces/620.omnetpp_s-874B.champsimtrace.xz /home/grads/r/rdas40/dpc3_traces/644.nab_s-5853B.champsimtrace.xz /home/grads/r/rdas40/dpc3_traces/623.xalancbmk_s-700B.champsimtrace.xz /home/grads/r/rdas40/dpc3_traces/621.wrf_s-575B.champsimtrace.xz
WARNING: physical memory size is smaller than virtual memory size.
WARNING: option --warmup_instructions is deprecated. Use --warmup-instructions instead.
WARNING: option --simulation_instructions is deprecated. Use --simulation-instructions instead.

*** ChampSim Multicore Out-of-Order Simulator ***
Warmup Instructions: 50000000
Simulation Instructions: 150000000
Number of CPUs: 4
Page size: 4096

Berti Prefetcher
BERTI HASH ORIGINAL
BERTI IP MASK ffff
Berti Prefetcher
BERTI HASH ORIGINAL
BERTI IP MASK ffff
Berti Prefetcher
BERTI HASH ORIGINAL
BERTI IP MASK ffff
Berti Prefetcher
BERTI HASH ORIGINAL
BERTI IP MASK ffff
Off-chip DRAM Size: 8 GiB Channels: 2 Width: 64-bit Data Race: 3200 MT/s
Heartbeat CPU 3 instructions: 10000001 cycles: 2502764 heartbeat IPC: 3.996 cumulative IPC: 3.996 (Simulation time: 00 hr 03 min 17 sec)
Heartbeat CPU 1 instructions: 10000001 cycles: 2991568 heartbeat IPC: 3.343 cumulative IPC: 3.343 (Simulation time: 00 hr 03 min 55 sec)
Heartbeat CPU 2 instructions: 10000002 cycles: 3063299 heartbeat IPC: 3.264 cumulative IPC: 3.264 (Simulation time: 00 hr 04 min 01 sec)
Heartbeat CPU 0 instructions: 10000002 cycles: 4174702 heartbeat IPC: 2.395 cumulative IPC: 2.395 (Simulation time: 00 hr 05 min 29 sec)
Heartbeat CPU 3 instructions: 20000000 cycles: 5005381 heartbeat IPC: 3.996 cumulative IPC: 3.996 (Simulation time: 00 hr 06 min 35 sec)
Heartbeat CPU 2 instructions: 20000002 cycles: 5747656 heartbeat IPC: 3.725 cumulative IPC: 3.48 (Simulation time: 00 hr 07 min 34 sec)
Heartbeat CPU 1 instructions: 20000003 cycles: 5982162 heartbeat IPC: 3.344 cumulative IPC: 3.343 (Simulation time: 00 hr 07 min 53 sec)
Heartbeat CPU 3 instructions: 30000001 cycles: 7507708 heartbeat IPC: 3.996 cumulative IPC: 3.996 (Simulation time: 00 hr 09 min 56 sec)
Heartbeat CPU 0 instructions: 20000004 cycles: 8347481 heartbeat IPC: 2.396 cumulative IPC: 2.396 (Simulation time: 00 hr 11 min 03 sec)
Heartbeat CPU 2 instructions: 30000001 cycles: 8966147 heartbeat IPC: 3.107 cumulative IPC: 3.346 (Simulation time: 00 hr 11 min 53 sec)
Heartbeat CPU 1 instructions: 30000000 cycles: 8968918 heartbeat IPC: 3.348 cumulative IPC: 3.345 (Simulation time: 00 hr 11 min 53 sec)
Heartbeat CPU 3 instructions: 40000001 cycles: 10010384 heartbeat IPC: 3.996 cumulative IPC: 3.996 (Simulation time: 00 hr 13 min 16 sec)
Heartbeat CPU 1 instructions: 40000001 cycles: 11937775 heartbeat IPC: 3.368 cumulative IPC: 3.351 (Simulation time: 00 hr 15 min 50 sec)
Heartbeat CPU 2 instructions: 40000004 cycles: 12219338 heartbeat IPC: 3.074 cumulative IPC: 3.274 (Simulation time: 00 hr 16 min 13 sec)
Heartbeat CPU 3 instructions: 50000002 cycles: 12513096 heartbeat IPC: 3.996 cumulative IPC: 3.996 (Simulation time: 00 hr 16 min 36 sec)
Warmup finished CPU 3 instructions: 50000002 cycles: 12513097 cumulative IPC: 3.996 (Simulation time: 00 hr 16 min 36 sec)
Heartbeat CPU 0 instructions: 30000001 cycles: 12520233 heartbeat IPC: 2.396 cumulative IPC: 2.396 (Simulation time: 00 hr 16 min 37 sec)
Heartbeat CPU 1 instructions: 50000002 cycles: 14909318 heartbeat IPC: 3.365 cumulative IPC: 3.354 (Simulation time: 00 hr 19 min 48 sec)
Warmup finished CPU 1 instructions: 50000002 cycles: 14909319 cumulative IPC: 3.354 (Simulation time: 00 hr 19 min 48 sec)
Heartbeat CPU 3 instructions: 60000001 cycles: 15015694 heartbeat IPC: 3.996 cumulative IPC: 3.996 (Simulation time: 00 hr 19 min 57 sec)
Heartbeat CPU 2 instructions: 50000000 cycles: 15372874 heartbeat IPC: 3.171 cumulative IPC: 3.252 (Simulation time: 00 hr 20 min 25 sec)
Warmup finished CPU 2 instructions: 50000000 cycles: 15372875 cumulative IPC: 3.252 (Simulation time: 00 hr 20 min 25 sec)
Heartbeat CPU 0 instructions: 40000004 cycles: 16708190 heartbeat IPC: 2.388 cumulative IPC: 2.394 (Simulation time: 00 hr 22 min 11 sec)
Heartbeat CPU 3 instructions: 70000001 cycles: 17520487 heartbeat IPC: 3.992 cumulative IPC: 3.995 (Simulation time: 00 hr 23 min 16 sec)
Heartbeat CPU 1 instructions: 60000001 cycles: 17888103 heartbeat IPC: 3.357 cumulative IPC: 3.354 (Simulation time: 00 hr 23 min 45 sec)
Heartbeat CPU 2 instructions: 60000001 cycles: 18081502 heartbeat IPC: 3.692 cumulative IPC: 3.318 (Simulation time: 00 hr 24 min 00 sec)
Heartbeat CPU 3 instructions: 80000000 cycles: 20022662 heartbeat IPC: 3.997 cumulative IPC: 3.995 (Simulation time: 00 hr 26 min 36 sec)
Heartbeat CPU 2 instructions: 70000000 cycles: 20807652 heartbeat IPC: 3.668 cumulative IPC: 3.364 (Simulation time: 00 hr 27 min 40 sec)
Heartbeat CPU 1 instructions: 70000000 cycles: 20872313 heartbeat IPC: 3.351 cumulative IPC: 3.354 (Simulation time: 00 hr 27 min 45 sec)
Heartbeat CPU 0 instructions: 50000003 cycles: 20872860 heartbeat IPC: 2.401 cumulative IPC: 2.395 (Simulation time: 00 hr 27 min 45 sec)
Warmup finished CPU 0 instructions: 50000003 cycles: 20872861 cumulative IPC: 2.395 (Simulation time: 00 hr 27 min 45 sec)
Warmup complete CPU 0 instructions: 50000003 cycles: 20872861 cumulative IPC: 2.395 (Simulation time: 00 hr 27 min 45 sec)
Warmup complete CPU 1 instructions: 70001874 cycles: 20872861 cumulative IPC: 3.354 (Simulation time: 00 hr 27 min 45 sec)
Warmup complete CPU 2 instructions: 70223532 cycles: 20872861 cumulative IPC: 3.364 (Simulation time: 00 hr 27 min 45 sec)
Warmup complete CPU 3 instructions: 83400792 cycles: 20872861 cumulative IPC: 3.996 (Simulation time: 00 hr 27 min 45 sec)
Heartbeat CPU 3 instructions: 90000004 cycles: 23959703 heartbeat IPC: 2.54 cumulative IPC: 2.138 (Simulation time: 00 hr 30 min 29 sec)
Heartbeat CPU 1 instructions: 80000003 cycles: 25291456 heartbeat IPC: 2.263 cumulative IPC: 2.263 (Simulation time: 00 hr 31 min 41 sec)
Heartbeat CPU 2 instructions: 80000001 cycles: 27810931 heartbeat IPC: 1.428 cumulative IPC: 1.409 (Simulation time: 00 hr 33 min 57 sec)
Heartbeat CPU 3 instructions: 100000000 cycles: 28666269 heartbeat IPC: 2.125 cumulative IPC: 2.13 (Simulation time: 00 hr 34 min 43 sec)
Heartbeat CPU 1 instructions: 90000002 cycles: 29957073 heartbeat IPC: 2.143 cumulative IPC: 2.201 (Simulation time: 00 hr 35 min 52 sec)
Heartbeat CPU 3 instructions: 110000001 cycles: 33353153 heartbeat IPC: 2.134 cumulative IPC: 2.131 (Simulation time: 00 hr 38 min 54 sec)
Heartbeat CPU 2 instructions: 90000001 cycles: 33655726 heartbeat IPC: 1.711 cumulative IPC: 1.547 (Simulation time: 00 hr 39 min 11 sec)
Heartbeat CPU 1 instructions: 100000000 cycles: 35124042 heartbeat IPC: 1.935 cumulative IPC: 2.105 (Simulation time: 00 hr 40 min 26 sec)
Heartbeat CPU 0 instructions: 60000000 cycles: 35231186 heartbeat IPC: 0.6965 cumulative IPC: 0.6965 (Simulation time: 00 hr 40 min 31 sec)
Heartbeat CPU 3 instructions: 120000000 cycles: 37968562 heartbeat IPC: 2.167 cumulative IPC: 2.141 (Simulation time: 00 hr 42 min 56 sec)
Heartbeat CPU 1 instructions: 110000004 cycles: 40116766 heartbeat IPC: 2.003 cumulative IPC: 2.078 (Simulation time: 00 hr 44 min 47 sec)
Heartbeat CPU 2 instructions: 100000002 cycles: 40462540 heartbeat IPC: 1.469 cumulative IPC: 1.52 (Simulation time: 00 hr 45 min 05 sec)
Heartbeat CPU 3 instructions: 130000002 cycles: 42614435 heartbeat IPC: 2.152 cumulative IPC: 2.143 (Simulation time: 00 hr 47 min 00 sec)
Heartbeat CPU 1 instructions: 120000000 cycles: 44667250 heartbeat IPC: 2.198 cumulative IPC: 2.101 (Simulation time: 00 hr 48 min 48 sec)
Heartbeat CPU 2 instructions: 110000004 cycles: 46916722 heartbeat IPC: 1.549 cumulative IPC: 1.527 (Simulation time: 00 hr 50 min 50 sec)
Heartbeat CPU 3 instructions: 140000000 cycles: 47268772 heartbeat IPC: 2.149 cumulative IPC: 2.144 (Simulation time: 00 hr 51 min 09 sec)
Heartbeat CPU 1 instructions: 130000003 cycles: 49214245 heartbeat IPC: 2.199 cumulative IPC: 2.117 (Simulation time: 00 hr 52 min 52 sec)
Heartbeat CPU 0 instructions: 70000002 cycles: 49622966 heartbeat IPC: 0.6948 cumulative IPC: 0.6956 (Simulation time: 00 hr 53 min 14 sec)
Heartbeat CPU 3 instructions: 150000004 cycles: 51870439 heartbeat IPC: 2.173 cumulative IPC: 2.149 (Simulation time: 00 hr 55 min 15 sec)
Heartbeat CPU 2 instructions: 120000000 cycles: 53157268 heartbeat IPC: 1.602 cumulative IPC: 1.542 (Simulation time: 00 hr 56 min 23 sec)
Heartbeat CPU 1 instructions: 140000000 cycles: 53860583 heartbeat IPC: 2.152 cumulative IPC: 2.122 (Simulation time: 00 hr 57 min 01 sec)
Heartbeat CPU 3 instructions: 160000003 cycles: 56471765 heartbeat IPC: 2.173 cumulative IPC: 2.152 (Simulation time: 00 hr 59 min 26 sec)
Heartbeat CPU 2 instructions: 130000001 cycles: 58279669 heartbeat IPC: 1.952 cumulative IPC: 1.598 (Simulation time: 01 hr 01 min 11 sec)
Heartbeat CPU 1 instructions: 150000003 cycles: 58505375 heartbeat IPC: 2.153 cumulative IPC: 2.126 (Simulation time: 01 hr 01 min 24 sec)
Heartbeat CPU 3 instructions: 170000003 cycles: 61056757 heartbeat IPC: 2.181 cumulative IPC: 2.155 (Simulation time: 01 hr 03 min 49 sec)
Heartbeat CPU 1 instructions: 160000000 cycles: 63154939 heartbeat IPC: 2.151 cumulative IPC: 2.129 (Simulation time: 01 hr 05 min 47 sec)
Heartbeat CPU 2 instructions: 140000000 cycles: 63555523 heartbeat IPC: 1.895 cumulative IPC: 1.635 (Simulation time: 01 hr 06 min 08 sec)
Heartbeat CPU 0 instructions: 80000002 cycles: 64431916 heartbeat IPC: 0.6753 cumulative IPC: 0.6887 (Simulation time: 01 hr 06 min 55 sec)
Heartbeat CPU 3 instructions: 180000004 cycles: 65652729 heartbeat IPC: 2.176 cumulative IPC: 2.157 (Simulation time: 01 hr 07 min 56 sec)
Heartbeat CPU 1 instructions: 170000003 cycles: 67819039 heartbeat IPC: 2.144 cumulative IPC: 2.13 (Simulation time: 01 hr 09 min 50 sec)
Heartbeat CPU 3 instructions: 190000002 cycles: 70260287 heartbeat IPC: 2.17 cumulative IPC: 2.158 (Simulation time: 01 hr 12 min 00 sec)
Heartbeat CPU 2 instructions: 150000004 cycles: 70611889 heartbeat IPC: 1.417 cumulative IPC: 1.604 (Simulation time: 01 hr 12 min 18 sec)
Heartbeat CPU 1 instructions: 180000000 cycles: 72472148 heartbeat IPC: 2.149 cumulative IPC: 2.132 (Simulation time: 01 hr 13 min 57 sec)
Heartbeat CPU 3 instructions: 200000000 cycles: 74865555 heartbeat IPC: 2.171 cumulative IPC: 2.16 (Simulation time: 01 hr 16 min 15 sec)
Heartbeat CPU 2 instructions: 160000002 cycles: 76451384 heartbeat IPC: 1.712 cumulative IPC: 1.615 (Simulation time: 01 hr 17 min 38 sec)
Heartbeat CPU 1 instructions: 190000000 cycles: 77133313 heartbeat IPC: 2.145 cumulative IPC: 2.133 (Simulation time: 01 hr 18 min 14 sec)
Heartbeat CPU 0 instructions: 90000001 cycles: 78541411 heartbeat IPC: 0.7087 cumulative IPC: 0.6936 (Simulation time: 01 hr 19 min 28 sec)
Heartbeat CPU 3 instructions: 210000000 cycles: 79435353 heartbeat IPC: 2.188 cumulative IPC: 2.162 (Simulation time: 01 hr 20 min 16 sec)
Heartbeat CPU 1 instructions: 200000004 cycles: 81790123 heartbeat IPC: 2.147 cumulative IPC: 2.134 (Simulation time: 01 hr 22 min 24 sec)
Heartbeat CPU 2 instructions: 170000004 cycles: 82692772 heartbeat IPC: 1.602 cumulative IPC: 1.614 (Simulation time: 01 hr 23 min 12 sec)
Heartbeat CPU 3 instructions: 220000000 cycles: 83998378 heartbeat IPC: 2.192 cumulative IPC: 2.164 (Simulation time: 01 hr 24 min 20 sec)
Heartbeat CPU 1 instructions: 210000003 cycles: 86446117 heartbeat IPC: 2.148 cumulative IPC: 2.135 (Simulation time: 01 hr 26 min 29 sec)
Heartbeat CPU 3 instructions: 230000001 cycles: 88577190 heartbeat IPC: 2.184 cumulative IPC: 2.165 (Simulation time: 01 hr 28 min 23 sec)
Heartbeat CPU 2 instructions: 180000002 cycles: 89210892 heartbeat IPC: 1.534 cumulative IPC: 1.606 (Simulation time: 01 hr 28 min 56 sec)
Simulation finished CPU 3 instructions: 150000000 cycles: 69288546 cumulative IPC: 2.165 (Simulation time: 01 hr 29 min 46 sec)
Heartbeat CPU 1 instructions: 220000004 cycles: 91002674 heartbeat IPC: 2.195 cumulative IPC: 2.139 (Simulation time: 01 hr 30 min 32 sec)
Simulation finished CPU 1 instructions: 150000003 cycles: 70130476 cumulative IPC: 2.139 (Simulation time: 01 hr 30 min 32 sec)
Heartbeat CPU 3 instructions: 240000000 cycles: 93179529 heartbeat IPC: 2.173 cumulative IPC: 2.166 (Simulation time: 01 hr 32 min 28 sec)
Heartbeat CPU 0 instructions: 100000000 cycles: 93390300 heartbeat IPC: 0.6735 cumulative IPC: 0.6895 (Simulation time: 01 hr 32 min 39 sec)
Heartbeat CPU 2 instructions: 190000001 cycles: 95494496 heartbeat IPC: 1.591 cumulative IPC: 1.605 (Simulation time: 01 hr 34 min 33 sec)
Heartbeat CPU 1 instructions: 230000002 cycles: 95548794 heartbeat IPC: 2.2 cumulative IPC: 2.143 (Simulation time: 01 hr 34 min 36 sec)
Heartbeat CPU 3 instructions: 250000002 cycles: 97792575 heartbeat IPC: 2.168 cumulative IPC: 2.166 (Simulation time: 01 hr 36 min 36 sec)
Heartbeat CPU 1 instructions: 240000002 cycles: 100123865 heartbeat IPC: 2.186 cumulative IPC: 2.145 (Simulation time: 01 hr 38 min 45 sec)
Heartbeat CPU 2 instructions: 200000002 cycles: 101079941 heartbeat IPC: 1.79 cumulative IPC: 1.618 (Simulation time: 01 hr 39 min 41 sec)
Heartbeat CPU 3 instructions: 260000000 cycles: 102424197 heartbeat IPC: 2.159 cumulative IPC: 2.165 (Simulation time: 01 hr 41 min 00 sec)
Heartbeat CPU 1 instructions: 250000003 cycles: 104636118 heartbeat IPC: 2.216 cumulative IPC: 2.149 (Simulation time: 01 hr 43 min 08 sec)
Heartbeat CPU 2 instructions: 210000001 cycles: 105836834 heartbeat IPC: 2.102 cumulative IPC: 1.645 (Simulation time: 01 hr 44 min 19 sec)
Heartbeat CPU 3 instructions: 270000000 cycles: 107039793 heartbeat IPC: 2.167 cumulative IPC: 2.166 (Simulation time: 01 hr 45 min 27 sec)
Heartbeat CPU 0 instructions: 110000004 cycles: 107712897 heartbeat IPC: 0.6982 cumulative IPC: 0.6909 (Simulation time: 01 hr 46 min 04 sec)
Heartbeat CPU 1 instructions: 260000001 cycles: 109178965 heartbeat IPC: 2.201 cumulative IPC: 2.152 (Simulation time: 01 hr 47 min 22 sec)
Heartbeat CPU 3 instructions: 280000001 cycles: 111657191 heartbeat IPC: 2.166 cumulative IPC: 2.166 (Simulation time: 01 hr 49 min 28 sec)
Heartbeat CPU 2 instructions: 220000000 cycles: 112656965 heartbeat IPC: 1.466 cumulative IPC: 1.632 (Simulation time: 01 hr 50 min 21 sec)
Simulation finished CPU 2 instructions: 150000001 cycles: 91934118 cumulative IPC: 1.632 (Simulation time: 01 hr 50 min 29 sec)
Heartbeat CPU 1 instructions: 270000001 cycles: 113784548 heartbeat IPC: 2.171 cumulative IPC: 2.153 (Simulation time: 01 hr 51 min 20 sec)
Heartbeat CPU 3 instructions: 290000004 cycles: 116283366 heartbeat IPC: 2.162 cumulative IPC: 2.165 (Simulation time: 01 hr 53 min 35 sec)
Heartbeat CPU 1 instructions: 280000001 cycles: 118262318 heartbeat IPC: 2.233 cumulative IPC: 2.156 (Simulation time: 01 hr 55 min 21 sec)
Heartbeat CPU 2 instructions: 230000000 cycles: 119081240 heartbeat IPC: 1.557 cumulative IPC: 1.627 (Simulation time: 01 hr 56 min 05 sec)
Heartbeat CPU 3 instructions: 300000000 cycles: 120894779 heartbeat IPC: 2.169 cumulative IPC: 2.166 (Simulation time: 01 hr 57 min 43 sec)
Heartbeat CPU 0 instructions: 120000004 cycles: 122650719 heartbeat IPC: 0.6694 cumulative IPC: 0.6878 (Simulation time: 01 hr 59 min 19 sec)
Heartbeat CPU 1 instructions: 290000000 cycles: 122682456 heartbeat IPC: 2.262 cumulative IPC: 2.161 (Simulation time: 01 hr 59 min 21 sec)
Heartbeat CPU 2 instructions: 240000001 cycles: 125221469 heartbeat IPC: 1.629 cumulative IPC: 1.627 (Simulation time: 02 hr 01 min 48 sec)
Heartbeat CPU 3 instructions: 310000001 cycles: 125503808 heartbeat IPC: 2.17 cumulative IPC: 2.166 (Simulation time: 02 hr 02 min 05 sec)
Heartbeat CPU 1 instructions: 300000004 cycles: 126197174 heartbeat IPC: 2.845 cumulative IPC: 2.184 (Simulation time: 02 hr 02 min 45 sec)
Heartbeat CPU 1 instructions: 310000000 cycles: 129787197 heartbeat IPC: 2.785 cumulative IPC: 2.204 (Simulation time: 02 hr 06 min 13 sec)
Heartbeat CPU 3 instructions: 320000001 cycles: 130104314 heartbeat IPC: 2.174 cumulative IPC: 2.166 (Simulation time: 02 hr 06 min 30 sec)
Heartbeat CPU 2 instructions: 250000001 cycles: 131257188 heartbeat IPC: 1.657 cumulative IPC: 1.629 (Simulation time: 02 hr 07 min 33 sec)
Heartbeat CPU 1 instructions: 320000000 cycles: 134496213 heartbeat IPC: 2.124 cumulative IPC: 2.2 (Simulation time: 02 hr 10 min 28 sec)
Heartbeat CPU 3 instructions: 330000001 cycles: 134697755 heartbeat IPC: 2.177 cumulative IPC: 2.166 (Simulation time: 02 hr 10 min 39 sec)
Heartbeat CPU 2 instructions: 260000002 cycles: 137116917 heartbeat IPC: 1.707 cumulative IPC: 1.633 (Simulation time: 02 hr 12 min 53 sec)
Heartbeat CPU 0 instructions: 130000002 cycles: 138220146 heartbeat IPC: 0.6423 cumulative IPC: 0.6817 (Simulation time: 02 hr 13 min 54 sec)
Heartbeat CPU 1 instructions: 330000000 cycles: 139332338 heartbeat IPC: 2.068 cumulative IPC: 2.195 (Simulation time: 02 hr 15 min 00 sec)
Heartbeat CPU 3 instructions: 340000000 cycles: 139840239 heartbeat IPC: 1.945 cumulative IPC: 2.157 (Simulation time: 02 hr 15 min 31 sec)
Heartbeat CPU 2 instructions: 270000000 cycles: 141851561 heartbeat IPC: 2.112 cumulative IPC: 1.651 (Simulation time: 02 hr 17 min 31 sec)
Heartbeat CPU 1 instructions: 340000002 cycles: 144024028 heartbeat IPC: 2.131 cumulative IPC: 2.192 (Simulation time: 02 hr 19 min 38 sec)
Heartbeat CPU 3 instructions: 350000002 cycles: 144975598 heartbeat IPC: 1.947 cumulative IPC: 2.148 (Simulation time: 02 hr 20 min 34 sec)
Heartbeat CPU 2 instructions: 280000000 cycles: 146633874 heartbeat IPC: 2.091 cumulative IPC: 1.668 (Simulation time: 02 hr 22 min 18 sec)
Heartbeat CPU 1 instructions: 350000002 cycles: 147793259 heartbeat IPC: 2.653 cumulative IPC: 2.206 (Simulation time: 02 hr 23 min 31 sec)
Heartbeat CPU 3 instructions: 360000003 cycles: 149984308 heartbeat IPC: 1.997 cumulative IPC: 2.142 (Simulation time: 02 hr 25 min 47 sec)
Heartbeat CPU 1 instructions: 360000002 cycles: 151309884 heartbeat IPC: 2.844 cumulative IPC: 2.223 (Simulation time: 02 hr 27 min 08 sec)
Heartbeat CPU 2 instructions: 290000003 cycles: 152007071 heartbeat IPC: 1.861 cumulative IPC: 1.676 (Simulation time: 02 hr 27 min 51 sec)
Heartbeat CPU 0 instructions: 140000001 cycles: 152841729 heartbeat IPC: 0.6839 cumulative IPC: 0.682 (Simulation time: 02 hr 28 min 41 sec)
Heartbeat CPU 1 instructions: 370000000 cycles: 154845624 heartbeat IPC: 2.828 cumulative IPC: 2.239 (Simulation time: 02 hr 30 min 40 sec)
Heartbeat CPU 3 instructions: 370000000 cycles: 154895073 heartbeat IPC: 2.036 cumulative IPC: 2.138 (Simulation time: 02 hr 30 min 43 sec)
Heartbeat CPU 1 instructions: 380000001 cycles: 158378076 heartbeat IPC: 2.831 cumulative IPC: 2.254 (Simulation time: 02 hr 34 min 01 sec)
Heartbeat CPU 2 instructions: 300000001 cycles: 159405477 heartbeat IPC: 1.352 cumulative IPC: 1.659 (Simulation time: 02 hr 35 min 01 sec)
Heartbeat CPU 3 instructions: 380000002 cycles: 159773914 heartbeat IPC: 2.05 cumulative IPC: 2.135 (Simulation time: 02 hr 35 min 23 sec)
Heartbeat CPU 1 instructions: 390000000 cycles: 161905165 heartbeat IPC: 2.835 cumulative IPC: 2.269 (Simulation time: 02 hr 37 min 30 sec)
Heartbeat CPU 1 instructions: 400000003 cycles: 165642858 heartbeat IPC: 2.675 cumulative IPC: 2.279 (Simulation time: 02 hr 40 min 43 sec)
Heartbeat CPU 2 instructions: 310000001 cycles: 167733115 heartbeat IPC: 1.201 cumulative IPC: 1.633 (Simulation time: 02 hr 42 min 24 sec)
Heartbeat CPU 3 instructions: 390000001 cycles: 168735483 heartbeat IPC: 1.116 cumulative IPC: 2.074 (Simulation time: 02 hr 43 min 26 sec)
Heartbeat CPU 1 instructions: 410000002 cycles: 169326238 heartbeat IPC: 2.715 cumulative IPC: 2.29 (Simulation time: 02 hr 44 min 05 sec)
Heartbeat CPU 3 instructions: 400000003 cycles: 172806995 heartbeat IPC: 2.456 cumulative IPC: 2.084 (Simulation time: 02 hr 47 min 34 sec)
Heartbeat CPU 1 instructions: 420000004 cycles: 172909138 heartbeat IPC: 2.791 cumulative IPC: 2.302 (Simulation time: 02 hr 47 min 40 sec)
Heartbeat CPU 0 instructions: 150000003 cycles: 172948745 heartbeat IPC: 0.4973 cumulative IPC: 0.6576 (Simulation time: 02 hr 47 min 43 sec)
Heartbeat CPU 2 instructions: 320000001 cycles: 174502840 heartbeat IPC: 1.477 cumulative IPC: 1.626 (Simulation time: 02 hr 49 min 16 sec)
Heartbeat CPU 1 instructions: 430000001 cycles: 176470215 heartbeat IPC: 2.808 cumulative IPC: 2.314 (Simulation time: 02 hr 51 min 15 sec)
Heartbeat CPU 3 instructions: 410000003 cycles: 177088524 heartbeat IPC: 2.336 cumulative IPC: 2.091 (Simulation time: 02 hr 51 min 52 sec)
Heartbeat CPU 1 instructions: 440000001 cycles: 180028209 heartbeat IPC: 2.811 cumulative IPC: 2.325 (Simulation time: 02 hr 54 min 52 sec)
Heartbeat CPU 2 instructions: 330000000 cycles: 181155371 heartbeat IPC: 1.503 cumulative IPC: 1.621 (Simulation time: 02 hr 55 min 59 sec)
Heartbeat CPU 3 instructions: 420000001 cycles: 181345711 heartbeat IPC: 2.349 cumulative IPC: 2.098 (Simulation time: 02 hr 56 min 11 sec)
Heartbeat CPU 1 instructions: 450000003 cycles: 183595870 heartbeat IPC: 2.803 cumulative IPC: 2.335 (Simulation time: 02 hr 58 min 29 sec)
Heartbeat CPU 3 instructions: 430000004 cycles: 185655250 heartbeat IPC: 2.32 cumulative IPC: 2.103 (Simulation time: 03 hr 00 min 36 sec)
Heartbeat CPU 1 instructions: 460000003 cycles: 187170357 heartbeat IPC: 2.798 cumulative IPC: 2.345 (Simulation time: 03 hr 02 min 09 sec)
Heartbeat CPU 2 instructions: 340000000 cycles: 187464571 heartbeat IPC: 1.585 cumulative IPC: 1.619 (Simulation time: 03 hr 02 min 27 sec)
Heartbeat CPU 3 instructions: 440000003 cycles: 189876407 heartbeat IPC: 2.369 cumulative IPC: 2.11 (Simulation time: 03 hr 04 min 57 sec)
Heartbeat CPU 0 instructions: 160000002 cycles: 190042331 heartbeat IPC: 0.585 cumulative IPC: 0.6502 (Simulation time: 03 hr 05 min 07 sec)
Heartbeat CPU 1 instructions: 470000002 cycles: 190723428 heartbeat IPC: 2.814 cumulative IPC: 2.355 (Simulation time: 03 hr 05 min 50 sec)
Heartbeat CPU 2 instructions: 350000003 cycles: 193567468 heartbeat IPC: 1.639 cumulative IPC: 1.62 (Simulation time: 03 hr 08 min 48 sec)
Heartbeat CPU 3 instructions: 450000000 cycles: 194176884 heartbeat IPC: 2.325 cumulative IPC: 2.115 (Simulation time: 03 hr 09 min 26 sec)
Heartbeat CPU 1 instructions: 480000001 cycles: 194250350 heartbeat IPC: 2.835 cumulative IPC: 2.365 (Simulation time: 03 hr 09 min 30 sec)
Heartbeat CPU 1 instructions: 490000002 cycles: 197787051 heartbeat IPC: 2.827 cumulative IPC: 2.374 (Simulation time: 03 hr 13 min 11 sec)
Heartbeat CPU 3 instructions: 460000004 cycles: 198350342 heartbeat IPC: 2.396 cumulative IPC: 2.122 (Simulation time: 03 hr 13 min 46 sec)
Heartbeat CPU 2 instructions: 360000001 cycles: 199616482 heartbeat IPC: 1.653 cumulative IPC: 1.621 (Simulation time: 03 hr 15 min 06 sec)
Heartbeat CPU 1 instructions: 500000002 cycles: 201322295 heartbeat IPC: 2.829 cumulative IPC: 2.383 (Simulation time: 03 hr 16 min 53 sec)
Heartbeat CPU 3 instructions: 470000002 cycles: 202396525 heartbeat IPC: 2.471 cumulative IPC: 2.13 (Simulation time: 03 hr 18 min 02 sec)
Heartbeat CPU 1 instructions: 510000004 cycles: 204862596 heartbeat IPC: 2.825 cumulative IPC: 2.391 (Simulation time: 03 hr 20 min 37 sec)
Heartbeat CPU 2 instructions: 370000000 cycles: 205659089 heartbeat IPC: 1.655 cumulative IPC: 1.622 (Simulation time: 03 hr 21 min 27 sec)
Heartbeat CPU 0 instructions: 170000002 cycles: 206282967 heartbeat IPC: 0.6157 cumulative IPC: 0.6472 (Simulation time: 03 hr 22 min 06 sec)
Heartbeat CPU 3 instructions: 480000000 cycles: 206571820 heartbeat IPC: 2.395 cumulative IPC: 2.136 (Simulation time: 03 hr 22 min 25 sec)
Heartbeat CPU 1 instructions: 520000004 cycles: 208417892 heartbeat IPC: 2.813 cumulative IPC: 2.399 (Simulation time: 03 hr 24 min 24 sec)
Heartbeat CPU 2 instructions: 380000003 cycles: 210632661 heartbeat IPC: 2.011 cumulative IPC: 1.632 (Simulation time: 03 hr 26 min 42 sec)
Heartbeat CPU 3 instructions: 490000002 cycles: 211892492 heartbeat IPC: 1.879 cumulative IPC: 2.129 (Simulation time: 03 hr 28 min 02 sec)
Heartbeat CPU 1 instructions: 530000002 cycles: 211982891 heartbeat IPC: 2.805 cumulative IPC: 2.407 (Simulation time: 03 hr 28 min 08 sec)
Heartbeat CPU 2 instructions: 390000000 cycles: 215283847 heartbeat IPC: 2.15 cumulative IPC: 1.645 (Simulation time: 03 hr 31 min 37 sec)
Heartbeat CPU 1 instructions: 540000002 cycles: 215539826 heartbeat IPC: 2.811 cumulative IPC: 2.414 (Simulation time: 03 hr 31 min 53 sec)
Heartbeat CPU 3 instructions: 500000001 cycles: 217431911 heartbeat IPC: 1.805 cumulative IPC: 2.119 (Simulation time: 03 hr 33 min 53 sec)
Heartbeat CPU 1 instructions: 550000001 cycles: 219100215 heartbeat IPC: 2.809 cumulative IPC: 2.421 (Simulation time: 03 hr 35 min 37 sec)
Heartbeat CPU 2 instructions: 400000000 cycles: 220263462 heartbeat IPC: 2.008 cumulative IPC: 1.654 (Simulation time: 03 hr 36 min 49 sec)
Heartbeat CPU 0 instructions: 180000001 cycles: 222641683 heartbeat IPC: 0.6113 cumulative IPC: 0.6443 (Simulation time: 03 hr 39 min 17 sec)
Heartbeat CPU 1 instructions: 560000002 cycles: 222663807 heartbeat IPC: 2.806 cumulative IPC: 2.428 (Simulation time: 03 hr 39 min 18 sec)
Heartbeat CPU 3 instructions: 510000002 cycles: 222909952 heartbeat IPC: 1.825 cumulative IPC: 2.111 (Simulation time: 03 hr 39 min 33 sec)
Heartbeat CPU 2 instructions: 410000001 cycles: 225639106 heartbeat IPC: 1.86 cumulative IPC: 1.659 (Simulation time: 03 hr 42 min 22 sec)
Heartbeat CPU 1 instructions: 570000001 cycles: 226222724 heartbeat IPC: 2.81 cumulative IPC: 2.435 (Simulation time: 03 hr 42 min 57 sec)
Heartbeat CPU 3 instructions: 520000004 cycles: 228392284 heartbeat IPC: 1.824 cumulative IPC: 2.104 (Simulation time: 03 hr 45 min 08 sec)
Heartbeat CPU 1 instructions: 580000004 cycles: 229776135 heartbeat IPC: 2.814 cumulative IPC: 2.441 (Simulation time: 03 hr 46 min 30 sec)
Heartbeat CPU 2 instructions: 420000002 cycles: 232859262 heartbeat IPC: 1.385 cumulative IPC: 1.65 (Simulation time: 03 hr 49 min 24 sec)
Heartbeat CPU 1 instructions: 590000000 cycles: 233341936 heartbeat IPC: 2.804 cumulative IPC: 2.447 (Simulation time: 03 hr 49 min 51 sec)
Heartbeat CPU 3 instructions: 530000003 cycles: 233843484 heartbeat IPC: 1.834 cumulative IPC: 2.097 (Simulation time: 03 hr 50 min 20 sec)
Heartbeat CPU 1 instructions: 600000002 cycles: 236924224 heartbeat IPC: 2.792 cumulative IPC: 2.453 (Simulation time: 03 hr 53 min 18 sec)
Heartbeat CPU 0 instructions: 190000003 cycles: 238731586 heartbeat IPC: 0.6215 cumulative IPC: 0.6426 (Simulation time: 03 hr 55 min 04 sec)
Heartbeat CPU 3 instructions: 540000000 cycles: 239313385 heartbeat IPC: 1.828 cumulative IPC: 2.09 (Simulation time: 03 hr 55 min 38 sec)
Heartbeat CPU 2 instructions: 430000002 cycles: 239685980 heartbeat IPC: 1.465 cumulative IPC: 1.644 (Simulation time: 03 hr 56 min 00 sec)
Heartbeat CPU 1 instructions: 610000000 cycles: 240495852 heartbeat IPC: 2.8 cumulative IPC: 2.459 (Simulation time: 03 hr 56 min 48 sec)
Heartbeat CPU 1 instructions: 620000002 cycles: 244025318 heartbeat IPC: 2.833 cumulative IPC: 2.465 (Simulation time: 04 hr 00 min 15 sec)
Heartbeat CPU 3 instructions: 550000002 cycles: 244819626 heartbeat IPC: 1.816 cumulative IPC: 2.084 (Simulation time: 04 hr 01 min 02 sec)
Heartbeat CPU 2 instructions: 440000000 cycles: 246056939 heartbeat IPC: 1.57 cumulative IPC: 1.642 (Simulation time: 04 hr 02 min 15 sec)
Heartbeat CPU 1 instructions: 630000002 cycles: 247587922 heartbeat IPC: 2.807 cumulative IPC: 2.47 (Simulation time: 04 hr 03 min 45 sec)
Heartbeat CPU 3 instructions: 560000002 cycles: 250306557 heartbeat IPC: 1.823 cumulative IPC: 2.077 (Simulation time: 04 hr 06 min 25 sec)
Heartbeat CPU 1 instructions: 640000004 cycles: 251135564 heartbeat IPC: 2.819 cumulative IPC: 2.475 (Simulation time: 04 hr 07 min 15 sec)
Heartbeat CPU 2 instructions: 450000001 cycles: 252334487 heartbeat IPC: 1.593 cumulative IPC: 1.641 (Simulation time: 04 hr 08 min 26 sec)
Heartbeat CPU 1 instructions: 650000002 cycles: 254690101 heartbeat IPC: 2.813 cumulative IPC: 2.481 (Simulation time: 04 hr 10 min 57 sec)
Heartbeat CPU 0 instructions: 200000001 cycles: 255120275 heartbeat IPC: 0.6102 cumulative IPC: 0.6403 (Simulation time: 04 hr 11 min 24 sec)
Simulation finished CPU 0 instructions: 150000003 cycles: 234247416 cumulative IPC: 0.6403 (Simulation time: 04 hr 11 min 24 sec)
Simulation complete CPU 0 instructions: 150000003 cycles: 234247416 cumulative IPC: 0.6403 (Simulation time: 04 hr 11 min 24 sec)
Simulation complete CPU 1 instructions: 581212337 cycles: 234247416 cumulative IPC: 2.481 (Simulation time: 04 hr 11 min 24 sec)
Simulation complete CPU 2 instructions: 385949495 cycles: 234247416 cumulative IPC: 1.648 (Simulation time: 04 hr 11 min 24 sec)
Simulation complete CPU 3 instructions: 485261644 cycles: 234247416 cumulative IPC: 2.072 (Simulation time: 04 hr 11 min 24 sec)

ChampSim completed all CPUs

=== Simulation ===
CPU 0 runs /home/grads/r/rdas40/dpc3_traces/620.omnetpp_s-874B.champsimtrace.xzCPU 1 runs /home/grads/r/rdas40/dpc3_traces/644.nab_s-5853B.champsimtrace.xzCPU 2 runs /home/grads/r/rdas40/dpc3_traces/623.xalancbmk_s-700B.champsimtrace.xzCPU 3 runs /home/grads/r/rdas40/dpc3_traces/621.wrf_s-575B.champsimtrace.xz
Total Simulation Statistics (not including warmup)

CPU 0 cumulative IPC: 0.6403 instructions: 150000003 cycles: 234247416
CPU 0 Branch Prediction Accuracy: 94.9% MPKI: 10.6 Average ROB Occupancy at Mispredict: 80.37
Branch type MPKI
BRANCH_DIRECT_JUMP: 0.923
BRANCH_INDIRECT: 0.128
BRANCH_CONDITIONAL: 8.42
BRANCH_DIRECT_CALL: 0.00016
BRANCH_INDIRECT_CALL: 0.734
BRANCH_RETURN: 0.399


CPU 1 cumulative IPC: 2.481 instructions: 581212337 cycles: 234247416
CPU 1 Branch Prediction Accuracy: 87.28% MPKI: 12.31 Average ROB Occupancy at Mispredict: 161.4
Branch type MPKI
BRANCH_DIRECT_JUMP: 0.000127
BRANCH_INDIRECT: 0
BRANCH_CONDITIONAL: 6.78
BRANCH_DIRECT_CALL: 1.72e-06
BRANCH_INDIRECT_CALL: 0
BRANCH_RETURN: 5.53


CPU 2 cumulative IPC: 1.648 instructions: 385949495 cycles: 234247416
CPU 2 Branch Prediction Accuracy: 97.25% MPKI: 7.898 Average ROB Occupancy at Mispredict: 40.63
Branch type MPKI
BRANCH_DIRECT_JUMP: 0.109
BRANCH_INDIRECT: 0.342
BRANCH_CONDITIONAL: 5.64
BRANCH_DIRECT_CALL: 0.000435
BRANCH_INDIRECT_CALL: 0.372
BRANCH_RETURN: 1.43


CPU 3 cumulative IPC: 2.072 instructions: 485261644 cycles: 234247416
CPU 3 Branch Prediction Accuracy: 95.52% MPKI: 6.109 Average ROB Occupancy at Mispredict: 91.35
Branch type MPKI
BRANCH_DIRECT_JUMP: 0.000441
BRANCH_INDIRECT: 1.24e-05
BRANCH_CONDITIONAL: 5.85
BRANCH_DIRECT_CALL: 0.00242
BRANCH_INDIRECT_CALL: 0
BRANCH_RETURN: 0.255

LLC TOTAL        ACCESS:    3538066 HIT:    1818834 MISS:    1719232
LLC LOAD         ACCESS:    1685931 HIT:     568771 MISS:    1117160
LLC RFO          ACCESS:     258147 HIT:     153735 MISS:     104412
LLC PREFETCH     ACCESS:      22345 HIT:       3162 MISS:      19183
LLC WRITE        ACCESS:     975088 HIT:     974095 MISS:        993
LLC TRANSLATION  ACCESS:     596555 HIT:     119071 MISS:     477484
LLC PREFETCH REQUESTED:          0 ISSUED:          0 USEFUL:          0 USELESS:          0
LLC AVERAGE MISS LATENCY: 302.2 cycles
LLC TOTAL        ACCESS:     156342 HIT:       6003 MISS:     150339
LLC LOAD         ACCESS:      16707 HIT:       1194 MISS:      15513
LLC RFO          ACCESS:        348 HIT:        186 MISS:        162
LLC PREFETCH     ACCESS:     132642 HIT:       3859 MISS:     128783
LLC WRITE        ACCESS:       4864 HIT:        690 MISS:       4174
LLC TRANSLATION  ACCESS:       1781 HIT:         74 MISS:       1707
LLC PREFETCH REQUESTED:          0 ISSUED:          0 USEFUL:          0 USELESS:          0
LLC AVERAGE MISS LATENCY: 302.2 cycles
LLC TOTAL        ACCESS:    2110241 HIT:    1427832 MISS:     682409
LLC LOAD         ACCESS:     746103 HIT:     642615 MISS:     103488
LLC RFO          ACCESS:     489042 HIT:      46027 MISS:     443015
LLC PREFETCH     ACCESS:     202972 HIT:      95460 MISS:     107512
LLC WRITE        ACCESS:     605283 HIT:     599497 MISS:       5786
LLC TRANSLATION  ACCESS:      66841 HIT:      44233 MISS:      22608
LLC PREFETCH REQUESTED:          0 ISSUED:          0 USEFUL:          0 USELESS:          0
LLC AVERAGE MISS LATENCY: 302.2 cycles
LLC TOTAL        ACCESS:     923347 HIT:     496082 MISS:     427265
LLC LOAD         ACCESS:     136060 HIT:      47272 MISS:      88788
LLC RFO          ACCESS:     304215 HIT:     100822 MISS:     203393
LLC PREFETCH     ACCESS:     147008 HIT:      27215 MISS:     119793
LLC WRITE        ACCESS:     333589 HIT:     319452 MISS:      14137
LLC TRANSLATION  ACCESS:       2475 HIT:       1321 MISS:       1154
LLC PREFETCH REQUESTED:          0 ISSUED:          0 USEFUL:          0 USELESS:          0
LLC AVERAGE MISS LATENCY: 302.2 cycles
cpu0_DTLB TOTAL        ACCESS:   38236234 HIT:   34948237 MISS:    3287997
cpu0_DTLB LOAD         ACCESS:   38236234 HIT:   34948237 MISS:    3287997
cpu0_DTLB RFO          ACCESS:          0 HIT:          0 MISS:          0
cpu0_DTLB PREFETCH     ACCESS:          0 HIT:          0 MISS:          0
cpu0_DTLB WRITE        ACCESS:          0 HIT:          0 MISS:          0
cpu0_DTLB TRANSLATION  ACCESS:          0 HIT:          0 MISS:          0
cpu0_DTLB PREFETCH REQUESTED:          0 ISSUED:          0 USEFUL:          0 USELESS:          0
cpu0_DTLB AVERAGE MISS LATENCY: 43.7 cycles
cpu0_DTLB TOTAL        ACCESS:          0 HIT:          0 MISS:          0
cpu0_DTLB LOAD         ACCESS:          0 HIT:          0 MISS:          0
cpu0_DTLB RFO          ACCESS:          0 HIT:          0 MISS:          0
cpu0_DTLB PREFETCH     ACCESS:          0 HIT:          0 MISS:          0
cpu0_DTLB WRITE        ACCESS:          0 HIT:          0 MISS:          0
cpu0_DTLB TRANSLATION  ACCESS:          0 HIT:          0 MISS:          0
cpu0_DTLB PREFETCH REQUESTED:          0 ISSUED:          0 USEFUL:          0 USELESS:          0
cpu0_DTLB AVERAGE MISS LATENCY: 43.7 cycles
cpu0_DTLB TOTAL        ACCESS:          0 HIT:          0 MISS:          0
cpu0_DTLB LOAD         ACCESS:          0 HIT:          0 MISS:          0
cpu0_DTLB RFO          ACCESS:          0 HIT:          0 MISS:          0
cpu0_DTLB PREFETCH     ACCESS:          0 HIT:          0 MISS:          0
cpu0_DTLB WRITE        ACCESS:          0 HIT:          0 MISS:          0
cpu0_DTLB TRANSLATION  ACCESS:          0 HIT:          0 MISS:          0
cpu0_DTLB PREFETCH REQUESTED:          0 ISSUED:          0 USEFUL:          0 USELESS:          0
cpu0_DTLB AVERAGE MISS LATENCY: 43.7 cycles
cpu0_DTLB TOTAL        ACCESS:          0 HIT:          0 MISS:          0
cpu0_DTLB LOAD         ACCESS:          0 HIT:          0 MISS:          0
cpu0_DTLB RFO          ACCESS:          0 HIT:          0 MISS:          0
cpu0_DTLB PREFETCH     ACCESS:          0 HIT:          0 MISS:          0
cpu0_DTLB WRITE        ACCESS:          0 HIT:          0 MISS:          0
cpu0_DTLB TRANSLATION  ACCESS:          0 HIT:          0 MISS:          0
cpu0_DTLB PREFETCH REQUESTED:          0 ISSUED:          0 USEFUL:          0 USELESS:          0
cpu0_DTLB AVERAGE MISS LATENCY: 43.7 cycles
cpu0_ITLB TOTAL        ACCESS:   10773150 HIT:   10500304 MISS:     272846
cpu0_ITLB LOAD         ACCESS:   10773150 HIT:   10500304 MISS:     272846
cpu0_ITLB RFO          ACCESS:          0 HIT:          0 MISS:          0
cpu0_ITLB PREFETCH     ACCESS:          0 HIT:          0 MISS:          0
cpu0_ITLB WRITE        ACCESS:          0 HIT:          0 MISS:          0
cpu0_ITLB TRANSLATION  ACCESS:          0 HIT:          0 MISS:          0
cpu0_ITLB PREFETCH REQUESTED:          0 ISSUED:          0 USEFUL:          0 USELESS:          0
cpu0_ITLB AVERAGE MISS LATENCY: 4.986 cycles
cpu0_ITLB TOTAL        ACCESS:          0 HIT:          0 MISS:          0
cpu0_ITLB LOAD         ACCESS:          0 HIT:          0 MISS:          0
cpu0_ITLB RFO          ACCESS:          0 HIT:          0 MISS:          0
cpu0_ITLB PREFETCH     ACCESS:          0 HIT:          0 MISS:          0
cpu0_ITLB WRITE        ACCESS:          0 HIT:          0 MISS:          0
cpu0_ITLB TRANSLATION  ACCESS:          0 HIT:          0 MISS:          0
cpu0_ITLB PREFETCH REQUESTED:          0 ISSUED:          0 USEFUL:          0 USELESS:          0
cpu0_ITLB AVERAGE MISS LATENCY: 4.986 cycles
cpu0_ITLB TOTAL        ACCESS:          0 HIT:          0 MISS:          0
cpu0_ITLB LOAD         ACCESS:          0 HIT:          0 MISS:          0
cpu0_ITLB RFO          ACCESS:          0 HIT:          0 MISS:          0
cpu0_ITLB PREFETCH     ACCESS:          0 HIT:          0 MISS:          0
cpu0_ITLB WRITE        ACCESS:          0 HIT:          0 MISS:          0
cpu0_ITLB TRANSLATION  ACCESS:          0 HIT:          0 MISS:          0
cpu0_ITLB PREFETCH REQUESTED:          0 ISSUED:          0 USEFUL:          0 USELESS:          0
cpu0_ITLB AVERAGE MISS LATENCY: 4.986 cycles
cpu0_ITLB TOTAL        ACCESS:          0 HIT:          0 MISS:          0
cpu0_ITLB LOAD         ACCESS:          0 HIT:          0 MISS:          0
cpu0_ITLB RFO          ACCESS:          0 HIT:          0 MISS:          0
cpu0_ITLB PREFETCH     ACCESS:          0 HIT:          0 MISS:          0
cpu0_ITLB WRITE        ACCESS:          0 HIT:          0 MISS:          0
cpu0_ITLB TRANSLATION  ACCESS:          0 HIT:          0 MISS:          0
cpu0_ITLB PREFETCH REQUESTED:          0 ISSUED:          0 USEFUL:          0 USELESS:          0
cpu0_ITLB AVERAGE MISS LATENCY: 4.986 cycles
cpu0_L1D TOTAL        ACCESS:   49798598 HIT:   44921947 MISS:    4876651
cpu0_L1D LOAD         ACCESS:   22896189 HIT:   19859289 MISS:    3036900
cpu0_L1D RFO          ACCESS:          0 HIT:          0 MISS:          0
cpu0_L1D PREFETCH     ACCESS:      37625 HIT:       5526 MISS:      32099
cpu0_L1D WRITE        ACCESS:   25973641 HIT:   24912048 MISS:    1061593
cpu0_L1D TRANSLATION  ACCESS:     891143 HIT:     145084 MISS:     746059
cpu0_L1D PREFETCH REQUESTED:      37625 ISSUED:      37625 USEFUL:       1981 USELESS:       2204
cpu0_L1D AVERAGE MISS LATENCY: 86.98 cycles
cpu0_L1D TOTAL        ACCESS:          0 HIT:          0 MISS:          0
cpu0_L1D LOAD         ACCESS:          0 HIT:          0 MISS:          0
cpu0_L1D RFO          ACCESS:          0 HIT:          0 MISS:          0
cpu0_L1D PREFETCH     ACCESS:          0 HIT:          0 MISS:          0
cpu0_L1D WRITE        ACCESS:          0 HIT:          0 MISS:          0
cpu0_L1D TRANSLATION  ACCESS:          0 HIT:          0 MISS:          0
cpu0_L1D PREFETCH REQUESTED:      37625 ISSUED:      37625 USEFUL:       1981 USELESS:       2204
cpu0_L1D AVERAGE MISS LATENCY: 86.98 cycles
cpu0_L1D TOTAL        ACCESS:          0 HIT:          0 MISS:          0
cpu0_L1D LOAD         ACCESS:          0 HIT:          0 MISS:          0
cpu0_L1D RFO          ACCESS:          0 HIT:          0 MISS:          0
cpu0_L1D PREFETCH     ACCESS:          0 HIT:          0 MISS:          0
cpu0_L1D WRITE        ACCESS:          0 HIT:          0 MISS:          0
cpu0_L1D TRANSLATION  ACCESS:          0 HIT:          0 MISS:          0
cpu0_L1D PREFETCH REQUESTED:      37625 ISSUED:      37625 USEFUL:       1981 USELESS:       2204
cpu0_L1D AVERAGE MISS LATENCY: 86.98 cycles
cpu0_L1D TOTAL        ACCESS:          0 HIT:          0 MISS:          0
cpu0_L1D LOAD         ACCESS:          0 HIT:          0 MISS:          0
cpu0_L1D RFO          ACCESS:          0 HIT:          0 MISS:          0
cpu0_L1D PREFETCH     ACCESS:          0 HIT:          0 MISS:          0
cpu0_L1D WRITE        ACCESS:          0 HIT:          0 MISS:          0
cpu0_L1D TRANSLATION  ACCESS:          0 HIT:          0 MISS:          0
cpu0_L1D PREFETCH REQUESTED:      37625 ISSUED:      37625 USEFUL:       1981 USELESS:       2204
cpu0_L1D AVERAGE MISS LATENCY: 86.98 cycles
cpu0_L1I TOTAL        ACCESS:   12860538 HIT:   12786572 MISS:      73966
cpu0_L1I LOAD         ACCESS:   12860538 HIT:   12786572 MISS:      73966
cpu0_L1I RFO          ACCESS:          0 HIT:          0 MISS:          0
cpu0_L1I PREFETCH     ACCESS:          0 HIT:          0 MISS:          0
cpu0_L1I WRITE        ACCESS:          0 HIT:          0 MISS:          0
cpu0_L1I TRANSLATION  ACCESS:          0 HIT:          0 MISS:          0
cpu0_L1I PREFETCH REQUESTED:          0 ISSUED:          0 USEFUL:          0 USELESS:          0
cpu0_L1I AVERAGE MISS LATENCY: 14.99 cycles
cpu0_L1I TOTAL        ACCESS:          0 HIT:          0 MISS:          0
cpu0_L1I LOAD         ACCESS:          0 HIT:          0 MISS:          0
cpu0_L1I RFO          ACCESS:          0 HIT:          0 MISS:          0
cpu0_L1I PREFETCH     ACCESS:          0 HIT:          0 MISS:          0
cpu0_L1I WRITE        ACCESS:          0 HIT:          0 MISS:          0
cpu0_L1I TRANSLATION  ACCESS:          0 HIT:          0 MISS:          0
cpu0_L1I PREFETCH REQUESTED:          0 ISSUED:          0 USEFUL:          0 USELESS:          0
cpu0_L1I AVERAGE MISS LATENCY: 14.99 cycles
cpu0_L1I TOTAL        ACCESS:          0 HIT:          0 MISS:          0
cpu0_L1I LOAD         ACCESS:          0 HIT:          0 MISS:          0
cpu0_L1I RFO          ACCESS:          0 HIT:          0 MISS:          0
cpu0_L1I PREFETCH     ACCESS:          0 HIT:          0 MISS:          0
cpu0_L1I WRITE        ACCESS:          0 HIT:          0 MISS:          0
cpu0_L1I TRANSLATION  ACCESS:          0 HIT:          0 MISS:          0
cpu0_L1I PREFETCH REQUESTED:          0 ISSUED:          0 USEFUL:          0 USELESS:          0
cpu0_L1I AVERAGE MISS LATENCY: 14.99 cycles
cpu0_L1I TOTAL        ACCESS:          0 HIT:          0 MISS:          0
cpu0_L1I LOAD         ACCESS:          0 HIT:          0 MISS:          0
cpu0_L1I RFO          ACCESS:          0 HIT:          0 MISS:          0
cpu0_L1I PREFETCH     ACCESS:          0 HIT:          0 MISS:          0
cpu0_L1I WRITE        ACCESS:          0 HIT:          0 MISS:          0
cpu0_L1I TRANSLATION  ACCESS:          0 HIT:          0 MISS:          0
cpu0_L1I PREFETCH REQUESTED:          0 ISSUED:          0 USEFUL:          0 USELESS:          0
cpu0_L1I AVERAGE MISS LATENCY: 14.99 cycles
cpu0_L2C TOTAL        ACCESS:    5081401 HIT:    2514926 MISS:    2566475
cpu0_L2C LOAD         ACCESS:    2537824 HIT:     851268 MISS:    1686556
cpu0_L2C RFO          ACCESS:     365389 HIT:     107242 MISS:     258147
cpu0_L2C PREFETCH     ACCESS:      30982 HIT:       8161 MISS:      22821
cpu0_L2C WRITE        ACCESS:    1401926 HIT:    1399530 MISS:       2396
cpu0_L2C TRANSLATION  ACCESS:     745280 HIT:     148725 MISS:     596555
cpu0_L2C PREFETCH REQUESTED:          0 ISSUED:          0 USEFUL:          0 USELESS:          0
cpu0_L2C AVERAGE MISS LATENCY: 158.2 cycles
cpu0_L2C TOTAL        ACCESS:          0 HIT:          0 MISS:          0
cpu0_L2C LOAD         ACCESS:          0 HIT:          0 MISS:          0
cpu0_L2C RFO          ACCESS:          0 HIT:          0 MISS:          0
cpu0_L2C PREFETCH     ACCESS:          0 HIT:          0 MISS:          0
cpu0_L2C WRITE        ACCESS:          0 HIT:          0 MISS:          0
cpu0_L2C TRANSLATION  ACCESS:          0 HIT:          0 MISS:          0
cpu0_L2C PREFETCH REQUESTED:          0 ISSUED:          0 USEFUL:          0 USELESS:          0
cpu0_L2C AVERAGE MISS LATENCY: 158.2 cycles
cpu0_L2C TOTAL        ACCESS:          0 HIT:          0 MISS:          0
cpu0_L2C LOAD         ACCESS:          0 HIT:          0 MISS:          0
cpu0_L2C RFO          ACCESS:          0 HIT:          0 MISS:          0
cpu0_L2C PREFETCH     ACCESS:          0 HIT:          0 MISS:          0
cpu0_L2C WRITE        ACCESS:          0 HIT:          0 MISS:          0
cpu0_L2C TRANSLATION  ACCESS:          0 HIT:          0 MISS:          0
cpu0_L2C PREFETCH REQUESTED:          0 ISSUED:          0 USEFUL:          0 USELESS:          0
cpu0_L2C AVERAGE MISS LATENCY: 158.2 cycles
cpu0_L2C TOTAL        ACCESS:          0 HIT:          0 MISS:          0
cpu0_L2C LOAD         ACCESS:          0 HIT:          0 MISS:          0
cpu0_L2C RFO          ACCESS:          0 HIT:          0 MISS:          0
cpu0_L2C PREFETCH     ACCESS:          0 HIT:          0 MISS:          0
cpu0_L2C WRITE        ACCESS:          0 HIT:          0 MISS:          0
cpu0_L2C TRANSLATION  ACCESS:          0 HIT:          0 MISS:          0
cpu0_L2C PREFETCH REQUESTED:          0 ISSUED:          0 USEFUL:          0 USELESS:          0
cpu0_L2C AVERAGE MISS LATENCY: 158.2 cycles
cpu0_STLB TOTAL        ACCESS:    3014075 HIT:    2371653 MISS:     642422
cpu0_STLB LOAD         ACCESS:    3014075 HIT:    2371653 MISS:     642422
cpu0_STLB RFO          ACCESS:          0 HIT:          0 MISS:          0
cpu0_STLB PREFETCH     ACCESS:          0 HIT:          0 MISS:          0
cpu0_STLB WRITE        ACCESS:          0 HIT:          0 MISS:          0
cpu0_STLB TRANSLATION  ACCESS:          0 HIT:          0 MISS:          0
cpu0_STLB PREFETCH REQUESTED:          0 ISSUED:          0 USEFUL:          0 USELESS:          0
cpu0_STLB AVERAGE MISS LATENCY: 197 cycles
cpu0_STLB TOTAL        ACCESS:          0 HIT:          0 MISS:          0
cpu0_STLB LOAD         ACCESS:          0 HIT:          0 MISS:          0
cpu0_STLB RFO          ACCESS:          0 HIT:          0 MISS:          0
cpu0_STLB PREFETCH     ACCESS:          0 HIT:          0 MISS:          0
cpu0_STLB WRITE        ACCESS:          0 HIT:          0 MISS:          0
cpu0_STLB TRANSLATION  ACCESS:          0 HIT:          0 MISS:          0
cpu0_STLB PREFETCH REQUESTED:          0 ISSUED:          0 USEFUL:          0 USELESS:          0
cpu0_STLB AVERAGE MISS LATENCY: 197 cycles
cpu0_STLB TOTAL        ACCESS:          0 HIT:          0 MISS:          0
cpu0_STLB LOAD         ACCESS:          0 HIT:          0 MISS:          0
cpu0_STLB RFO          ACCESS:          0 HIT:          0 MISS:          0
cpu0_STLB PREFETCH     ACCESS:          0 HIT:          0 MISS:          0
cpu0_STLB WRITE        ACCESS:          0 HIT:          0 MISS:          0
cpu0_STLB TRANSLATION  ACCESS:          0 HIT:          0 MISS:          0
cpu0_STLB PREFETCH REQUESTED:          0 ISSUED:          0 USEFUL:          0 USELESS:          0
cpu0_STLB AVERAGE MISS LATENCY: 197 cycles
cpu0_STLB TOTAL        ACCESS:          0 HIT:          0 MISS:          0
cpu0_STLB LOAD         ACCESS:          0 HIT:          0 MISS:          0
cpu0_STLB RFO          ACCESS:          0 HIT:          0 MISS:          0
cpu0_STLB PREFETCH     ACCESS:          0 HIT:          0 MISS:          0
cpu0_STLB WRITE        ACCESS:          0 HIT:          0 MISS:          0
cpu0_STLB TRANSLATION  ACCESS:          0 HIT:          0 MISS:          0
cpu0_STLB PREFETCH REQUESTED:          0 ISSUED:          0 USEFUL:          0 USELESS:          0
cpu0_STLB AVERAGE MISS LATENCY: 197 cycles
cpu1_DTLB TOTAL        ACCESS:          0 HIT:          0 MISS:          0
cpu1_DTLB LOAD         ACCESS:          0 HIT:          0 MISS:          0
cpu1_DTLB RFO          ACCESS:          0 HIT:          0 MISS:          0
cpu1_DTLB PREFETCH     ACCESS:          0 HIT:          0 MISS:          0
cpu1_DTLB WRITE        ACCESS:          0 HIT:          0 MISS:          0
cpu1_DTLB TRANSLATION  ACCESS:          0 HIT:          0 MISS:          0
cpu1_DTLB PREFETCH REQUESTED:          0 ISSUED:          0 USEFUL:          0 USELESS:          0
cpu1_DTLB AVERAGE MISS LATENCY: 9.991 cycles
cpu1_DTLB TOTAL        ACCESS:  107488769 HIT:  106979095 MISS:     509674
cpu1_DTLB LOAD         ACCESS:  107488769 HIT:  106979095 MISS:     509674
cpu1_DTLB RFO          ACCESS:          0 HIT:          0 MISS:          0
cpu1_DTLB PREFETCH     ACCESS:          0 HIT:          0 MISS:          0
cpu1_DTLB WRITE        ACCESS:          0 HIT:          0 MISS:          0
cpu1_DTLB TRANSLATION  ACCESS:          0 HIT:          0 MISS:          0
cpu1_DTLB PREFETCH REQUESTED:          0 ISSUED:          0 USEFUL:          0 USELESS:          0
cpu1_DTLB AVERAGE MISS LATENCY: 9.991 cycles
cpu1_DTLB TOTAL        ACCESS:          0 HIT:          0 MISS:          0
cpu1_DTLB LOAD         ACCESS:          0 HIT:          0 MISS:          0
cpu1_DTLB RFO          ACCESS:          0 HIT:          0 MISS:          0
cpu1_DTLB PREFETCH     ACCESS:          0 HIT:          0 MISS:          0
cpu1_DTLB WRITE        ACCESS:          0 HIT:          0 MISS:          0
cpu1_DTLB TRANSLATION  ACCESS:          0 HIT:          0 MISS:          0
cpu1_DTLB PREFETCH REQUESTED:          0 ISSUED:          0 USEFUL:          0 USELESS:          0
cpu1_DTLB AVERAGE MISS LATENCY: 9.991 cycles
cpu1_DTLB TOTAL        ACCESS:          0 HIT:          0 MISS:          0
cpu1_DTLB LOAD         ACCESS:          0 HIT:          0 MISS:          0
cpu1_DTLB RFO          ACCESS:          0 HIT:          0 MISS:          0
cpu1_DTLB PREFETCH     ACCESS:          0 HIT:          0 MISS:          0
cpu1_DTLB WRITE        ACCESS:          0 HIT:          0 MISS:          0
cpu1_DTLB TRANSLATION  ACCESS:          0 HIT:          0 MISS:          0
cpu1_DTLB PREFETCH REQUESTED:          0 ISSUED:          0 USEFUL:          0 USELESS:          0
cpu1_DTLB AVERAGE MISS LATENCY: 9.991 cycles
cpu1_ITLB TOTAL        ACCESS:          0 HIT:          0 MISS:          0
cpu1_ITLB LOAD         ACCESS:          0 HIT:          0 MISS:          0
cpu1_ITLB RFO          ACCESS:          0 HIT:          0 MISS:          0
cpu1_ITLB PREFETCH     ACCESS:          0 HIT:          0 MISS:          0
cpu1_ITLB WRITE        ACCESS:          0 HIT:          0 MISS:          0
cpu1_ITLB TRANSLATION  ACCESS:          0 HIT:          0 MISS:          0
cpu1_ITLB PREFETCH REQUESTED:          0 ISSUED:          0 USEFUL:          0 USELESS:          0
cpu1_ITLB AVERAGE MISS LATENCY: -nan cycles
cpu1_ITLB TOTAL        ACCESS:       5583 HIT:       5583 MISS:          0
cpu1_ITLB LOAD         ACCESS:       5583 HIT:       5583 MISS:          0
cpu1_ITLB RFO          ACCESS:          0 HIT:          0 MISS:          0
cpu1_ITLB PREFETCH     ACCESS:          0 HIT:          0 MISS:          0
cpu1_ITLB WRITE        ACCESS:          0 HIT:          0 MISS:          0
cpu1_ITLB TRANSLATION  ACCESS:          0 HIT:          0 MISS:          0
cpu1_ITLB PREFETCH REQUESTED:          0 ISSUED:          0 USEFUL:          0 USELESS:          0
cpu1_ITLB AVERAGE MISS LATENCY: -nan cycles
cpu1_ITLB TOTAL        ACCESS:          0 HIT:          0 MISS:          0
cpu1_ITLB LOAD         ACCESS:          0 HIT:          0 MISS:          0
cpu1_ITLB RFO          ACCESS:          0 HIT:          0 MISS:          0
cpu1_ITLB PREFETCH     ACCESS:          0 HIT:          0 MISS:          0
cpu1_ITLB WRITE        ACCESS:          0 HIT:          0 MISS:          0
cpu1_ITLB TRANSLATION  ACCESS:          0 HIT:          0 MISS:          0
cpu1_ITLB PREFETCH REQUESTED:          0 ISSUED:          0 USEFUL:          0 USELESS:          0
cpu1_ITLB AVERAGE MISS LATENCY: -nan cycles
cpu1_ITLB TOTAL        ACCESS:          0 HIT:          0 MISS:          0
cpu1_ITLB LOAD         ACCESS:          0 HIT:          0 MISS:          0
cpu1_ITLB RFO          ACCESS:          0 HIT:          0 MISS:          0
cpu1_ITLB PREFETCH     ACCESS:          0 HIT:          0 MISS:          0
cpu1_ITLB WRITE        ACCESS:          0 HIT:          0 MISS:          0
cpu1_ITLB TRANSLATION  ACCESS:          0 HIT:          0 MISS:          0
cpu1_ITLB PREFETCH REQUESTED:          0 ISSUED:          0 USEFUL:          0 USELESS:          0
cpu1_ITLB AVERAGE MISS LATENCY: -nan cycles
cpu1_L1D TOTAL        ACCESS:          0 HIT:          0 MISS:          0
cpu1_L1D LOAD         ACCESS:          0 HIT:          0 MISS:          0
cpu1_L1D RFO          ACCESS:          0 HIT:          0 MISS:          0
cpu1_L1D PREFETCH     ACCESS:          0 HIT:          0 MISS:          0
cpu1_L1D WRITE        ACCESS:          0 HIT:          0 MISS:          0
cpu1_L1D TRANSLATION  ACCESS:          0 HIT:          0 MISS:          0
cpu1_L1D PREFETCH REQUESTED:   75315783 ISSUED:   11515487 USEFUL:     448512 USELESS:     153908
cpu1_L1D AVERAGE MISS LATENCY: 8.56 cycles
cpu1_L1D TOTAL        ACCESS:  153490711 HIT:  147301595 MISS:    6189116
cpu1_L1D LOAD         ACCESS:   78911389 HIT:   76866963 MISS:    2044426
cpu1_L1D RFO          ACCESS:          0 HIT:          0 MISS:          0
cpu1_L1D PREFETCH     ACCESS:   11515487 HIT:    7401307 MISS:    4114180
cpu1_L1D WRITE        ACCESS:   63059616 HIT:   63033283 MISS:      26333
cpu1_L1D TRANSLATION  ACCESS:       4219 HIT:         42 MISS:       4177
cpu1_L1D PREFETCH REQUESTED:   75315783 ISSUED:   11515487 USEFUL:     448512 USELESS:     153908
cpu1_L1D AVERAGE MISS LATENCY: 8.56 cycles
cpu1_L1D TOTAL        ACCESS:          0 HIT:          0 MISS:          0
cpu1_L1D LOAD         ACCESS:          0 HIT:          0 MISS:          0
cpu1_L1D RFO          ACCESS:          0 HIT:          0 MISS:          0
cpu1_L1D PREFETCH     ACCESS:          0 HIT:          0 MISS:          0
cpu1_L1D WRITE        ACCESS:          0 HIT:          0 MISS:          0
cpu1_L1D TRANSLATION  ACCESS:          0 HIT:          0 MISS:          0
cpu1_L1D PREFETCH REQUESTED:   75315783 ISSUED:   11515487 USEFUL:     448512 USELESS:     153908
cpu1_L1D AVERAGE MISS LATENCY: 8.56 cycles
cpu1_L1D TOTAL        ACCESS:          0 HIT:          0 MISS:          0
cpu1_L1D LOAD         ACCESS:          0 HIT:          0 MISS:          0
cpu1_L1D RFO          ACCESS:          0 HIT:          0 MISS:          0
cpu1_L1D PREFETCH     ACCESS:          0 HIT:          0 MISS:          0
cpu1_L1D WRITE        ACCESS:          0 HIT:          0 MISS:          0
cpu1_L1D TRANSLATION  ACCESS:          0 HIT:          0 MISS:          0
cpu1_L1D PREFETCH REQUESTED:   75315783 ISSUED:   11515487 USEFUL:     448512 USELESS:     153908
cpu1_L1D AVERAGE MISS LATENCY: 8.56 cycles
cpu1_L1I TOTAL        ACCESS:          0 HIT:          0 MISS:          0
cpu1_L1I LOAD         ACCESS:          0 HIT:          0 MISS:          0
cpu1_L1I RFO          ACCESS:          0 HIT:          0 MISS:          0
cpu1_L1I PREFETCH     ACCESS:          0 HIT:          0 MISS:          0
cpu1_L1I WRITE        ACCESS:          0 HIT:          0 MISS:          0
cpu1_L1I TRANSLATION  ACCESS:          0 HIT:          0 MISS:          0
cpu1_L1I PREFETCH REQUESTED:          0 ISSUED:          0 USEFUL:          0 USELESS:          0
cpu1_L1I AVERAGE MISS LATENCY: 306.5 cycles
cpu1_L1I TOTAL        ACCESS:       6992 HIT:       6990 MISS:          2
cpu1_L1I LOAD         ACCESS:       6992 HIT:       6990 MISS:          2
cpu1_L1I RFO          ACCESS:          0 HIT:          0 MISS:          0
cpu1_L1I PREFETCH     ACCESS:          0 HIT:          0 MISS:          0
cpu1_L1I WRITE        ACCESS:          0 HIT:          0 MISS:          0
cpu1_L1I TRANSLATION  ACCESS:          0 HIT:          0 MISS:          0
cpu1_L1I PREFETCH REQUESTED:          0 ISSUED:          0 USEFUL:          0 USELESS:          0
cpu1_L1I AVERAGE MISS LATENCY: 306.5 cycles
cpu1_L1I TOTAL        ACCESS:          0 HIT:          0 MISS:          0
cpu1_L1I LOAD         ACCESS:          0 HIT:          0 MISS:          0
cpu1_L1I RFO          ACCESS:          0 HIT:          0 MISS:          0
cpu1_L1I PREFETCH     ACCESS:          0 HIT:          0 MISS:          0
cpu1_L1I WRITE        ACCESS:          0 HIT:          0 MISS:          0
cpu1_L1I TRANSLATION  ACCESS:          0 HIT:          0 MISS:          0
cpu1_L1I PREFETCH REQUESTED:          0 ISSUED:          0 USEFUL:          0 USELESS:          0
cpu1_L1I AVERAGE MISS LATENCY: 306.5 cycles
cpu1_L1I TOTAL        ACCESS:          0 HIT:          0 MISS:          0
cpu1_L1I LOAD         ACCESS:          0 HIT:          0 MISS:          0
cpu1_L1I RFO          ACCESS:          0 HIT:          0 MISS:          0
cpu1_L1I PREFETCH     ACCESS:          0 HIT:          0 MISS:          0
cpu1_L1I WRITE        ACCESS:          0 HIT:          0 MISS:          0
cpu1_L1I TRANSLATION  ACCESS:          0 HIT:          0 MISS:          0
cpu1_L1I PREFETCH REQUESTED:          0 ISSUED:          0 USEFUL:          0 USELESS:          0
cpu1_L1I AVERAGE MISS LATENCY: 306.5 cycles
cpu1_L2C TOTAL        ACCESS:          0 HIT:          0 MISS:          0
cpu1_L2C LOAD         ACCESS:          0 HIT:          0 MISS:          0
cpu1_L2C RFO          ACCESS:          0 HIT:          0 MISS:          0
cpu1_L2C PREFETCH     ACCESS:          0 HIT:          0 MISS:          0
cpu1_L2C WRITE        ACCESS:          0 HIT:          0 MISS:          0
cpu1_L2C TRANSLATION  ACCESS:          0 HIT:          0 MISS:          0
cpu1_L2C PREFETCH REQUESTED:          0 ISSUED:          0 USEFUL:          0 USELESS:          0
cpu1_L2C AVERAGE MISS LATENCY: 267.4 cycles
cpu1_L2C TOTAL        ACCESS:    6994677 HIT:    6835596 MISS:     159081
cpu1_L2C LOAD         ACCESS:    2033382 HIT:    2016633 MISS:      16749
cpu1_L2C RFO          ACCESS:       6837 HIT:       6489 MISS:        348
cpu1_L2C PREFETCH     ACCESS:    4111694 HIT:    3971515 MISS:     140179
cpu1_L2C WRITE        ACCESS:     838587 HIT:     838563 MISS:         24
cpu1_L2C TRANSLATION  ACCESS:       4177 HIT:       2396 MISS:       1781
cpu1_L2C PREFETCH REQUESTED:          0 ISSUED:          0 USEFUL:          0 USELESS:          0
cpu1_L2C AVERAGE MISS LATENCY: 267.4 cycles
cpu1_L2C TOTAL        ACCESS:          0 HIT:          0 MISS:          0
cpu1_L2C LOAD         ACCESS:          0 HIT:          0 MISS:          0
cpu1_L2C RFO          ACCESS:          0 HIT:          0 MISS:          0
cpu1_L2C PREFETCH     ACCESS:          0 HIT:          0 MISS:          0
cpu1_L2C WRITE        ACCESS:          0 HIT:          0 MISS:          0
cpu1_L2C TRANSLATION  ACCESS:          0 HIT:          0 MISS:          0
cpu1_L2C PREFETCH REQUESTED:          0 ISSUED:          0 USEFUL:          0 USELESS:          0
cpu1_L2C AVERAGE MISS LATENCY: 267.4 cycles
cpu1_L2C TOTAL        ACCESS:          0 HIT:          0 MISS:          0
cpu1_L2C LOAD         ACCESS:          0 HIT:          0 MISS:          0
cpu1_L2C RFO          ACCESS:          0 HIT:          0 MISS:          0
cpu1_L2C PREFETCH     ACCESS:          0 HIT:          0 MISS:          0
cpu1_L2C WRITE        ACCESS:          0 HIT:          0 MISS:          0
cpu1_L2C TRANSLATION  ACCESS:          0 HIT:          0 MISS:          0
cpu1_L2C PREFETCH REQUESTED:          0 ISSUED:          0 USEFUL:          0 USELESS:          0
cpu1_L2C AVERAGE MISS LATENCY: 267.4 cycles
cpu1_STLB TOTAL        ACCESS:          0 HIT:          0 MISS:          0
cpu1_STLB LOAD         ACCESS:          0 HIT:          0 MISS:          0
cpu1_STLB RFO          ACCESS:          0 HIT:          0 MISS:          0
cpu1_STLB PREFETCH     ACCESS:          0 HIT:          0 MISS:          0
cpu1_STLB WRITE        ACCESS:          0 HIT:          0 MISS:          0
cpu1_STLB TRANSLATION  ACCESS:          0 HIT:          0 MISS:          0
cpu1_STLB PREFETCH REQUESTED:          0 ISSUED:          0 USEFUL:          0 USELESS:          0
cpu1_STLB AVERAGE MISS LATENCY: 333.2 cycles
cpu1_STLB TOTAL        ACCESS:     492956 HIT:     488812 MISS:       4144
cpu1_STLB LOAD         ACCESS:     492956 HIT:     488812 MISS:       4144
cpu1_STLB RFO          ACCESS:          0 HIT:          0 MISS:          0
cpu1_STLB PREFETCH     ACCESS:          0 HIT:          0 MISS:          0
cpu1_STLB WRITE        ACCESS:          0 HIT:          0 MISS:          0
cpu1_STLB TRANSLATION  ACCESS:          0 HIT:          0 MISS:          0
cpu1_STLB PREFETCH REQUESTED:          0 ISSUED:          0 USEFUL:          0 USELESS:          0
cpu1_STLB AVERAGE MISS LATENCY: 333.2 cycles
cpu1_STLB TOTAL        ACCESS:          0 HIT:          0 MISS:          0
cpu1_STLB LOAD         ACCESS:          0 HIT:          0 MISS:          0
cpu1_STLB RFO          ACCESS:          0 HIT:          0 MISS:          0
cpu1_STLB PREFETCH     ACCESS:          0 HIT:          0 MISS:          0
cpu1_STLB WRITE        ACCESS:          0 HIT:          0 MISS:          0
cpu1_STLB TRANSLATION  ACCESS:          0 HIT:          0 MISS:          0
cpu1_STLB PREFETCH REQUESTED:          0 ISSUED:          0 USEFUL:          0 USELESS:          0
cpu1_STLB AVERAGE MISS LATENCY: 333.2 cycles
cpu1_STLB TOTAL        ACCESS:          0 HIT:          0 MISS:          0
cpu1_STLB LOAD         ACCESS:          0 HIT:          0 MISS:          0
cpu1_STLB RFO          ACCESS:          0 HIT:          0 MISS:          0
cpu1_STLB PREFETCH     ACCESS:          0 HIT:          0 MISS:          0
cpu1_STLB WRITE        ACCESS:          0 HIT:          0 MISS:          0
cpu1_STLB TRANSLATION  ACCESS:          0 HIT:          0 MISS:          0
cpu1_STLB PREFETCH REQUESTED:          0 ISSUED:          0 USEFUL:          0 USELESS:          0
cpu1_STLB AVERAGE MISS LATENCY: 333.2 cycles
cpu2_DTLB TOTAL        ACCESS:          0 HIT:          0 MISS:          0
cpu2_DTLB LOAD         ACCESS:          0 HIT:          0 MISS:          0
cpu2_DTLB RFO          ACCESS:          0 HIT:          0 MISS:          0
cpu2_DTLB PREFETCH     ACCESS:          0 HIT:          0 MISS:          0
cpu2_DTLB WRITE        ACCESS:          0 HIT:          0 MISS:          0
cpu2_DTLB TRANSLATION  ACCESS:          0 HIT:          0 MISS:          0
cpu2_DTLB PREFETCH REQUESTED:          0 ISSUED:          0 USEFUL:          0 USELESS:          0
cpu2_DTLB AVERAGE MISS LATENCY: 6.004 cycles
cpu2_DTLB TOTAL        ACCESS:          0 HIT:          0 MISS:          0
cpu2_DTLB LOAD         ACCESS:          0 HIT:          0 MISS:          0
cpu2_DTLB RFO          ACCESS:          0 HIT:          0 MISS:          0
cpu2_DTLB PREFETCH     ACCESS:          0 HIT:          0 MISS:          0
cpu2_DTLB WRITE        ACCESS:          0 HIT:          0 MISS:          0
cpu2_DTLB TRANSLATION  ACCESS:          0 HIT:          0 MISS:          0
cpu2_DTLB PREFETCH REQUESTED:          0 ISSUED:          0 USEFUL:          0 USELESS:          0
cpu2_DTLB AVERAGE MISS LATENCY: 6.004 cycles
cpu2_DTLB TOTAL        ACCESS:   75572697 HIT:   61680007 MISS:   13892690
cpu2_DTLB LOAD         ACCESS:   75572697 HIT:   61680007 MISS:   13892690
cpu2_DTLB RFO          ACCESS:          0 HIT:          0 MISS:          0
cpu2_DTLB PREFETCH     ACCESS:          0 HIT:          0 MISS:          0
cpu2_DTLB WRITE        ACCESS:          0 HIT:          0 MISS:          0
cpu2_DTLB TRANSLATION  ACCESS:          0 HIT:          0 MISS:          0
cpu2_DTLB PREFETCH REQUESTED:          0 ISSUED:          0 USEFUL:          0 USELESS:          0
cpu2_DTLB AVERAGE MISS LATENCY: 6.004 cycles
cpu2_DTLB TOTAL        ACCESS:          0 HIT:          0 MISS:          0
cpu2_DTLB LOAD         ACCESS:          0 HIT:          0 MISS:          0
cpu2_DTLB RFO          ACCESS:          0 HIT:          0 MISS:          0
cpu2_DTLB PREFETCH     ACCESS:          0 HIT:          0 MISS:          0
cpu2_DTLB WRITE        ACCESS:          0 HIT:          0 MISS:          0
cpu2_DTLB TRANSLATION  ACCESS:          0 HIT:          0 MISS:          0
cpu2_DTLB PREFETCH REQUESTED:          0 ISSUED:          0 USEFUL:          0 USELESS:          0
cpu2_DTLB AVERAGE MISS LATENCY: 6.004 cycles
cpu2_ITLB TOTAL        ACCESS:          0 HIT:          0 MISS:          0
cpu2_ITLB LOAD         ACCESS:          0 HIT:          0 MISS:          0
cpu2_ITLB RFO          ACCESS:          0 HIT:          0 MISS:          0
cpu2_ITLB PREFETCH     ACCESS:          0 HIT:          0 MISS:          0
cpu2_ITLB WRITE        ACCESS:          0 HIT:          0 MISS:          0
cpu2_ITLB TRANSLATION  ACCESS:          0 HIT:          0 MISS:          0
cpu2_ITLB PREFETCH REQUESTED:          0 ISSUED:          0 USEFUL:          0 USELESS:          0
cpu2_ITLB AVERAGE MISS LATENCY: 3.905 cycles
cpu2_ITLB TOTAL        ACCESS:          0 HIT:          0 MISS:          0
cpu2_ITLB LOAD         ACCESS:          0 HIT:          0 MISS:          0
cpu2_ITLB RFO          ACCESS:          0 HIT:          0 MISS:          0
cpu2_ITLB PREFETCH     ACCESS:          0 HIT:          0 MISS:          0
cpu2_ITLB WRITE        ACCESS:          0 HIT:          0 MISS:          0
cpu2_ITLB TRANSLATION  ACCESS:          0 HIT:          0 MISS:          0
cpu2_ITLB PREFETCH REQUESTED:          0 ISSUED:          0 USEFUL:          0 USELESS:          0
cpu2_ITLB AVERAGE MISS LATENCY: 3.905 cycles
cpu2_ITLB TOTAL        ACCESS:   12313747 HIT:   12034790 MISS:     278957
cpu2_ITLB LOAD         ACCESS:   12313747 HIT:   12034790 MISS:     278957
cpu2_ITLB RFO          ACCESS:          0 HIT:          0 MISS:          0
cpu2_ITLB PREFETCH     ACCESS:          0 HIT:          0 MISS:          0
cpu2_ITLB WRITE        ACCESS:          0 HIT:          0 MISS:          0
cpu2_ITLB TRANSLATION  ACCESS:          0 HIT:          0 MISS:          0
cpu2_ITLB PREFETCH REQUESTED:          0 ISSUED:          0 USEFUL:          0 USELESS:          0
cpu2_ITLB AVERAGE MISS LATENCY: 3.905 cycles
cpu2_ITLB TOTAL        ACCESS:          0 HIT:          0 MISS:          0
cpu2_ITLB LOAD         ACCESS:          0 HIT:          0 MISS:          0
cpu2_ITLB RFO          ACCESS:          0 HIT:          0 MISS:          0
cpu2_ITLB PREFETCH     ACCESS:          0 HIT:          0 MISS:          0
cpu2_ITLB WRITE        ACCESS:          0 HIT:          0 MISS:          0
cpu2_ITLB TRANSLATION  ACCESS:          0 HIT:          0 MISS:          0
cpu2_ITLB PREFETCH REQUESTED:          0 ISSUED:          0 USEFUL:          0 USELESS:          0
cpu2_ITLB AVERAGE MISS LATENCY: 3.905 cycles
cpu2_L1D TOTAL        ACCESS:          0 HIT:          0 MISS:          0
cpu2_L1D LOAD         ACCESS:          0 HIT:          0 MISS:          0
cpu2_L1D RFO          ACCESS:          0 HIT:          0 MISS:          0
cpu2_L1D PREFETCH     ACCESS:          0 HIT:          0 MISS:          0
cpu2_L1D WRITE        ACCESS:          0 HIT:          0 MISS:          0
cpu2_L1D TRANSLATION  ACCESS:          0 HIT:          0 MISS:          0
cpu2_L1D PREFETCH REQUESTED:   81579189 ISSUED:   14438906 USEFUL:     425547 USELESS:     529859
cpu2_L1D AVERAGE MISS LATENCY: 13.69 cycles
cpu2_L1D TOTAL        ACCESS:          0 HIT:          0 MISS:          0
cpu2_L1D LOAD         ACCESS:          0 HIT:          0 MISS:          0
cpu2_L1D RFO          ACCESS:          0 HIT:          0 MISS:          0
cpu2_L1D PREFETCH     ACCESS:          0 HIT:          0 MISS:          0
cpu2_L1D WRITE        ACCESS:          0 HIT:          0 MISS:          0
cpu2_L1D TRANSLATION  ACCESS:          0 HIT:          0 MISS:          0
cpu2_L1D PREFETCH REQUESTED:   81579189 ISSUED:   14438906 USEFUL:     425547 USELESS:     529859
cpu2_L1D AVERAGE MISS LATENCY: 13.69 cycles
cpu2_L1D TOTAL        ACCESS:  109887065 HIT:   82059172 MISS:   27827893
cpu2_L1D LOAD         ACCESS:   68311838 HIT:   46735984 MISS:   21575854
cpu2_L1D RFO          ACCESS:          0 HIT:          0 MISS:          0
cpu2_L1D PREFETCH     ACCESS:   14438905 HIT:   11116727 MISS:    3322178
cpu2_L1D WRITE        ACCESS:   26534984 HIT:   24179798 MISS:    2355186
cpu2_L1D TRANSLATION  ACCESS:     601338 HIT:      26663 MISS:     574675
cpu2_L1D PREFETCH REQUESTED:   81579189 ISSUED:   14438906 USEFUL:     425547 USELESS:     529859
cpu2_L1D AVERAGE MISS LATENCY: 13.69 cycles
cpu2_L1D TOTAL        ACCESS:          0 HIT:          0 MISS:          0
cpu2_L1D LOAD         ACCESS:          0 HIT:          0 MISS:          0
cpu2_L1D RFO          ACCESS:          0 HIT:          0 MISS:          0
cpu2_L1D PREFETCH     ACCESS:          0 HIT:          0 MISS:          0
cpu2_L1D WRITE        ACCESS:          0 HIT:          0 MISS:          0
cpu2_L1D TRANSLATION  ACCESS:          0 HIT:          0 MISS:          0
cpu2_L1D PREFETCH REQUESTED:   81579189 ISSUED:   14438906 USEFUL:     425547 USELESS:     529859
cpu2_L1D AVERAGE MISS LATENCY: 13.69 cycles
cpu2_L1I TOTAL        ACCESS:          0 HIT:          0 MISS:          0
cpu2_L1I LOAD         ACCESS:          0 HIT:          0 MISS:          0
cpu2_L1I RFO          ACCESS:          0 HIT:          0 MISS:          0
cpu2_L1I PREFETCH     ACCESS:          0 HIT:          0 MISS:          0
cpu2_L1I WRITE        ACCESS:          0 HIT:          0 MISS:          0
cpu2_L1I TRANSLATION  ACCESS:          0 HIT:          0 MISS:          0
cpu2_L1I PREFETCH REQUESTED:          0 ISSUED:          0 USEFUL:          0 USELESS:          0
cpu2_L1I AVERAGE MISS LATENCY: 8.852 cycles
cpu2_L1I TOTAL        ACCESS:          0 HIT:          0 MISS:          0
cpu2_L1I LOAD         ACCESS:          0 HIT:          0 MISS:          0
cpu2_L1I RFO          ACCESS:          0 HIT:          0 MISS:          0
cpu2_L1I PREFETCH     ACCESS:          0 HIT:          0 MISS:          0
cpu2_L1I WRITE        ACCESS:          0 HIT:          0 MISS:          0
cpu2_L1I TRANSLATION  ACCESS:          0 HIT:          0 MISS:          0
cpu2_L1I PREFETCH REQUESTED:          0 ISSUED:          0 USEFUL:          0 USELESS:          0
cpu2_L1I AVERAGE MISS LATENCY: 8.852 cycles
cpu2_L1I TOTAL        ACCESS:   14683036 HIT:   13400893 MISS:    1282143
cpu2_L1I LOAD         ACCESS:   14683036 HIT:   13400893 MISS:    1282143
cpu2_L1I RFO          ACCESS:          0 HIT:          0 MISS:          0
cpu2_L1I PREFETCH     ACCESS:          0 HIT:          0 MISS:          0
cpu2_L1I WRITE        ACCESS:          0 HIT:          0 MISS:          0
cpu2_L1I TRANSLATION  ACCESS:          0 HIT:          0 MISS:          0
cpu2_L1I PREFETCH REQUESTED:          0 ISSUED:          0 USEFUL:          0 USELESS:          0
cpu2_L1I AVERAGE MISS LATENCY: 8.852 cycles
cpu2_L1I TOTAL        ACCESS:          0 HIT:          0 MISS:          0
cpu2_L1I LOAD         ACCESS:          0 HIT:          0 MISS:          0
cpu2_L1I RFO          ACCESS:          0 HIT:          0 MISS:          0
cpu2_L1I PREFETCH     ACCESS:          0 HIT:          0 MISS:          0
cpu2_L1I WRITE        ACCESS:          0 HIT:          0 MISS:          0
cpu2_L1I TRANSLATION  ACCESS:          0 HIT:          0 MISS:          0
cpu2_L1I PREFETCH REQUESTED:          0 ISSUED:          0 USEFUL:          0 USELESS:          0
cpu2_L1I AVERAGE MISS LATENCY: 8.852 cycles
cpu2_L2C TOTAL        ACCESS:          0 HIT:          0 MISS:          0
cpu2_L2C LOAD         ACCESS:          0 HIT:          0 MISS:          0
cpu2_L2C RFO          ACCESS:          0 HIT:          0 MISS:          0
cpu2_L2C PREFETCH     ACCESS:          0 HIT:          0 MISS:          0
cpu2_L2C WRITE        ACCESS:          0 HIT:          0 MISS:          0
cpu2_L2C TRANSLATION  ACCESS:          0 HIT:          0 MISS:          0
cpu2_L2C PREFETCH REQUESTED:          0 ISSUED:          0 USEFUL:          0 USELESS:          0
cpu2_L2C AVERAGE MISS LATENCY: 144.5 cycles
cpu2_L2C TOTAL        ACCESS:          0 HIT:          0 MISS:          0
cpu2_L2C LOAD         ACCESS:          0 HIT:          0 MISS:          0
cpu2_L2C RFO          ACCESS:          0 HIT:          0 MISS:          0
cpu2_L2C PREFETCH     ACCESS:          0 HIT:          0 MISS:          0
cpu2_L2C WRITE        ACCESS:          0 HIT:          0 MISS:          0
cpu2_L2C TRANSLATION  ACCESS:          0 HIT:          0 MISS:          0
cpu2_L2C PREFETCH REQUESTED:          0 ISSUED:          0 USEFUL:          0 USELESS:          0
cpu2_L2C AVERAGE MISS LATENCY: 144.5 cycles
cpu2_L2C TOTAL        ACCESS:   23266174 HIT:   21691647 MISS:    1574527
cpu2_L2C LOAD         ACCESS:   17925889 HIT:   17177113 MISS:     748776
cpu2_L2C RFO          ACCESS:     619750 HIT:     130453 MISS:     489297
cpu2_L2C PREFETCH     ACCESS:    3175812 HIT:    2906209 MISS:     269603
cpu2_L2C WRITE        ACCESS:     970218 HIT:     970208 MISS:         10
cpu2_L2C TRANSLATION  ACCESS:     574505 HIT:     507664 MISS:      66841
cpu2_L2C PREFETCH REQUESTED:          0 ISSUED:          0 USEFUL:          0 USELESS:          0
cpu2_L2C AVERAGE MISS LATENCY: 144.5 cycles
cpu2_L2C TOTAL        ACCESS:          0 HIT:          0 MISS:          0
cpu2_L2C LOAD         ACCESS:          0 HIT:          0 MISS:          0
cpu2_L2C RFO          ACCESS:          0 HIT:          0 MISS:          0
cpu2_L2C PREFETCH     ACCESS:          0 HIT:          0 MISS:          0
cpu2_L2C WRITE        ACCESS:          0 HIT:          0 MISS:          0
cpu2_L2C TRANSLATION  ACCESS:          0 HIT:          0 MISS:          0
cpu2_L2C PREFETCH REQUESTED:          0 ISSUED:          0 USEFUL:          0 USELESS:          0
cpu2_L2C AVERAGE MISS LATENCY: 144.5 cycles
cpu2_STLB TOTAL        ACCESS:          0 HIT:          0 MISS:          0
cpu2_STLB LOAD         ACCESS:          0 HIT:          0 MISS:          0
cpu2_STLB RFO          ACCESS:          0 HIT:          0 MISS:          0
cpu2_STLB PREFETCH     ACCESS:          0 HIT:          0 MISS:          0
cpu2_STLB WRITE        ACCESS:          0 HIT:          0 MISS:          0
cpu2_STLB TRANSLATION  ACCESS:          0 HIT:          0 MISS:          0
cpu2_STLB PREFETCH REQUESTED:          0 ISSUED:          0 USEFUL:          0 USELESS:          0
cpu2_STLB AVERAGE MISS LATENCY: 32.59 cycles
cpu2_STLB TOTAL        ACCESS:          0 HIT:          0 MISS:          0
cpu2_STLB LOAD         ACCESS:          0 HIT:          0 MISS:          0
cpu2_STLB RFO          ACCESS:          0 HIT:          0 MISS:          0
cpu2_STLB PREFETCH     ACCESS:          0 HIT:          0 MISS:          0
cpu2_STLB WRITE        ACCESS:          0 HIT:          0 MISS:          0
cpu2_STLB TRANSLATION  ACCESS:          0 HIT:          0 MISS:          0
cpu2_STLB PREFETCH REQUESTED:          0 ISSUED:          0 USEFUL:          0 USELESS:          0
cpu2_STLB AVERAGE MISS LATENCY: 32.59 cycles
cpu2_STLB TOTAL        ACCESS:   10356063 HIT:    9756780 MISS:     599283
cpu2_STLB LOAD         ACCESS:   10356063 HIT:    9756780 MISS:     599283
cpu2_STLB RFO          ACCESS:          0 HIT:          0 MISS:          0
cpu2_STLB PREFETCH     ACCESS:          0 HIT:          0 MISS:          0
cpu2_STLB WRITE        ACCESS:          0 HIT:          0 MISS:          0
cpu2_STLB TRANSLATION  ACCESS:          0 HIT:          0 MISS:          0
cpu2_STLB PREFETCH REQUESTED:          0 ISSUED:          0 USEFUL:          0 USELESS:          0
cpu2_STLB AVERAGE MISS LATENCY: 32.59 cycles
cpu2_STLB TOTAL        ACCESS:          0 HIT:          0 MISS:          0
cpu2_STLB LOAD         ACCESS:          0 HIT:          0 MISS:          0
cpu2_STLB RFO          ACCESS:          0 HIT:          0 MISS:          0
cpu2_STLB PREFETCH     ACCESS:          0 HIT:          0 MISS:          0
cpu2_STLB WRITE        ACCESS:          0 HIT:          0 MISS:          0
cpu2_STLB TRANSLATION  ACCESS:          0 HIT:          0 MISS:          0
cpu2_STLB PREFETCH REQUESTED:          0 ISSUED:          0 USEFUL:          0 USELESS:          0
cpu2_STLB AVERAGE MISS LATENCY: 32.59 cycles
cpu3_DTLB TOTAL        ACCESS:          0 HIT:          0 MISS:          0
cpu3_DTLB LOAD         ACCESS:          0 HIT:          0 MISS:          0
cpu3_DTLB RFO          ACCESS:          0 HIT:          0 MISS:          0
cpu3_DTLB PREFETCH     ACCESS:          0 HIT:          0 MISS:          0
cpu3_DTLB WRITE        ACCESS:          0 HIT:          0 MISS:          0
cpu3_DTLB TRANSLATION  ACCESS:          0 HIT:          0 MISS:          0
cpu3_DTLB PREFETCH REQUESTED:          0 ISSUED:          0 USEFUL:          0 USELESS:          0
cpu3_DTLB AVERAGE MISS LATENCY: 6.49 cycles
cpu3_DTLB TOTAL        ACCESS:          0 HIT:          0 MISS:          0
cpu3_DTLB LOAD         ACCESS:          0 HIT:          0 MISS:          0
cpu3_DTLB RFO          ACCESS:          0 HIT:          0 MISS:          0
cpu3_DTLB PREFETCH     ACCESS:          0 HIT:          0 MISS:          0
cpu3_DTLB WRITE        ACCESS:          0 HIT:          0 MISS:          0
cpu3_DTLB TRANSLATION  ACCESS:          0 HIT:          0 MISS:          0
cpu3_DTLB PREFETCH REQUESTED:          0 ISSUED:          0 USEFUL:          0 USELESS:          0
cpu3_DTLB AVERAGE MISS LATENCY: 6.49 cycles
cpu3_DTLB TOTAL        ACCESS:          0 HIT:          0 MISS:          0
cpu3_DTLB LOAD         ACCESS:          0 HIT:          0 MISS:          0
cpu3_DTLB RFO          ACCESS:          0 HIT:          0 MISS:          0
cpu3_DTLB PREFETCH     ACCESS:          0 HIT:          0 MISS:          0
cpu3_DTLB WRITE        ACCESS:          0 HIT:          0 MISS:          0
cpu3_DTLB TRANSLATION  ACCESS:          0 HIT:          0 MISS:          0
cpu3_DTLB PREFETCH REQUESTED:          0 ISSUED:          0 USEFUL:          0 USELESS:          0
cpu3_DTLB AVERAGE MISS LATENCY: 6.49 cycles
cpu3_DTLB TOTAL        ACCESS:   72603963 HIT:   71899863 MISS:     704100
cpu3_DTLB LOAD         ACCESS:   72603963 HIT:   71899863 MISS:     704100
cpu3_DTLB RFO          ACCESS:          0 HIT:          0 MISS:          0
cpu3_DTLB PREFETCH     ACCESS:          0 HIT:          0 MISS:          0
cpu3_DTLB WRITE        ACCESS:          0 HIT:          0 MISS:          0
cpu3_DTLB TRANSLATION  ACCESS:          0 HIT:          0 MISS:          0
cpu3_DTLB PREFETCH REQUESTED:          0 ISSUED:          0 USEFUL:          0 USELESS:          0
cpu3_DTLB AVERAGE MISS LATENCY: 6.49 cycles
cpu3_ITLB TOTAL        ACCESS:          0 HIT:          0 MISS:          0
cpu3_ITLB LOAD         ACCESS:          0 HIT:          0 MISS:          0
cpu3_ITLB RFO          ACCESS:          0 HIT:          0 MISS:          0
cpu3_ITLB PREFETCH     ACCESS:          0 HIT:          0 MISS:          0
cpu3_ITLB WRITE        ACCESS:          0 HIT:          0 MISS:          0
cpu3_ITLB TRANSLATION  ACCESS:          0 HIT:          0 MISS:          0
cpu3_ITLB PREFETCH REQUESTED:          0 ISSUED:          0 USEFUL:          0 USELESS:          0
cpu3_ITLB AVERAGE MISS LATENCY: 213.8 cycles
cpu3_ITLB TOTAL        ACCESS:          0 HIT:          0 MISS:          0
cpu3_ITLB LOAD         ACCESS:          0 HIT:          0 MISS:          0
cpu3_ITLB RFO          ACCESS:          0 HIT:          0 MISS:          0
cpu3_ITLB PREFETCH     ACCESS:          0 HIT:          0 MISS:          0
cpu3_ITLB WRITE        ACCESS:          0 HIT:          0 MISS:          0
cpu3_ITLB TRANSLATION  ACCESS:          0 HIT:          0 MISS:          0
cpu3_ITLB PREFETCH REQUESTED:          0 ISSUED:          0 USEFUL:          0 USELESS:          0
cpu3_ITLB AVERAGE MISS LATENCY: 213.8 cycles
cpu3_ITLB TOTAL        ACCESS:          0 HIT:          0 MISS:          0
cpu3_ITLB LOAD         ACCESS:          0 HIT:          0 MISS:          0
cpu3_ITLB RFO          ACCESS:          0 HIT:          0 MISS:          0
cpu3_ITLB PREFETCH     ACCESS:          0 HIT:          0 MISS:          0
cpu3_ITLB WRITE        ACCESS:          0 HIT:          0 MISS:          0
cpu3_ITLB TRANSLATION  ACCESS:          0 HIT:          0 MISS:          0
cpu3_ITLB PREFETCH REQUESTED:          0 ISSUED:          0 USEFUL:          0 USELESS:          0
cpu3_ITLB AVERAGE MISS LATENCY: 213.8 cycles
cpu3_ITLB TOTAL        ACCESS:    4634718 HIT:    4634509 MISS:        209
cpu3_ITLB LOAD         ACCESS:    4634718 HIT:    4634509 MISS:        209
cpu3_ITLB RFO          ACCESS:          0 HIT:          0 MISS:          0
cpu3_ITLB PREFETCH     ACCESS:          0 HIT:          0 MISS:          0
cpu3_ITLB WRITE        ACCESS:          0 HIT:          0 MISS:          0
[...]
cpu2_L2C TRANSLATION  ACCESS:          0 HIT:          0 MISS:          0
cpu2_L2C PREFETCH REQUESTED:          0 ISSUED:          0 USEFUL:          0 USELESS:          0
cpu2_L2C AVERAGE MISS LATENCY: 144.5 cycles
cpu2_L2C TOTAL        ACCESS:          0 HIT:          0 MISS:          0
cpu2_L2C LOAD         ACCESS:          0 HIT:          0 MISS:          0
cpu2_L2C RFO          ACCESS:          0 HIT:          0 MISS:          0
cpu2_L2C PREFETCH     ACCESS:          0 HIT:          0 MISS:          0
cpu2_L2C WRITE        ACCESS:          0 HIT:          0 MISS:          0
cpu2_L2C TRANSLATION  ACCESS:          0 HIT:          0 MISS:          0
cpu2_L2C PREFETCH REQUESTED:          0 ISSUED:          0 USEFUL:          0 USELESS:          0
cpu2_L2C AVERAGE MISS LATENCY: 144.5 cycles
cpu2_L2C TOTAL        ACCESS:    9438877 HIT:    8871812 MISS:     567065
cpu2_L2C LOAD         ACCESS:    7728031 HIT:    7437940 MISS:     290091
cpu2_L2C RFO          ACCESS:     205083 HIT:      44866 MISS:     160217
cpu2_L2C PREFETCH     ACCESS:     906443 HIT:     819917 MISS:      86526
cpu2_L2C WRITE        ACCESS:     342032 HIT:     342025 MISS:          7
cpu2_L2C TRANSLATION  ACCESS:     257288 HIT:     227064 MISS:      30224
cpu2_L2C PREFETCH REQUESTED:          0 ISSUED:          0 USEFUL:          0 USELESS:          0
cpu2_L2C AVERAGE MISS LATENCY: 144.5 cycles
cpu2_L2C TOTAL        ACCESS:          0 HIT:          0 MISS:          0
cpu2_L2C LOAD         ACCESS:          0 HIT:          0 MISS:          0
cpu2_L2C RFO          ACCESS:          0 HIT:          0 MISS:          0
cpu2_L2C PREFETCH     ACCESS:          0 HIT:          0 MISS:          0
cpu2_L2C WRITE        ACCESS:          0 HIT:          0 MISS:          0
cpu2_L2C TRANSLATION  ACCESS:          0 HIT:          0 MISS:          0
cpu2_L2C PREFETCH REQUESTED:          0 ISSUED:          0 USEFUL:          0 USELESS:          0
cpu2_L2C AVERAGE MISS LATENCY: 144.5 cycles
cpu2_STLB TOTAL        ACCESS:          0 HIT:          0 MISS:          0
cpu2_STLB LOAD         ACCESS:          0 HIT:          0 MISS:          0
cpu2_STLB RFO          ACCESS:          0 HIT:          0 MISS:          0
cpu2_STLB PREFETCH     ACCESS:          0 HIT:          0 MISS:          0
cpu2_STLB WRITE        ACCESS:          0 HIT:          0 MISS:          0
cpu2_STLB TRANSLATION  ACCESS:          0 HIT:          0 MISS:          0
cpu2_STLB PREFETCH REQUESTED:          0 ISSUED:          0 USEFUL:          0 USELESS:          0
cpu2_STLB AVERAGE MISS LATENCY: 32.59 cycles
cpu2_STLB TOTAL        ACCESS:          0 HIT:          0 MISS:          0
cpu2_STLB LOAD         ACCESS:          0 HIT:          0 MISS:          0
cpu2_STLB RFO          ACCESS:          0 HIT:          0 MISS:          0
cpu2_STLB PREFETCH     ACCESS:          0 HIT:          0 MISS:          0
cpu2_STLB WRITE        ACCESS:          0 HIT:          0 MISS:          0
cpu2_STLB TRANSLATION  ACCESS:          0 HIT:          0 MISS:          0
cpu2_STLB PREFETCH REQUESTED:          0 ISSUED:          0 USEFUL:          0 USELESS:          0
cpu2_STLB AVERAGE MISS LATENCY: 32.59 cycles
cpu2_STLB TOTAL        ACCESS:    4510579 HIT:    4241704 MISS:     268875
cpu2_STLB LOAD         ACCESS:    4510579 HIT:    4241704 MISS:     268875
cpu2_STLB RFO          ACCESS:          0 HIT:          0 MISS:          0
cpu2_STLB PREFETCH     ACCESS:          0 HIT:          0 MISS:          0
cpu2_STLB WRITE        ACCESS:          0 HIT:          0 MISS:          0
cpu2_STLB TRANSLATION  ACCESS:          0 HIT:          0 MISS:          0
cpu2_STLB PREFETCH REQUESTED:          0 ISSUED:          0 USEFUL:          0 USELESS:          0
cpu2_STLB AVERAGE MISS LATENCY: 32.59 cycles
cpu2_STLB TOTAL        ACCESS:          0 HIT:          0 MISS:          0
cpu2_STLB LOAD         ACCESS:          0 HIT:          0 MISS:          0
cpu2_STLB RFO          ACCESS:          0 HIT:          0 MISS:          0
cpu2_STLB PREFETCH     ACCESS:          0 HIT:          0 MISS:          0
cpu2_STLB WRITE        ACCESS:          0 HIT:          0 MISS:          0
cpu2_STLB TRANSLATION  ACCESS:          0 HIT:          0 MISS:          0
cpu2_STLB PREFETCH REQUESTED:          0 ISSUED:          0 USEFUL:          0 USELESS:          0
cpu2_STLB AVERAGE MISS LATENCY: 32.59 cycles
cpu3_DTLB TOTAL        ACCESS:          0 HIT:          0 MISS:          0
cpu3_DTLB LOAD         ACCESS:          0 HIT:          0 MISS:          0
cpu3_DTLB RFO          ACCESS:          0 HIT:          0 MISS:          0
cpu3_DTLB PREFETCH     ACCESS:          0 HIT:          0 MISS:          0
cpu3_DTLB WRITE        ACCESS:          0 HIT:          0 MISS:          0
cpu3_DTLB TRANSLATION  ACCESS:          0 HIT:          0 MISS:          0
cpu3_DTLB PREFETCH REQUESTED:          0 ISSUED:          0 USEFUL:          0 USELESS:          0
cpu3_DTLB AVERAGE MISS LATENCY: 6.49 cycles
cpu3_DTLB TOTAL        ACCESS:          0 HIT:          0 MISS:          0
cpu3_DTLB LOAD         ACCESS:          0 HIT:          0 MISS:          0
cpu3_DTLB RFO          ACCESS:          0 HIT:          0 MISS:          0
cpu3_DTLB PREFETCH     ACCESS:          0 HIT:          0 MISS:          0
cpu3_DTLB WRITE        ACCESS:          0 HIT:          0 MISS:          0
cpu3_DTLB TRANSLATION  ACCESS:          0 HIT:          0 MISS:          0
cpu3_DTLB PREFETCH REQUESTED:          0 ISSUED:          0 USEFUL:          0 USELESS:          0
cpu3_DTLB AVERAGE MISS LATENCY: 6.49 cycles
cpu3_DTLB TOTAL        ACCESS:          0 HIT:          0 MISS:          0
cpu3_DTLB LOAD         ACCESS:          0 HIT:          0 MISS:          0
cpu3_DTLB RFO          ACCESS:          0 HIT:          0 MISS:          0
cpu3_DTLB PREFETCH     ACCESS:          0 HIT:          0 MISS:          0
cpu3_DTLB WRITE        ACCESS:          0 HIT:          0 MISS:          0
cpu3_DTLB TRANSLATION  ACCESS:          0 HIT:          0 MISS:          0
cpu3_DTLB PREFETCH REQUESTED:          0 ISSUED:          0 USEFUL:          0 USELESS:          0
cpu3_DTLB AVERAGE MISS LATENCY: 6.49 cycles
cpu3_DTLB TOTAL        ACCESS:   17887988 HIT:   17877541 MISS:      10447
cpu3_DTLB LOAD         ACCESS:   17887988 HIT:   17877541 MISS:      10447
cpu3_DTLB RFO          ACCESS:          0 HIT:          0 MISS:          0
cpu3_DTLB PREFETCH     ACCESS:          0 HIT:          0 MISS:          0
cpu3_DTLB WRITE        ACCESS:          0 HIT:          0 MISS:          0
cpu3_DTLB TRANSLATION  ACCESS:          0 HIT:          0 MISS:          0
cpu3_DTLB PREFETCH REQUESTED:          0 ISSUED:          0 USEFUL:          0 USELESS:          0
cpu3_DTLB AVERAGE MISS LATENCY: 6.49 cycles
cpu3_ITLB TOTAL        ACCESS:          0 HIT:          0 MISS:          0
cpu3_ITLB LOAD         ACCESS:          0 HIT:          0 MISS:          0
cpu3_ITLB RFO          ACCESS:          0 HIT:          0 MISS:          0
cpu3_ITLB PREFETCH     ACCESS:          0 HIT:          0 MISS:          0
cpu3_ITLB WRITE        ACCESS:          0 HIT:          0 MISS:          0
cpu3_ITLB TRANSLATION  ACCESS:          0 HIT:          0 MISS:          0
cpu3_ITLB PREFETCH REQUESTED:          0 ISSUED:          0 USEFUL:          0 USELESS:          0
cpu3_ITLB AVERAGE MISS LATENCY: 213.8 cycles
cpu3_ITLB TOTAL        ACCESS:          0 HIT:          0 MISS:          0
cpu3_ITLB LOAD         ACCESS:          0 HIT:          0 MISS:          0
cpu3_ITLB RFO          ACCESS:          0 HIT:          0 MISS:          0
cpu3_ITLB PREFETCH     ACCESS:          0 HIT:          0 MISS:          0
cpu3_ITLB WRITE        ACCESS:          0 HIT:          0 MISS:          0
cpu3_ITLB TRANSLATION  ACCESS:          0 HIT:          0 MISS:          0
cpu3_ITLB PREFETCH REQUESTED:          0 ISSUED:          0 USEFUL:          0 USELESS:          0
cpu3_ITLB AVERAGE MISS LATENCY: 213.8 cycles
cpu3_ITLB TOTAL        ACCESS:          0 HIT:          0 MISS:          0
cpu3_ITLB LOAD         ACCESS:          0 HIT:          0 MISS:          0
cpu3_ITLB RFO          ACCESS:          0 HIT:          0 MISS:          0
cpu3_ITLB PREFETCH     ACCESS:          0 HIT:          0 MISS:          0
cpu3_ITLB WRITE        ACCESS:          0 HIT:          0 MISS:          0
cpu3_ITLB TRANSLATION  ACCESS:          0 HIT:          0 MISS:          0
cpu3_ITLB PREFETCH REQUESTED:          0 ISSUED:          0 USEFUL:          0 USELESS:          0
cpu3_ITLB AVERAGE MISS LATENCY: 213.8 cycles
cpu3_ITLB TOTAL        ACCESS:     497191 HIT:     497191 MISS:          0
cpu3_ITLB LOAD         ACCESS:     497191 HIT:     497191 MISS:          0
cpu3_ITLB RFO          ACCESS:          0 HIT:          0 MISS:          0
cpu3_ITLB PREFETCH     ACCESS:          0 HIT:          0 MISS:          0
cpu3_ITLB WRITE        ACCESS:          0 HIT:          0 MISS:          0
cpu3_ITLB TRANSLATION  ACCESS:          0 HIT:          0 MISS:          0
cpu3_ITLB PREFETCH REQUESTED:          0 ISSUED:          0 USEFUL:          0 USELESS:          0
cpu3_ITLB AVERAGE MISS LATENCY: 213.8 cycles
cpu3_L1D TOTAL        ACCESS:          0 HIT:          0 MISS:          0
cpu3_L1D LOAD         ACCESS:          0 HIT:          0 MISS:          0
cpu3_L1D RFO          ACCESS:          0 HIT:          0 MISS:          0
cpu3_L1D PREFETCH     ACCESS:          0 HIT:          0 MISS:          0
cpu3_L1D WRITE        ACCESS:          0 HIT:          0 MISS:          0
cpu3_L1D TRANSLATION  ACCESS:          0 HIT:          0 MISS:          0
cpu3_L1D PREFETCH REQUESTED:   20060663 ISSUED:    4038819 USEFUL:     209063 USELESS:      66877
cpu3_L1D AVERAGE MISS LATENCY: 39.51 cycles
cpu3_L1D TOTAL        ACCESS:          0 HIT:          0 MISS:          0
cpu3_L1D LOAD         ACCESS:          0 HIT:          0 MISS:          0
cpu3_L1D RFO          ACCESS:          0 HIT:          0 MISS:          0
cpu3_L1D PREFETCH     ACCESS:          0 HIT:          0 MISS:          0
cpu3_L1D WRITE        ACCESS:          0 HIT:          0 MISS:          0
cpu3_L1D TRANSLATION  ACCESS:          0 HIT:          0 MISS:          0
cpu3_L1D PREFETCH REQUESTED:   20060663 ISSUED:    4038819 USEFUL:     209063 USELESS:      66877
cpu3_L1D AVERAGE MISS LATENCY: 39.51 cycles
cpu3_L1D TOTAL        ACCESS:          0 HIT:          0 MISS:          0
cpu3_L1D LOAD         ACCESS:          0 HIT:          0 MISS:          0
cpu3_L1D RFO          ACCESS:          0 HIT:          0 MISS:          0
cpu3_L1D PREFETCH     ACCESS:          0 HIT:          0 MISS:          0
cpu3_L1D WRITE        ACCESS:          0 HIT:          0 MISS:          0
cpu3_L1D TRANSLATION  ACCESS:          0 HIT:          0 MISS:          0
cpu3_L1D PREFETCH REQUESTED:   20060663 ISSUED:    4038819 USEFUL:     209063 USELESS:      66877
cpu3_L1D AVERAGE MISS LATENCY: 39.51 cycles
cpu3_L1D TOTAL        ACCESS:   21972164 HIT:   21953776 MISS:      18388
cpu3_L1D LOAD         ACCESS:   16386112 HIT:   16384238 MISS:       1874
cpu3_L1D RFO          ACCESS:          0 HIT:          0 MISS:          0
cpu3_L1D PREFETCH     ACCESS:      23559 HIT:      12622 MISS:      10937
cpu3_L1D WRITE        ACCESS:    5562322 HIT:    5556899 MISS:       5423
cpu3_L1D TRANSLATION  ACCESS:        171 HIT:         17 MISS:        154
cpu3_L1D PREFETCH REQUESTED:   20060663 ISSUED:    4038819 USEFUL:     209063 USELESS:      66877
cpu3_L1D AVERAGE MISS LATENCY: 39.51 cycles
cpu3_L1I TOTAL        ACCESS:          0 HIT:          0 MISS:          0
cpu3_L1I LOAD         ACCESS:          0 HIT:          0 MISS:          0
cpu3_L1I RFO          ACCESS:          0 HIT:          0 MISS:          0
cpu3_L1I PREFETCH     ACCESS:          0 HIT:          0 MISS:          0
cpu3_L1I WRITE        ACCESS:          0 HIT:          0 MISS:          0
cpu3_L1I TRANSLATION  ACCESS:          0 HIT:          0 MISS:          0
cpu3_L1I PREFETCH REQUESTED:          0 ISSUED:          0 USEFUL:          0 USELESS:          0
cpu3_L1I AVERAGE MISS LATENCY: 8.18 cycles
cpu3_L1I TOTAL        ACCESS:          0 HIT:          0 MISS:          0
cpu3_L1I LOAD         ACCESS:          0 HIT:          0 MISS:          0
cpu3_L1I RFO          ACCESS:          0 HIT:          0 MISS:          0
cpu3_L1I PREFETCH     ACCESS:          0 HIT:          0 MISS:          0
cpu3_L1I WRITE        ACCESS:          0 HIT:          0 MISS:          0
cpu3_L1I TRANSLATION  ACCESS:          0 HIT:          0 MISS:          0
cpu3_L1I PREFETCH REQUESTED:          0 ISSUED:          0 USEFUL:          0 USELESS:          0
cpu3_L1I AVERAGE MISS LATENCY: 8.18 cycles
cpu3_L1I TOTAL        ACCESS:          0 HIT:          0 MISS:          0
cpu3_L1I LOAD         ACCESS:          0 HIT:          0 MISS:          0
cpu3_L1I RFO          ACCESS:          0 HIT:          0 MISS:          0
cpu3_L1I PREFETCH     ACCESS:          0 HIT:          0 MISS:          0
cpu3_L1I WRITE        ACCESS:          0 HIT:          0 MISS:          0
cpu3_L1I TRANSLATION  ACCESS:          0 HIT:          0 MISS:          0
cpu3_L1I PREFETCH REQUESTED:          0 ISSUED:          0 USEFUL:          0 USELESS:          0
cpu3_L1I AVERAGE MISS LATENCY: 8.18 cycles
cpu3_L1I TOTAL        ACCESS:     550885 HIT:     549456 MISS:       1429
cpu3_L1I LOAD         ACCESS:     550885 HIT:     549456 MISS:       1429
cpu3_L1I RFO          ACCESS:          0 HIT:          0 MISS:          0
cpu3_L1I PREFETCH     ACCESS:          0 HIT:          0 MISS:          0
cpu3_L1I WRITE        ACCESS:          0 HIT:          0 MISS:          0
cpu3_L1I TRANSLATION  ACCESS:          0 HIT:          0 MISS:          0
cpu3_L1I PREFETCH REQUESTED:          0 ISSUED:          0 USEFUL:          0 USELESS:          0
cpu3_L1I AVERAGE MISS LATENCY: 8.18 cycles
cpu3_L2C TOTAL        ACCESS:          0 HIT:          0 MISS:          0
cpu3_L2C LOAD         ACCESS:          0 HIT:          0 MISS:          0
cpu3_L2C RFO          ACCESS:          0 HIT:          0 MISS:          0
cpu3_L2C PREFETCH     ACCESS:          0 HIT:          0 MISS:          0
cpu3_L2C WRITE        ACCESS:          0 HIT:          0 MISS:          0
cpu3_L2C TRANSLATION  ACCESS:          0 HIT:          0 MISS:          0
cpu3_L2C PREFETCH REQUESTED:          0 ISSUED:          0 USEFUL:          0 USELESS:          0
cpu3_L2C AVERAGE MISS LATENCY: 486.9 cycles
cpu3_L2C TOTAL        ACCESS:          0 HIT:          0 MISS:          0
cpu3_L2C LOAD         ACCESS:          0 HIT:          0 MISS:          0
cpu3_L2C RFO          ACCESS:          0 HIT:          0 MISS:          0
cpu3_L2C PREFETCH     ACCESS:          0 HIT:          0 MISS:          0
cpu3_L2C WRITE        ACCESS:          0 HIT:          0 MISS:          0
cpu3_L2C TRANSLATION  ACCESS:          0 HIT:          0 MISS:          0
cpu3_L2C PREFETCH REQUESTED:          0 ISSUED:          0 USEFUL:          0 USELESS:          0
cpu3_L2C AVERAGE MISS LATENCY: 486.9 cycles
cpu3_L2C TOTAL        ACCESS:          0 HIT:          0 MISS:          0
cpu3_L2C LOAD         ACCESS:          0 HIT:          0 MISS:          0
cpu3_L2C RFO          ACCESS:          0 HIT:          0 MISS:          0
cpu3_L2C PREFETCH     ACCESS:          0 HIT:          0 MISS:          0
cpu3_L2C WRITE        ACCESS:          0 HIT:          0 MISS:          0
cpu3_L2C TRANSLATION  ACCESS:          0 HIT:          0 MISS:          0
cpu3_L2C PREFETCH REQUESTED:          0 ISSUED:          0 USEFUL:          0 USELESS:          0
cpu3_L2C AVERAGE MISS LATENCY: 486.9 cycles
cpu3_L2C TOTAL        ACCESS:      18771 HIT:      13684 MISS:       5087
cpu3_L2C LOAD         ACCESS:       2129 HIT:       1320 MISS:        809
cpu3_L2C RFO          ACCESS:       2520 HIT:        102 MISS:       2418
cpu3_L2C PREFETCH     ACCESS:      10894 HIT:       9131 MISS:       1763
cpu3_L2C WRITE        ACCESS:       3074 HIT:       3072 MISS:          2
cpu3_L2C TRANSLATION  ACCESS:        154 HIT:         59 MISS:         95
cpu3_L2C PREFETCH REQUESTED:          0 ISSUED:          0 USEFUL:          0 USELESS:          0
cpu3_L2C AVERAGE MISS LATENCY: 486.9 cycles
cpu3_STLB TOTAL        ACCESS:          0 HIT:          0 MISS:          0
cpu3_STLB LOAD         ACCESS:          0 HIT:          0 MISS:          0
cpu3_STLB RFO          ACCESS:          0 HIT:          0 MISS:          0
cpu3_STLB PREFETCH     ACCESS:          0 HIT:          0 MISS:          0
cpu3_STLB WRITE        ACCESS:          0 HIT:          0 MISS:          0
cpu3_STLB TRANSLATION  ACCESS:          0 HIT:          0 MISS:          0
cpu3_STLB PREFETCH REQUESTED:          0 ISSUED:          0 USEFUL:          0 USELESS:          0
cpu3_STLB AVERAGE MISS LATENCY: 306.7 cycles
cpu3_STLB TOTAL        ACCESS:          0 HIT:          0 MISS:          0
cpu3_STLB LOAD         ACCESS:          0 HIT:          0 MISS:          0
cpu3_STLB RFO          ACCESS:          0 HIT:          0 MISS:          0
cpu3_STLB PREFETCH     ACCESS:          0 HIT:          0 MISS:          0
cpu3_STLB WRITE        ACCESS:          0 HIT:          0 MISS:          0
cpu3_STLB TRANSLATION  ACCESS:          0 HIT:          0 MISS:          0
cpu3_STLB PREFETCH REQUESTED:          0 ISSUED:          0 USEFUL:          0 USELESS:          0
cpu3_STLB AVERAGE MISS LATENCY: 306.7 cycles
cpu3_STLB TOTAL        ACCESS:          0 HIT:          0 MISS:          0
cpu3_STLB LOAD         ACCESS:          0 HIT:          0 MISS:          0
cpu3_STLB RFO          ACCESS:          0 HIT:          0 MISS:          0
cpu3_STLB PREFETCH     ACCESS:          0 HIT:          0 MISS:          0
cpu3_STLB WRITE        ACCESS:          0 HIT:          0 MISS:          0
cpu3_STLB TRANSLATION  ACCESS:          0 HIT:          0 MISS:          0
cpu3_STLB PREFETCH REQUESTED:          0 ISSUED:          0 USEFUL:          0 USELESS:          0
cpu3_STLB AVERAGE MISS LATENCY: 306.7 cycles
cpu3_STLB TOTAL        ACCESS:       9215 HIT:       9045 MISS:        170
cpu3_STLB LOAD         ACCESS:       9215 HIT:       9045 MISS:        170
cpu3_STLB RFO          ACCESS:          0 HIT:          0 MISS:          0
cpu3_STLB PREFETCH     ACCESS:          0 HIT:          0 MISS:          0
cpu3_STLB WRITE        ACCESS:          0 HIT:          0 MISS:          0
cpu3_STLB TRANSLATION  ACCESS:          0 HIT:          0 MISS:          0
cpu3_STLB PREFETCH REQUESTED:          0 ISSUED:          0 USEFUL:          0 USELESS:          0
cpu3_STLB AVERAGE MISS LATENCY: 306.7 cycles

DRAM Statistics

Channel 0 RQ ROW_BUFFER_HIT:     209722
  ROW_BUFFER_MISS:    1270107
 AVG DBUS CONGESTED CYCLE: 3.903
WQ ROW_BUFFER_HIT: Channel 0 
  ROW_BUFFER_MISS:      93569
  FULL:     569959

Channel 1 RQ ROW_BUFFER_HIT:     210438
  ROW_BUFFER_MISS:    1263755
 AVG DBUS CONGESTED CYCLE: 3.903
WQ ROW_BUFFER_HIT: Channel 1 
  ROW_BUFFER_MISS:      94486
  FULL:     567747
BERTI TO_L1: 92945941 TO_L2: 102658539 TO_L2_BC_MSHR: 1132941
BERTI AVG_LAT: 68.8737 NUM_TRACK_LATENCY: 28941047 NUM_CANT_TRACK_LATENCY: 36987
BERTI CROSS_PAGE 29936157 NO_CROSS_PAGE: 165668323
BERTI FOUND_BERTI: 95036796 NO_FOUND_BERTI: 158854789
BERTI AVERAGE_ISSUED: 1.86606
BERTI TO_L1: 92945941 TO_L2: 102658539 TO_L2_BC_MSHR: 1132941
BERTI AVG_LAT: 68.8737 NUM_TRACK_LATENCY: 28941047 NUM_CANT_TRACK_LATENCY: 36987
BERTI CROSS_PAGE 29936157 NO_CROSS_PAGE: 165668323
BERTI FOUND_BERTI: 95036796 NO_FOUND_BERTI: 158854789
BERTI AVERAGE_ISSUED: 1.86606
BERTI TO_L1: 92945941 TO_L2: 102658539 TO_L2_BC_MSHR: 1132941
BERTI AVG_LAT: 68.8737 NUM_TRACK_LATENCY: 28941047 NUM_CANT_TRACK_LATENCY: 36987
BERTI CROSS_PAGE 29936157 NO_CROSS_PAGE: 165668323
BERTI FOUND_BERTI: 95036796 NO_FOUND_BERTI: 158854789
BERTI AVERAGE_ISSUED: 1.86606
BERTI TO_L1: 92945941 TO_L2: 102658539 TO_L2_BC_MSHR: 1132941
BERTI AVG_LAT: 68.8737 NUM_TRACK_LATENCY: 28941047 NUM_CANT_TRACK_LATENCY: 36987
BERTI CROSS_PAGE 29936157 NO_CROSS_PAGE: 165668323
BERTI FOUND_BERTI: 95036796 NO_FOUND_BERTI: 158854789
BERTI AVERAGE_ISSUED: 1.86606
