Original cmd-> /home/grads/r/rdas40/ECEN676/ChampSim/bin/multi_core/berti_2ch --warmup_instructions=50000000 --simulation_instructions=150000000  /home/grads/r/rdas40/dpc3_traces/644.nab_s-5853B.champsimtrace.xz /home/grads/r/rdas40/dpc3_traces/649.fotonik3d_s-1176B.champsimtrace.xz /home/grads/r/rdas40/dpc3_traces/623.xalancbmk_s-700B.champsimtrace.xz /home/grads/r/rdas40/dpc3_traces/621.wrf_s-575B.champsimtrace.xz
WARNING: physical memory size is smaller than virtual memory size.
WARNING: option --warmup_instructions is deprecated. Use --warmup-instructions instead.
WARNING: option --simulation_instructions is deprecated. Use --simulation-instructions instead.

*** ChampSim Multicore Out-of-Order Simulator ***
Warmup Instructions: 50000000
Simulation Instructions: 150000000
Number of CPUs: 4
Page size: 4096

Berti Prefetcher
BERTI HASH ORIGINAL
BERTI IP MASK ffff
Berti Prefetcher
BERTI HASH ORIGINAL
BERTI IP MASK ffff
Berti Prefetcher
BERTI HASH ORIGINAL
BERTI IP MASK ffff
Berti Prefetcher
BERTI HASH ORIGINAL
BERTI IP MASK ffff
Off-chip DRAM Size: 8 GiB Channels: 2 Width: 64-bit Data Race: 3200 MT/s
Heartbeat CPU 1 instructions: 10000002 cycles: 2500044 heartbeat IPC: 4 cumulative IPC: 4 (Simulation time: 00 hr 03 min 01 sec)
Heartbeat CPU 3 instructions: 10000001 cycles: 2502764 heartbeat IPC: 3.996 cumulative IPC: 3.996 (Simulation time: 00 hr 03 min 01 sec)
Heartbeat CPU 2 instructions: 10000003 cycles: 3062259 heartbeat IPC: 3.266 cumulative IPC: 3.266 (Simulation time: 00 hr 03 min 42 sec)
Heartbeat CPU 0 instructions: 10000001 cycles: 3454096 heartbeat IPC: 2.895 cumulative IPC: 2.895 (Simulation time: 00 hr 04 min 10 sec)
Heartbeat CPU 1 instructions: 20000002 cycles: 5000044 heartbeat IPC: 4 cumulative IPC: 4 (Simulation time: 00 hr 05 min 59 sec)
Heartbeat CPU 3 instructions: 20000000 cycles: 5005381 heartbeat IPC: 3.996 cumulative IPC: 3.996 (Simulation time: 00 hr 05 min 59 sec)
Heartbeat CPU 2 instructions: 20000003 cycles: 5746340 heartbeat IPC: 3.726 cumulative IPC: 3.48 (Simulation time: 00 hr 06 min 52 sec)
Heartbeat CPU 0 instructions: 20000001 cycles: 6911968 heartbeat IPC: 2.892 cumulative IPC: 2.894 (Simulation time: 00 hr 08 min 20 sec)
Heartbeat CPU 1 instructions: 30000002 cycles: 7500044 heartbeat IPC: 4 cumulative IPC: 4 (Simulation time: 00 hr 09 min 03 sec)
Heartbeat CPU 3 instructions: 30000001 cycles: 7507708 heartbeat IPC: 3.996 cumulative IPC: 3.996 (Simulation time: 00 hr 09 min 04 sec)
Heartbeat CPU 2 instructions: 30000000 cycles: 8965509 heartbeat IPC: 3.106 cumulative IPC: 3.346 (Simulation time: 00 hr 10 min 53 sec)
Heartbeat CPU 1 instructions: 40000002 cycles: 10000044 heartbeat IPC: 4 cumulative IPC: 4 (Simulation time: 00 hr 12 min 10 sec)
Heartbeat CPU 3 instructions: 40000001 cycles: 10010384 heartbeat IPC: 3.996 cumulative IPC: 3.996 (Simulation time: 00 hr 12 min 10 sec)
Heartbeat CPU 0 instructions: 30000001 cycles: 10364417 heartbeat IPC: 2.896 cumulative IPC: 2.895 (Simulation time: 00 hr 12 min 37 sec)
Heartbeat CPU 2 instructions: 40000004 cycles: 12220628 heartbeat IPC: 3.072 cumulative IPC: 3.273 (Simulation time: 00 hr 14 min 54 sec)
Heartbeat CPU 1 instructions: 50000002 cycles: 12500044 heartbeat IPC: 4 cumulative IPC: 4 (Simulation time: 00 hr 15 min 15 sec)
Warmup finished CPU 1 instructions: 50000002 cycles: 12500045 cumulative IPC: 4 (Simulation time: 00 hr 15 min 15 sec)
Heartbeat CPU 3 instructions: 50000002 cycles: 12513096 heartbeat IPC: 3.996 cumulative IPC: 3.996 (Simulation time: 00 hr 15 min 16 sec)
Warmup finished CPU 3 instructions: 50000002 cycles: 12513097 cumulative IPC: 3.996 (Simulation time: 00 hr 15 min 16 sec)
Heartbeat CPU 0 instructions: 40000004 cycles: 13788449 heartbeat IPC: 2.921 cumulative IPC: 2.901 (Simulation time: 00 hr 16 min 49 sec)
Heartbeat CPU 1 instructions: 60000002 cycles: 15000044 heartbeat IPC: 4 cumulative IPC: 4 (Simulation time: 00 hr 18 min 17 sec)
Heartbeat CPU 3 instructions: 60000001 cycles: 15015694 heartbeat IPC: 3.996 cumulative IPC: 3.996 (Simulation time: 00 hr 18 min 18 sec)
Heartbeat CPU 2 instructions: 50000002 cycles: 15374551 heartbeat IPC: 3.171 cumulative IPC: 3.252 (Simulation time: 00 hr 18 min 44 sec)
Warmup finished CPU 2 instructions: 50000002 cycles: 15374552 cumulative IPC: 3.252 (Simulation time: 00 hr 18 min 44 sec)
Heartbeat CPU 0 instructions: 50000002 cycles: 17212566 heartbeat IPC: 2.92 cumulative IPC: 2.905 (Simulation time: 00 hr 21 min 01 sec)
Warmup finished CPU 0 instructions: 50000002 cycles: 17212567 cumulative IPC: 2.905 (Simulation time: 00 hr 21 min 01 sec)
Warmup complete CPU 0 instructions: 50000002 cycles: 17212567 cumulative IPC: 2.905 (Simulation time: 00 hr 21 min 01 sec)
Warmup complete CPU 1 instructions: 68850090 cycles: 17212567 cumulative IPC: 4 (Simulation time: 00 hr 21 min 01 sec)
Warmup complete CPU 2 instructions: 56711328 cycles: 17212567 cumulative IPC: 3.295 (Simulation time: 00 hr 21 min 01 sec)
Warmup complete CPU 3 instructions: 68777025 cycles: 17212567 cumulative IPC: 3.996 (Simulation time: 00 hr 21 min 01 sec)
Heartbeat CPU 3 instructions: 70000000 cycles: 17793160 heartbeat IPC: 3.6 cumulative IPC: 2.106 (Simulation time: 00 hr 21 min 40 sec)
Heartbeat CPU 1 instructions: 70000004 cycles: 17828110 heartbeat IPC: 3.536 cumulative IPC: 1.868 (Simulation time: 00 hr 21 min 42 sec)
Heartbeat CPU 2 instructions: 60000003 cycles: 18934869 heartbeat IPC: 2.809 cumulative IPC: 1.909 (Simulation time: 00 hr 22 min 54 sec)
Heartbeat CPU 0 instructions: 60000001 cycles: 20810348 heartbeat IPC: 2.779 cumulative IPC: 2.779 (Simulation time: 00 hr 24 min 57 sec)
Heartbeat CPU 3 instructions: 80000001 cycles: 22496518 heartbeat IPC: 2.126 cumulative IPC: 2.124 (Simulation time: 00 hr 26 min 47 sec)
Heartbeat CPU 1 instructions: 80000001 cycles: 22822871 heartbeat IPC: 2.002 cumulative IPC: 1.987 (Simulation time: 00 hr 27 min 08 sec)
Heartbeat CPU 0 instructions: 70000000 cycles: 24409533 heartbeat IPC: 2.778 cumulative IPC: 2.779 (Simulation time: 00 hr 28 min 49 sec)
Heartbeat CPU 2 instructions: 70000001 cycles: 24919590 heartbeat IPC: 1.671 cumulative IPC: 1.724 (Simulation time: 00 hr 29 min 21 sec)
Heartbeat CPU 3 instructions: 90000002 cycles: 27215502 heartbeat IPC: 2.119 cumulative IPC: 2.122 (Simulation time: 00 hr 31 min 26 sec)
Heartbeat CPU 1 instructions: 90000001 cycles: 28129577 heartbeat IPC: 1.884 cumulative IPC: 1.937 (Simulation time: 00 hr 32 min 19 sec)
Heartbeat CPU 0 instructions: 80000003 cycles: 28895072 heartbeat IPC: 2.229 cumulative IPC: 2.568 (Simulation time: 00 hr 33 min 04 sec)
Heartbeat CPU 3 instructions: 100000000 cycles: 31931187 heartbeat IPC: 2.121 cumulative IPC: 2.121 (Simulation time: 00 hr 36 min 03 sec)
Heartbeat CPU 2 instructions: 80000001 cycles: 32907462 heartbeat IPC: 1.252 cumulative IPC: 1.484 (Simulation time: 00 hr 37 min 00 sec)
Heartbeat CPU 1 instructions: 100000002 cycles: 32914527 heartbeat IPC: 2.09 cumulative IPC: 1.984 (Simulation time: 00 hr 37 min 00 sec)
Heartbeat CPU 0 instructions: 90000002 cycles: 33640284 heartbeat IPC: 2.107 cumulative IPC: 2.435 (Simulation time: 00 hr 37 min 41 sec)
Heartbeat CPU 3 instructions: 110000001 cycles: 36630495 heartbeat IPC: 2.128 cumulative IPC: 2.123 (Simulation time: 00 hr 40 min 28 sec)
Heartbeat CPU 1 instructions: 110000004 cycles: 37945697 heartbeat IPC: 1.988 cumulative IPC: 1.985 (Simulation time: 00 hr 41 min 39 sec)
Heartbeat CPU 0 instructions: 100000000 cycles: 38840439 heartbeat IPC: 1.923 cumulative IPC: 2.312 (Simulation time: 00 hr 42 min 33 sec)
Heartbeat CPU 2 instructions: 90000001 cycles: 39464321 heartbeat IPC: 1.525 cumulative IPC: 1.496 (Simulation time: 00 hr 43 min 09 sec)
Heartbeat CPU 3 instructions: 120000000 cycles: 41257290 heartbeat IPC: 2.161 cumulative IPC: 2.13 (Simulation time: 00 hr 44 min 41 sec)
Heartbeat CPU 1 instructions: 120000004 cycles: 42939605 heartbeat IPC: 2.002 cumulative IPC: 1.988 (Simulation time: 00 hr 46 min 18 sec)
Heartbeat CPU 0 instructions: 110000001 cycles: 43862373 heartbeat IPC: 1.991 cumulative IPC: 2.251 (Simulation time: 00 hr 47 min 13 sec)
Heartbeat CPU 3 instructions: 130000002 cycles: 45913756 heartbeat IPC: 2.148 cumulative IPC: 2.133 (Simulation time: 00 hr 49 min 11 sec)
Heartbeat CPU 2 instructions: 100000002 cycles: 47227109 heartbeat IPC: 1.288 cumulative IPC: 1.442 (Simulation time: 00 hr 50 min 26 sec)
Heartbeat CPU 1 instructions: 130000001 cycles: 48116325 heartbeat IPC: 1.932 cumulative IPC: 1.979 (Simulation time: 00 hr 51 min 17 sec)
Heartbeat CPU 0 instructions: 120000000 cycles: 48493067 heartbeat IPC: 2.16 cumulative IPC: 2.238 (Simulation time: 00 hr 51 min 37 sec)
Heartbeat CPU 3 instructions: 140000000 cycles: 50580379 heartbeat IPC: 2.143 cumulative IPC: 2.134 (Simulation time: 00 hr 53 min 35 sec)
Heartbeat CPU 0 instructions: 130000003 cycles: 53113502 heartbeat IPC: 2.164 cumulative IPC: 2.228 (Simulation time: 00 hr 55 min 56 sec)
Heartbeat CPU 1 instructions: 140000000 cycles: 53413055 heartbeat IPC: 1.888 cumulative IPC: 1.965 (Simulation time: 00 hr 56 min 12 sec)
Heartbeat CPU 2 instructions: 110000004 cycles: 54105769 heartbeat IPC: 1.454 cumulative IPC: 1.444 (Simulation time: 00 hr 56 min 51 sec)
Heartbeat CPU 3 instructions: 150000004 cycles: 55193487 heartbeat IPC: 2.168 cumulative IPC: 2.139 (Simulation time: 00 hr 57 min 52 sec)
Heartbeat CPU 0 instructions: 140000000 cycles: 57837618 heartbeat IPC: 2.117 cumulative IPC: 2.215 (Simulation time: 01 hr 00 min 20 sec)
Heartbeat CPU 1 instructions: 150000001 cycles: 58771623 heartbeat IPC: 1.866 cumulative IPC: 1.953 (Simulation time: 01 hr 01 min 13 sec)
Heartbeat CPU 3 instructions: 160000003 cycles: 59805443 heartbeat IPC: 2.168 cumulative IPC: 2.142 (Simulation time: 01 hr 02 min 11 sec)
Heartbeat CPU 2 instructions: 120000000 cycles: 60792289 heartbeat IPC: 1.496 cumulative IPC: 1.452 (Simulation time: 01 hr 03 min 07 sec)
Heartbeat CPU 0 instructions: 150000003 cycles: 62574199 heartbeat IPC: 2.111 cumulative IPC: 2.205 (Simulation time: 01 hr 04 min 47 sec)
Heartbeat CPU 1 instructions: 160000004 cycles: 64135172 heartbeat IPC: 1.864 cumulative IPC: 1.943 (Simulation time: 01 hr 06 min 16 sec)
Heartbeat CPU 3 instructions: 170000003 cycles: 64403985 heartbeat IPC: 2.175 cumulative IPC: 2.145 (Simulation time: 01 hr 06 min 33 sec)
Heartbeat CPU 2 instructions: 130000001 cycles: 66480455 heartbeat IPC: 1.758 cumulative IPC: 1.488 (Simulation time: 01 hr 08 min 38 sec)
Heartbeat CPU 0 instructions: 160000004 cycles: 67298503 heartbeat IPC: 2.117 cumulative IPC: 2.196 (Simulation time: 01 hr 09 min 27 sec)
Heartbeat CPU 1 instructions: 170000002 cycles: 68937219 heartbeat IPC: 2.082 cumulative IPC: 1.956 (Simulation time: 01 hr 11 min 04 sec)
Heartbeat CPU 3 instructions: 180000004 cycles: 69009737 heartbeat IPC: 2.171 cumulative IPC: 2.147 (Simulation time: 01 hr 11 min 09 sec)
Heartbeat CPU 0 instructions: 170000003 cycles: 72022123 heartbeat IPC: 2.117 cumulative IPC: 2.189 (Simulation time: 01 hr 14 min 06 sec)
Heartbeat CPU 2 instructions: 140000000 cycles: 72343902 heartbeat IPC: 1.705 cumulative IPC: 1.511 (Simulation time: 01 hr 14 min 25 sec)
Heartbeat CPU 3 instructions: 190000002 cycles: 73626593 heartbeat IPC: 2.166 cumulative IPC: 2.149 (Simulation time: 01 hr 15 min 35 sec)
Heartbeat CPU 1 instructions: 180000002 cycles: 74075349 heartbeat IPC: 1.946 cumulative IPC: 1.955 (Simulation time: 01 hr 15 min 58 sec)
Heartbeat CPU 0 instructions: 180000002 cycles: 76753312 heartbeat IPC: 2.114 cumulative IPC: 2.183 (Simulation time: 01 hr 18 min 24 sec)
Heartbeat CPU 3 instructions: 200000000 cycles: 78247613 heartbeat IPC: 2.164 cumulative IPC: 2.15 (Simulation time: 01 hr 19 min 50 sec)
Heartbeat CPU 1 instructions: 190000004 cycles: 79208811 heartbeat IPC: 1.948 cumulative IPC: 1.954 (Simulation time: 01 hr 20 min 44 sec)
Heartbeat CPU 2 instructions: 150000000 cycles: 80461325 heartbeat IPC: 1.232 cumulative IPC: 1.475 (Simulation time: 01 hr 21 min 57 sec)
Heartbeat CPU 0 instructions: 190000001 cycles: 81484593 heartbeat IPC: 2.114 cumulative IPC: 2.178 (Simulation time: 01 hr 22 min 54 sec)
Heartbeat CPU 3 instructions: 210000000 cycles: 82828076 heartbeat IPC: 2.183 cumulative IPC: 2.152 (Simulation time: 01 hr 24 min 11 sec)
Heartbeat CPU 1 instructions: 200000001 cycles: 84215436 heartbeat IPC: 1.997 cumulative IPC: 1.957 (Simulation time: 01 hr 25 min 32 sec)
Heartbeat CPU 0 instructions: 200000001 cycles: 86199246 heartbeat IPC: 2.121 cumulative IPC: 2.174 (Simulation time: 01 hr 27 min 28 sec)
Simulation finished CPU 0 instructions: 150000000 cycles: 68986682 cumulative IPC: 2.174 (Simulation time: 01 hr 27 min 28 sec)
Simulation finished CPU 3 instructions: 150000001 cycles: 69642229 cumulative IPC: 2.154 (Simulation time: 01 hr 28 min 02 sec)
Heartbeat CPU 3 instructions: 220000000 cycles: 87401079 heartbeat IPC: 2.187 cumulative IPC: 2.155 (Simulation time: 01 hr 28 min 29 sec)
Heartbeat CPU 2 instructions: 160000002 cycles: 87824532 heartbeat IPC: 1.358 cumulative IPC: 1.463 (Simulation time: 01 hr 28 min 53 sec)
Heartbeat CPU 1 instructions: 210000002 cycles: 89336613 heartbeat IPC: 1.953 cumulative IPC: 1.957 (Simulation time: 01 hr 30 min 19 sec)
Heartbeat CPU 0 instructions: 210000003 cycles: 90911411 heartbeat IPC: 2.122 cumulative IPC: 2.171 (Simulation time: 01 hr 31 min 49 sec)
Heartbeat CPU 3 instructions: 230000001 cycles: 91992599 heartbeat IPC: 2.178 cumulative IPC: 2.156 (Simulation time: 01 hr 32 min 51 sec)
Simulation finished CPU 1 instructions: 150000001 cycles: 76399075 cumulative IPC: 1.963 (Simulation time: 01 hr 34 min 22 sec)
Heartbeat CPU 1 instructions: 220000000 cycles: 94257544 heartbeat IPC: 2.032 cumulative IPC: 1.962 (Simulation time: 01 hr 34 min 56 sec)
Heartbeat CPU 2 instructions: 170000004 cycles: 94887526 heartbeat IPC: 1.416 cumulative IPC: 1.458 (Simulation time: 01 hr 35 min 32 sec)
Heartbeat CPU 0 instructions: 220000004 cycles: 95541622 heartbeat IPC: 2.16 cumulative IPC: 2.17 (Simulation time: 01 hr 36 min 08 sec)
Heartbeat CPU 3 instructions: 240000000 cycles: 96611228 heartbeat IPC: 2.165 cumulative IPC: 2.156 (Simulation time: 01 hr 37 min 08 sec)
Heartbeat CPU 1 instructions: 230000002 cycles: 99581358 heartbeat IPC: 1.878 cumulative IPC: 1.956 (Simulation time: 01 hr 39 min 53 sec)
Heartbeat CPU 0 instructions: 230000002 cycles: 100153152 heartbeat IPC: 2.168 cumulative IPC: 2.17 (Simulation time: 01 hr 40 min 25 sec)
Heartbeat CPU 3 instructions: 250000002 cycles: 101234166 heartbeat IPC: 2.163 cumulative IPC: 2.157 (Simulation time: 01 hr 41 min 25 sec)
Heartbeat CPU 2 instructions: 180000002 cycles: 101786575 heartbeat IPC: 1.449 cumulative IPC: 1.458 (Simulation time: 01 hr 41 min 56 sec)
Heartbeat CPU 0 instructions: 240000002 cycles: 104802507 heartbeat IPC: 2.151 cumulative IPC: 2.169 (Simulation time: 01 hr 44 min 44 sec)
Heartbeat CPU 1 instructions: 240000002 cycles: 104949610 heartbeat IPC: 1.863 cumulative IPC: 1.951 (Simulation time: 01 hr 44 min 53 sec)
Heartbeat CPU 3 instructions: 260000000 cycles: 105883523 heartbeat IPC: 2.151 cumulative IPC: 2.157 (Simulation time: 01 hr 45 min 45 sec)
Heartbeat CPU 2 instructions: 190000001 cycles: 108543949 heartbeat IPC: 1.48 cumulative IPC: 1.459 (Simulation time: 01 hr 48 min 14 sec)
Heartbeat CPU 0 instructions: 250000002 cycles: 109377598 heartbeat IPC: 2.186 cumulative IPC: 2.17 (Simulation time: 01 hr 49 min 03 sec)
Heartbeat CPU 1 instructions: 250000002 cycles: 110435308 heartbeat IPC: 1.823 cumulative IPC: 1.943 (Simulation time: 01 hr 50 min 05 sec)
Heartbeat CPU 3 instructions: 270000000 cycles: 110514208 heartbeat IPC: 2.16 cumulative IPC: 2.157 (Simulation time: 01 hr 50 min 09 sec)
Heartbeat CPU 0 instructions: 260000001 cycles: 114002912 heartbeat IPC: 2.162 cumulative IPC: 2.17 (Simulation time: 01 hr 53 min 41 sec)
Heartbeat CPU 2 instructions: 200000002 cycles: 114603767 heartbeat IPC: 1.65 cumulative IPC: 1.471 (Simulation time: 01 hr 54 min 20 sec)
Heartbeat CPU 3 instructions: 280000001 cycles: 115141266 heartbeat IPC: 2.161 cumulative IPC: 2.157 (Simulation time: 01 hr 54 min 53 sec)
Heartbeat CPU 1 instructions: 260000000 cycles: 115535594 heartbeat IPC: 1.961 cumulative IPC: 1.944 (Simulation time: 01 hr 55 min 18 sec)
Simulation finished CPU 2 instructions: 150000001 cycles: 100861291 cumulative IPC: 1.487 (Simulation time: 01 hr 57 min 48 sec)
Simulation complete CPU 0 instructions: 218745643 cycles: 100861291 cumulative IPC: 2.169 (Simulation time: 01 hr 57 min 48 sec)
Simulation complete CPU 1 instructions: 196405495 cycles: 100861291 cumulative IPC: 1.947 (Simulation time: 01 hr 57 min 48 sec)
Simulation complete CPU 2 instructions: 150000001 cycles: 100861291 cumulative IPC: 1.487 (Simulation time: 01 hr 57 min 48 sec)
Simulation complete CPU 3 instructions: 217530408 cycles: 100861291 cumulative IPC: 2.157 (Simulation time: 01 hr 57 min 48 sec)

ChampSim completed all CPUs

=== Simulation ===
CPU 0 runs /home/grads/r/rdas40/dpc3_traces/644.nab_s-5853B.champsimtrace.xzCPU 1 runs /home/grads/r/rdas40/dpc3_traces/649.fotonik3d_s-1176B.champsimtrace.xzCPU 2 runs /home/grads/r/rdas40/dpc3_traces/623.xalancbmk_s-700B.champsimtrace.xzCPU 3 runs /home/grads/r/rdas40/dpc3_traces/621.wrf_s-575B.champsimtrace.xz
Total Simulation Statistics (not including warmup)

CPU 0 cumulative IPC: 2.169 instructions: 218745643 cycles: 100861291
CPU 0 Branch Prediction Accuracy: 85.85% MPKI: 13.7 Average ROB Occupancy at Mispredict: 100.1
Branch type MPKI
BRANCH_DIRECT_JUMP: 9.6e-05
BRANCH_INDIRECT: 4.57e-06
BRANCH_CONDITIONAL: 8.17
BRANCH_DIRECT_CALL: 0
BRANCH_INDIRECT_CALL: 0
BRANCH_RETURN: 5.53


CPU 1 cumulative IPC: 1.947 instructions: 196405495 cycles: 100861291
CPU 1 Branch Prediction Accuracy: 99.98% MPKI: 0.004384 Average ROB Occupancy at Mispredict: 352
Branch type MPKI
BRANCH_DIRECT_JUMP: 0
BRANCH_INDIRECT: 0
BRANCH_CONDITIONAL: 0.00438
BRANCH_DIRECT_CALL: 0
BRANCH_INDIRECT_CALL: 0
BRANCH_RETURN: 0


CPU 2 cumulative IPC: 1.487 instructions: 150000001 cycles: 100861291
CPU 2 Branch Prediction Accuracy: 96.96% MPKI: 8.474 Average ROB Occupancy at Mispredict: 40.02
Branch type MPKI
BRANCH_DIRECT_JUMP: 0.12
BRANCH_INDIRECT: 0.36
BRANCH_CONDITIONAL: 6.02
BRANCH_DIRECT_CALL: 0.000787
BRANCH_INDIRECT_CALL: 0.409
BRANCH_RETURN: 1.56


CPU 3 cumulative IPC: 2.157 instructions: 217530408 cycles: 100861291
CPU 3 Branch Prediction Accuracy: 94.95% MPKI: 6.763 Average ROB Occupancy at Mispredict: 79.53
Branch type MPKI
BRANCH_DIRECT_JUMP: 0
BRANCH_INDIRECT: 0
BRANCH_CONDITIONAL: 6.75
BRANCH_DIRECT_CALL: 0
BRANCH_INDIRECT_CALL: 0
BRANCH_RETURN: 0.0175

LLC TOTAL        ACCESS:      58241 HIT:       8525 MISS:      49716
LLC LOAD         ACCESS:       5726 HIT:        877 MISS:       4849
LLC RFO          ACCESS:        128 HIT:         80 MISS:         48
LLC PREFETCH     ACCESS:      50531 HIT:       7482 MISS:      43049
LLC WRITE        ACCESS:       1267 HIT:         60 MISS:       1207
LLC TRANSLATION  ACCESS:        589 HIT:         26 MISS:        563
LLC PREFETCH REQUESTED:          0 ISSUED:          0 USEFUL:          0 USELESS:          0
LLC AVERAGE MISS LATENCY: 334 cycles
LLC TOTAL        ACCESS:    3878463 HIT:    2128608 MISS:    1749855
LLC LOAD         ACCESS:     499927 HIT:      48849 MISS:     451078
LLC RFO          ACCESS:       1719 HIT:       1719 MISS:          0
LLC PREFETCH     ACCESS:    1652269 HIT:     353607 MISS:    1298662
LLC WRITE        ACCESS:    1723829 HIT:    1723822 MISS:          7
LLC TRANSLATION  ACCESS:        719 HIT:        611 MISS:        108
LLC PREFETCH REQUESTED:          0 ISSUED:          0 USEFUL:          0 USELESS:          0
LLC AVERAGE MISS LATENCY: 334 cycles
LLC TOTAL        ACCESS:     859773 HIT:     622819 MISS:     236954
LLC LOAD         ACCESS:     419252 HIT:     361546 MISS:      57706
LLC RFO          ACCESS:     148181 HIT:      19891 MISS:     128290
LLC PREFETCH     ACCESS:      51531 HIT:      16373 MISS:      35158
LLC WRITE        ACCESS:     201123 HIT:     197113 MISS:       4010
LLC TRANSLATION  ACCESS:      39686 HIT:      27896 MISS:      11790
LLC PREFETCH REQUESTED:          0 ISSUED:          0 USEFUL:          0 USELESS:          0
LLC AVERAGE MISS LATENCY: 334 cycles
LLC TOTAL        ACCESS:       7598 HIT:        361 MISS:       7237
LLC LOAD         ACCESS:       1203 HIT:         14 MISS:       1189
LLC RFO          ACCESS:       3673 HIT:        248 MISS:       3425
LLC PREFETCH     ACCESS:       1694 HIT:         98 MISS:       1596
LLC WRITE        ACCESS:        882 HIT:          0 MISS:        882
LLC TRANSLATION  ACCESS:        146 HIT:          1 MISS:        145
LLC PREFETCH REQUESTED:          0 ISSUED:          0 USEFUL:          0 USELESS:          0
LLC AVERAGE MISS LATENCY: 334 cycles
cpu0_DTLB TOTAL        ACCESS:   44602359 HIT:   44520409 MISS:      81950
cpu0_DTLB LOAD         ACCESS:   44602359 HIT:   44520409 MISS:      81950
cpu0_DTLB RFO          ACCESS:          0 HIT:          0 MISS:          0
cpu0_DTLB PREFETCH     ACCESS:          0 HIT:          0 MISS:          0
cpu0_DTLB WRITE        ACCESS:          0 HIT:          0 MISS:          0
cpu0_DTLB TRANSLATION  ACCESS:          0 HIT:          0 MISS:          0
cpu0_DTLB PREFETCH REQUESTED:          0 ISSUED:          0 USEFUL:          0 USELESS:          0
cpu0_DTLB AVERAGE MISS LATENCY: 14.17 cycles
cpu0_DTLB TOTAL        ACCESS:          0 HIT:          0 MISS:          0
cpu0_DTLB LOAD         ACCESS:          0 HIT:          0 MISS:          0
cpu0_DTLB RFO          ACCESS:          0 HIT:          0 MISS:          0
cpu0_DTLB PREFETCH     ACCESS:          0 HIT:          0 MISS:          0
cpu0_DTLB WRITE        ACCESS:          0 HIT:          0 MISS:          0
cpu0_DTLB TRANSLATION  ACCESS:          0 HIT:          0 MISS:          0
cpu0_DTLB PREFETCH REQUESTED:          0 ISSUED:          0 USEFUL:          0 USELESS:          0
cpu0_DTLB AVERAGE MISS LATENCY: 14.17 cycles
cpu0_DTLB TOTAL        ACCESS:          0 HIT:          0 MISS:          0
cpu0_DTLB LOAD         ACCESS:          0 HIT:          0 MISS:          0
cpu0_DTLB RFO          ACCESS:          0 HIT:          0 MISS:          0
cpu0_DTLB PREFETCH     ACCESS:          0 HIT:          0 MISS:          0
cpu0_DTLB WRITE        ACCESS:          0 HIT:          0 MISS:          0
cpu0_DTLB TRANSLATION  ACCESS:          0 HIT:          0 MISS:          0
cpu0_DTLB PREFETCH REQUESTED:          0 ISSUED:          0 USEFUL:          0 USELESS:          0
cpu0_DTLB AVERAGE MISS LATENCY: 14.17 cycles
cpu0_DTLB TOTAL        ACCESS:          0 HIT:          0 MISS:          0
cpu0_DTLB LOAD         ACCESS:          0 HIT:          0 MISS:          0
cpu0_DTLB RFO          ACCESS:          0 HIT:          0 MISS:          0
cpu0_DTLB PREFETCH     ACCESS:          0 HIT:          0 MISS:          0
cpu0_DTLB WRITE        ACCESS:          0 HIT:          0 MISS:          0
cpu0_DTLB TRANSLATION  ACCESS:          0 HIT:          0 MISS:          0
cpu0_DTLB PREFETCH REQUESTED:          0 ISSUED:          0 USEFUL:          0 USELESS:          0
cpu0_DTLB AVERAGE MISS LATENCY: 14.17 cycles
cpu0_ITLB TOTAL        ACCESS:       1707 HIT:       1707 MISS:          0
cpu0_ITLB LOAD         ACCESS:       1707 HIT:       1707 MISS:          0
cpu0_ITLB RFO          ACCESS:          0 HIT:          0 MISS:          0
cpu0_ITLB PREFETCH     ACCESS:          0 HIT:          0 MISS:          0
cpu0_ITLB WRITE        ACCESS:          0 HIT:          0 MISS:          0
cpu0_ITLB TRANSLATION  ACCESS:          0 HIT:          0 MISS:          0
cpu0_ITLB PREFETCH REQUESTED:          0 ISSUED:          0 USEFUL:          0 USELESS:          0
cpu0_ITLB AVERAGE MISS LATENCY: -nan cycles
cpu0_ITLB TOTAL        ACCESS:          0 HIT:          0 MISS:          0
cpu0_ITLB LOAD         ACCESS:          0 HIT:          0 MISS:          0
cpu0_ITLB RFO          ACCESS:          0 HIT:          0 MISS:          0
cpu0_ITLB PREFETCH     ACCESS:          0 HIT:          0 MISS:          0
cpu0_ITLB WRITE        ACCESS:          0 HIT:          0 MISS:          0
cpu0_ITLB TRANSLATION  ACCESS:          0 HIT:          0 MISS:          0
cpu0_ITLB PREFETCH REQUESTED:          0 ISSUED:          0 USEFUL:          0 USELESS:          0
cpu0_ITLB AVERAGE MISS LATENCY: -nan cycles
cpu0_ITLB TOTAL        ACCESS:          0 HIT:          0 MISS:          0
cpu0_ITLB LOAD         ACCESS:          0 HIT:          0 MISS:          0
cpu0_ITLB RFO          ACCESS:          0 HIT:          0 MISS:          0
cpu0_ITLB PREFETCH     ACCESS:          0 HIT:          0 MISS:          0
cpu0_ITLB WRITE        ACCESS:          0 HIT:          0 MISS:          0
cpu0_ITLB TRANSLATION  ACCESS:          0 HIT:          0 MISS:          0
cpu0_ITLB PREFETCH REQUESTED:          0 ISSUED:          0 USEFUL:          0 USELESS:          0
cpu0_ITLB AVERAGE MISS LATENCY: -nan cycles
cpu0_ITLB TOTAL        ACCESS:          0 HIT:          0 MISS:          0
cpu0_ITLB LOAD         ACCESS:          0 HIT:          0 MISS:          0
cpu0_ITLB RFO          ACCESS:          0 HIT:          0 MISS:          0
cpu0_ITLB PREFETCH     ACCESS:          0 HIT:          0 MISS:          0
cpu0_ITLB WRITE        ACCESS:          0 HIT:          0 MISS:          0
cpu0_ITLB TRANSLATION  ACCESS:          0 HIT:          0 MISS:          0
cpu0_ITLB PREFETCH REQUESTED:          0 ISSUED:          0 USEFUL:          0 USELESS:          0
cpu0_ITLB AVERAGE MISS LATENCY: -nan cycles
cpu0_L1D TOTAL        ACCESS:   67000056 HIT:   62940798 MISS:    4059258
cpu0_L1D LOAD         ACCESS:   33703611 HIT:   33070596 MISS:     633015
cpu0_L1D RFO          ACCESS:          0 HIT:          0 MISS:          0
cpu0_L1D PREFETCH     ACCESS:    9308889 HIT:    5889892 MISS:    3418997
cpu0_L1D WRITE        ACCESS:   23986020 HIT:   23980303 MISS:       5717
cpu0_L1D TRANSLATION  ACCESS:       1536 HIT:          7 MISS:       1529
cpu0_L1D PREFETCH REQUESTED:   28841922 ISSUED:    9308889 USEFUL:     341529 USELESS:     103863
cpu0_L1D AVERAGE MISS LATENCY: 5.892 cycles
cpu0_L1D TOTAL        ACCESS:          0 HIT:          0 MISS:          0
cpu0_L1D LOAD         ACCESS:          0 HIT:          0 MISS:          0
cpu0_L1D RFO          ACCESS:          0 HIT:          0 MISS:          0
cpu0_L1D PREFETCH     ACCESS:          0 HIT:          0 MISS:          0
cpu0_L1D WRITE        ACCESS:          0 HIT:          0 MISS:          0
cpu0_L1D TRANSLATION  ACCESS:          0 HIT:          0 MISS:          0
cpu0_L1D PREFETCH REQUESTED:   28841922 ISSUED:    9308889 USEFUL:     341529 USELESS:     103863
cpu0_L1D AVERAGE MISS LATENCY: 5.892 cycles
cpu0_L1D TOTAL        ACCESS:          0 HIT:          0 MISS:          0
cpu0_L1D LOAD         ACCESS:          0 HIT:          0 MISS:          0
cpu0_L1D RFO          ACCESS:          0 HIT:          0 MISS:          0
cpu0_L1D PREFETCH     ACCESS:          0 HIT:          0 MISS:          0
cpu0_L1D WRITE        ACCESS:          0 HIT:          0 MISS:          0
cpu0_L1D TRANSLATION  ACCESS:          0 HIT:          0 MISS:          0
cpu0_L1D PREFETCH REQUESTED:   28841922 ISSUED:    9308889 USEFUL:     341529 USELESS:     103863
cpu0_L1D AVERAGE MISS LATENCY: 5.892 cycles
cpu0_L1D TOTAL        ACCESS:          0 HIT:          0 MISS:          0
cpu0_L1D LOAD         ACCESS:          0 HIT:          0 MISS:          0
cpu0_L1D RFO          ACCESS:          0 HIT:          0 MISS:          0
cpu0_L1D PREFETCH     ACCESS:          0 HIT:          0 MISS:          0
cpu0_L1D WRITE        ACCESS:          0 HIT:          0 MISS:          0
cpu0_L1D TRANSLATION  ACCESS:          0 HIT:          0 MISS:          0
cpu0_L1D PREFETCH REQUESTED:   28841922 ISSUED:    9308889 USEFUL:     341529 USELESS:     103863
cpu0_L1D AVERAGE MISS LATENCY: 5.892 cycles
cpu0_L1I TOTAL        ACCESS:       2049 HIT:       2049 MISS:          0
cpu0_L1I LOAD         ACCESS:       2049 HIT:       2049 MISS:          0
cpu0_L1I RFO          ACCESS:          0 HIT:          0 MISS:          0
cpu0_L1I PREFETCH     ACCESS:          0 HIT:          0 MISS:          0
cpu0_L1I WRITE        ACCESS:          0 HIT:          0 MISS:          0
cpu0_L1I TRANSLATION  ACCESS:          0 HIT:          0 MISS:          0
cpu0_L1I PREFETCH REQUESTED:          0 ISSUED:          0 USEFUL:          0 USELESS:          0
cpu0_L1I AVERAGE MISS LATENCY: -nan cycles
cpu0_L1I TOTAL        ACCESS:          0 HIT:          0 MISS:          0
cpu0_L1I LOAD         ACCESS:          0 HIT:          0 MISS:          0
cpu0_L1I RFO          ACCESS:          0 HIT:          0 MISS:          0
cpu0_L1I PREFETCH     ACCESS:          0 HIT:          0 MISS:          0
cpu0_L1I WRITE        ACCESS:          0 HIT:          0 MISS:          0
cpu0_L1I TRANSLATION  ACCESS:          0 HIT:          0 MISS:          0
cpu0_L1I PREFETCH REQUESTED:          0 ISSUED:          0 USEFUL:          0 USELESS:          0
cpu0_L1I AVERAGE MISS LATENCY: -nan cycles
cpu0_L1I TOTAL        ACCESS:          0 HIT:          0 MISS:          0
cpu0_L1I LOAD         ACCESS:          0 HIT:          0 MISS:          0
cpu0_L1I RFO          ACCESS:          0 HIT:          0 MISS:          0
cpu0_L1I PREFETCH     ACCESS:          0 HIT:          0 MISS:          0
cpu0_L1I WRITE        ACCESS:          0 HIT:          0 MISS:          0
cpu0_L1I TRANSLATION  ACCESS:          0 HIT:          0 MISS:          0
cpu0_L1I PREFETCH REQUESTED:          0 ISSUED:          0 USEFUL:          0 USELESS:          0
cpu0_L1I AVERAGE MISS LATENCY: -nan cycles
cpu0_L1I TOTAL        ACCESS:          0 HIT:          0 MISS:          0
cpu0_L1I LOAD         ACCESS:          0 HIT:          0 MISS:          0
cpu0_L1I RFO          ACCESS:          0 HIT:          0 MISS:          0
cpu0_L1I PREFETCH     ACCESS:          0 HIT:          0 MISS:          0
cpu0_L1I WRITE        ACCESS:          0 HIT:          0 MISS:          0
cpu0_L1I TRANSLATION  ACCESS:          0 HIT:          0 MISS:          0
cpu0_L1I PREFETCH REQUESTED:          0 ISSUED:          0 USEFUL:          0 USELESS:          0
cpu0_L1I AVERAGE MISS LATENCY: -nan cycles
cpu0_L2C TOTAL        ACCESS:    4367698 HIT:    4305595 MISS:      62103
cpu0_L2C LOAD         ACCESS:     623893 HIT:     618155 MISS:       5738
cpu0_L2C RFO          ACCESS:       1569 HIT:       1441 MISS:        128
cpu0_L2C PREFETCH     ACCESS:    3417383 HIT:    3361737 MISS:      55646
cpu0_L2C WRITE        ACCESS:     323324 HIT:     323322 MISS:          2
cpu0_L2C TRANSLATION  ACCESS:       1529 HIT:        940 MISS:        589
cpu0_L2C PREFETCH REQUESTED:          0 ISSUED:          0 USEFUL:          0 USELESS:          0
cpu0_L2C AVERAGE MISS LATENCY: 364.2 cycles
cpu0_L2C TOTAL        ACCESS:          0 HIT:          0 MISS:          0
cpu0_L2C LOAD         ACCESS:          0 HIT:          0 MISS:          0
cpu0_L2C RFO          ACCESS:          0 HIT:          0 MISS:          0
cpu0_L2C PREFETCH     ACCESS:          0 HIT:          0 MISS:          0
cpu0_L2C WRITE        ACCESS:          0 HIT:          0 MISS:          0
cpu0_L2C TRANSLATION  ACCESS:          0 HIT:          0 MISS:          0
cpu0_L2C PREFETCH REQUESTED:          0 ISSUED:          0 USEFUL:          0 USELESS:          0
cpu0_L2C AVERAGE MISS LATENCY: 364.2 cycles
cpu0_L2C TOTAL        ACCESS:          0 HIT:          0 MISS:          0
cpu0_L2C LOAD         ACCESS:          0 HIT:          0 MISS:          0
cpu0_L2C RFO          ACCESS:          0 HIT:          0 MISS:          0
cpu0_L2C PREFETCH     ACCESS:          0 HIT:          0 MISS:          0
cpu0_L2C WRITE        ACCESS:          0 HIT:          0 MISS:          0
cpu0_L2C TRANSLATION  ACCESS:          0 HIT:          0 MISS:          0
cpu0_L2C PREFETCH REQUESTED:          0 ISSUED:          0 USEFUL:          0 USELESS:          0
cpu0_L2C AVERAGE MISS LATENCY: 364.2 cycles
cpu0_L2C TOTAL        ACCESS:          0 HIT:          0 MISS:          0
cpu0_L2C LOAD         ACCESS:          0 HIT:          0 MISS:          0
cpu0_L2C RFO          ACCESS:          0 HIT:          0 MISS:          0
cpu0_L2C PREFETCH     ACCESS:          0 HIT:          0 MISS:          0
cpu0_L2C WRITE        ACCESS:          0 HIT:          0 MISS:          0
cpu0_L2C TRANSLATION  ACCESS:          0 HIT:          0 MISS:          0
cpu0_L2C PREFETCH REQUESTED:          0 ISSUED:          0 USEFUL:          0 USELESS:          0
cpu0_L2C AVERAGE MISS LATENCY: 364.2 cycles
cpu0_STLB TOTAL        ACCESS:      76423 HIT:      74908 MISS:       1515
cpu0_STLB LOAD         ACCESS:      76423 HIT:      74908 MISS:       1515
cpu0_STLB RFO          ACCESS:          0 HIT:          0 MISS:          0
cpu0_STLB PREFETCH     ACCESS:          0 HIT:          0 MISS:          0
cpu0_STLB WRITE        ACCESS:          0 HIT:          0 MISS:          0
cpu0_STLB TRANSLATION  ACCESS:          0 HIT:          0 MISS:          0
cpu0_STLB PREFETCH REQUESTED:          0 ISSUED:          0 USEFUL:          0 USELESS:          0
cpu0_STLB AVERAGE MISS LATENCY: 386.4 cycles
cpu0_STLB TOTAL        ACCESS:          0 HIT:          0 MISS:          0
cpu0_STLB LOAD         ACCESS:          0 HIT:          0 MISS:          0
cpu0_STLB RFO          ACCESS:          0 HIT:          0 MISS:          0
cpu0_STLB PREFETCH     ACCESS:          0 HIT:          0 MISS:          0
cpu0_STLB WRITE        ACCESS:          0 HIT:          0 MISS:          0
cpu0_STLB TRANSLATION  ACCESS:          0 HIT:          0 MISS:          0
cpu0_STLB PREFETCH REQUESTED:          0 ISSUED:          0 USEFUL:          0 USELESS:          0
cpu0_STLB AVERAGE MISS LATENCY: 386.4 cycles
cpu0_STLB TOTAL        ACCESS:          0 HIT:          0 MISS:          0
cpu0_STLB LOAD         ACCESS:          0 HIT:          0 MISS:          0
cpu0_STLB RFO          ACCESS:          0 HIT:          0 MISS:          0
cpu0_STLB PREFETCH     ACCESS:          0 HIT:          0 MISS:          0
cpu0_STLB WRITE        ACCESS:          0 HIT:          0 MISS:          0
cpu0_STLB TRANSLATION  ACCESS:          0 HIT:          0 MISS:          0
cpu0_STLB PREFETCH REQUESTED:          0 ISSUED:          0 USEFUL:          0 USELESS:          0
cpu0_STLB AVERAGE MISS LATENCY: 386.4 cycles
cpu0_STLB TOTAL        ACCESS:          0 HIT:          0 MISS:          0
cpu0_STLB LOAD         ACCESS:          0 HIT:          0 MISS:          0
cpu0_STLB RFO          ACCESS:          0 HIT:          0 MISS:          0
cpu0_STLB PREFETCH     ACCESS:          0 HIT:          0 MISS:          0
cpu0_STLB WRITE        ACCESS:          0 HIT:          0 MISS:          0
cpu0_STLB TRANSLATION  ACCESS:          0 HIT:          0 MISS:          0
cpu0_STLB PREFETCH REQUESTED:          0 ISSUED:          0 USEFUL:          0 USELESS:          0
cpu0_STLB AVERAGE MISS LATENCY: 386.4 cycles
cpu1_DTLB TOTAL        ACCESS:          0 HIT:          0 MISS:          0
cpu1_DTLB LOAD         ACCESS:          0 HIT:          0 MISS:          0
cpu1_DTLB RFO          ACCESS:          0 HIT:          0 MISS:          0
cpu1_DTLB PREFETCH     ACCESS:          0 HIT:          0 MISS:          0
cpu1_DTLB WRITE        ACCESS:          0 HIT:          0 MISS:          0
cpu1_DTLB TRANSLATION  ACCESS:          0 HIT:          0 MISS:          0
cpu1_DTLB PREFETCH REQUESTED:          0 ISSUED:          0 USEFUL:          0 USELESS:          0
cpu1_DTLB AVERAGE MISS LATENCY: 19.13 cycles
cpu1_DTLB TOTAL        ACCESS:   21511122 HIT:   21313818 MISS:     197304
cpu1_DTLB LOAD         ACCESS:   21511122 HIT:   21313818 MISS:     197304
cpu1_DTLB RFO          ACCESS:          0 HIT:          0 MISS:          0
cpu1_DTLB PREFETCH     ACCESS:          0 HIT:          0 MISS:          0
cpu1_DTLB WRITE        ACCESS:          0 HIT:          0 MISS:          0
cpu1_DTLB TRANSLATION  ACCESS:          0 HIT:          0 MISS:          0
cpu1_DTLB PREFETCH REQUESTED:          0 ISSUED:          0 USEFUL:          0 USELESS:          0
cpu1_DTLB AVERAGE MISS LATENCY: 19.13 cycles
cpu1_DTLB TOTAL        ACCESS:          0 HIT:          0 MISS:          0
cpu1_DTLB LOAD         ACCESS:          0 HIT:          0 MISS:          0
cpu1_DTLB RFO          ACCESS:          0 HIT:          0 MISS:          0
cpu1_DTLB PREFETCH     ACCESS:          0 HIT:          0 MISS:          0
cpu1_DTLB WRITE        ACCESS:          0 HIT:          0 MISS:          0
cpu1_DTLB TRANSLATION  ACCESS:          0 HIT:          0 MISS:          0
cpu1_DTLB PREFETCH REQUESTED:          0 ISSUED:          0 USEFUL:          0 USELESS:          0
cpu1_DTLB AVERAGE MISS LATENCY: 19.13 cycles
cpu1_DTLB TOTAL        ACCESS:          0 HIT:          0 MISS:          0
cpu1_DTLB LOAD         ACCESS:          0 HIT:          0 MISS:          0
cpu1_DTLB RFO          ACCESS:          0 HIT:          0 MISS:          0
cpu1_DTLB PREFETCH     ACCESS:          0 HIT:          0 MISS:          0
cpu1_DTLB WRITE        ACCESS:          0 HIT:          0 MISS:          0
cpu1_DTLB TRANSLATION  ACCESS:          0 HIT:          0 MISS:          0
cpu1_DTLB PREFETCH REQUESTED:          0 ISSUED:          0 USEFUL:          0 USELESS:          0
cpu1_DTLB AVERAGE MISS LATENCY: 19.13 cycles
cpu1_ITLB TOTAL        ACCESS:          0 HIT:          0 MISS:          0
cpu1_ITLB LOAD         ACCESS:          0 HIT:          0 MISS:          0
cpu1_ITLB RFO          ACCESS:          0 HIT:          0 MISS:          0
cpu1_ITLB PREFETCH     ACCESS:          0 HIT:          0 MISS:          0
cpu1_ITLB WRITE        ACCESS:          0 HIT:          0 MISS:          0
cpu1_ITLB TRANSLATION  ACCESS:          0 HIT:          0 MISS:          0
cpu1_ITLB PREFETCH REQUESTED:          0 ISSUED:          0 USEFUL:          0 USELESS:          0
cpu1_ITLB AVERAGE MISS LATENCY: -nan cycles
cpu1_ITLB TOTAL        ACCESS:          0 HIT:          0 MISS:          0
cpu1_ITLB LOAD         ACCESS:          0 HIT:          0 MISS:          0
cpu1_ITLB RFO          ACCESS:          0 HIT:          0 MISS:          0
cpu1_ITLB PREFETCH     ACCESS:          0 HIT:          0 MISS:          0
cpu1_ITLB WRITE        ACCESS:          0 HIT:          0 MISS:          0
cpu1_ITLB TRANSLATION  ACCESS:          0 HIT:          0 MISS:          0
cpu1_ITLB PREFETCH REQUESTED:          0 ISSUED:          0 USEFUL:          0 USELESS:          0
cpu1_ITLB AVERAGE MISS LATENCY: -nan cycles
cpu1_ITLB TOTAL        ACCESS:          0 HIT:          0 MISS:          0
cpu1_ITLB LOAD         ACCESS:          0 HIT:          0 MISS:          0
cpu1_ITLB RFO          ACCESS:          0 HIT:          0 MISS:          0
cpu1_ITLB PREFETCH     ACCESS:          0 HIT:          0 MISS:          0
cpu1_ITLB WRITE        ACCESS:          0 HIT:          0 MISS:          0
cpu1_ITLB TRANSLATION  ACCESS:          0 HIT:          0 MISS:          0
cpu1_ITLB PREFETCH REQUESTED:          0 ISSUED:          0 USEFUL:          0 USELESS:          0
cpu1_ITLB AVERAGE MISS LATENCY: -nan cycles
cpu1_ITLB TOTAL        ACCESS:          0 HIT:          0 MISS:          0
cpu1_ITLB LOAD         ACCESS:          0 HIT:          0 MISS:          0
cpu1_ITLB RFO          ACCESS:          0 HIT:          0 MISS:          0
cpu1_ITLB PREFETCH     ACCESS:          0 HIT:          0 MISS:          0
cpu1_ITLB WRITE        ACCESS:          0 HIT:          0 MISS:          0
cpu1_ITLB TRANSLATION  ACCESS:          0 HIT:          0 MISS:          0
cpu1_ITLB PREFETCH REQUESTED:          0 ISSUED:          0 USEFUL:          0 USELESS:          0
cpu1_ITLB AVERAGE MISS LATENCY: -nan cycles
cpu1_L1D TOTAL        ACCESS:          0 HIT:          0 MISS:          0
cpu1_L1D LOAD         ACCESS:          0 HIT:          0 MISS:          0
cpu1_L1D RFO          ACCESS:          0 HIT:          0 MISS:          0
cpu1_L1D PREFETCH     ACCESS:          0 HIT:          0 MISS:          0
cpu1_L1D WRITE        ACCESS:          0 HIT:          0 MISS:          0
cpu1_L1D TRANSLATION  ACCESS:          0 HIT:          0 MISS:          0
cpu1_L1D PREFETCH REQUESTED:   48683093 ISSUED:    8730907 USEFUL:    1730237 USELESS:     207762
cpu1_L1D AVERAGE MISS LATENCY: 70.77 cycles
cpu1_L1D TOTAL        ACCESS:   41085742 HIT:   35420202 MISS:    5665540
cpu1_L1D LOAD         ACCESS:   18539009 HIT:   16665530 MISS:    1873479
cpu1_L1D RFO          ACCESS:          0 HIT:          0 MISS:          0
cpu1_L1D PREFETCH     ACCESS:    8730939 HIT:    4951412 MISS:    3779527
cpu1_L1D WRITE        ACCESS:   13788740 HIT:   13777273 MISS:      11467
cpu1_L1D TRANSLATION  ACCESS:      27054 HIT:      25987 MISS:       1067
cpu1_L1D PREFETCH REQUESTED:   48683093 ISSUED:    8730907 USEFUL:    1730237 USELESS:     207762
cpu1_L1D AVERAGE MISS LATENCY: 70.77 cycles
cpu1_L1D TOTAL        ACCESS:          0 HIT:          0 MISS:          0
cpu1_L1D LOAD         ACCESS:          0 HIT:          0 MISS:          0
cpu1_L1D RFO          ACCESS:          0 HIT:          0 MISS:          0
cpu1_L1D PREFETCH     ACCESS:          0 HIT:          0 MISS:          0
cpu1_L1D WRITE        ACCESS:          0 HIT:          0 MISS:          0
cpu1_L1D TRANSLATION  ACCESS:          0 HIT:          0 MISS:          0
cpu1_L1D PREFETCH REQUESTED:   48683093 ISSUED:    8730907 USEFUL:    1730237 USELESS:     207762
cpu1_L1D AVERAGE MISS LATENCY: 70.77 cycles
cpu1_L1D TOTAL        ACCESS:          0 HIT:          0 MISS:          0
cpu1_L1D LOAD         ACCESS:          0 HIT:          0 MISS:          0
cpu1_L1D RFO          ACCESS:          0 HIT:          0 MISS:          0
cpu1_L1D PREFETCH     ACCESS:          0 HIT:          0 MISS:          0
cpu1_L1D WRITE        ACCESS:          0 HIT:          0 MISS:          0
cpu1_L1D TRANSLATION  ACCESS:          0 HIT:          0 MISS:          0
cpu1_L1D PREFETCH REQUESTED:   48683093 ISSUED:    8730907 USEFUL:    1730237 USELESS:     207762
cpu1_L1D AVERAGE MISS LATENCY: 70.77 cycles
cpu1_L1I TOTAL        ACCESS:          0 HIT:          0 MISS:          0
cpu1_L1I LOAD         ACCESS:          0 HIT:          0 MISS:          0
cpu1_L1I RFO          ACCESS:          0 HIT:          0 MISS:          0
cpu1_L1I PREFETCH     ACCESS:          0 HIT:          0 MISS:          0
cpu1_L1I WRITE        ACCESS:          0 HIT:          0 MISS:          0
cpu1_L1I TRANSLATION  ACCESS:          0 HIT:          0 MISS:          0
cpu1_L1I PREFETCH REQUESTED:          0 ISSUED:          0 USEFUL:          0 USELESS:          0
cpu1_L1I AVERAGE MISS LATENCY: -nan cycles
cpu1_L1I TOTAL        ACCESS:          0 HIT:          0 MISS:          0
cpu1_L1I LOAD         ACCESS:          0 HIT:          0 MISS:          0
cpu1_L1I RFO          ACCESS:          0 HIT:          0 MISS:          0
cpu1_L1I PREFETCH     ACCESS:          0 HIT:          0 MISS:          0
cpu1_L1I WRITE        ACCESS:          0 HIT:          0 MISS:          0
cpu1_L1I TRANSLATION  ACCESS:          0 HIT:          0 MISS:          0
cpu1_L1I PREFETCH REQUESTED:          0 ISSUED:          0 USEFUL:          0 USELESS:          0
cpu1_L1I AVERAGE MISS LATENCY: -nan cycles
cpu1_L1I TOTAL        ACCESS:          0 HIT:          0 MISS:          0
cpu1_L1I LOAD         ACCESS:          0 HIT:          0 MISS:          0
cpu1_L1I RFO          ACCESS:          0 HIT:          0 MISS:          0
cpu1_L1I PREFETCH     ACCESS:          0 HIT:          0 MISS:          0
cpu1_L1I WRITE        ACCESS:          0 HIT:          0 MISS:          0
cpu1_L1I TRANSLATION  ACCESS:          0 HIT:          0 MISS:          0
cpu1_L1I PREFETCH REQUESTED:          0 ISSUED:          0 USEFUL:          0 USELESS:          0
cpu1_L1I AVERAGE MISS LATENCY: -nan cycles
cpu1_L1I TOTAL        ACCESS:          0 HIT:          0 MISS:          0
cpu1_L1I LOAD         ACCESS:          0 HIT:          0 MISS:          0
cpu1_L1I RFO          ACCESS:          0 HIT:          0 MISS:          0
cpu1_L1I PREFETCH     ACCESS:          0 HIT:          0 MISS:          0
cpu1_L1I WRITE        ACCESS:          0 HIT:          0 MISS:          0
cpu1_L1I TRANSLATION  ACCESS:          0 HIT:          0 MISS:          0
cpu1_L1I PREFETCH REQUESTED:          0 ISSUED:          0 USEFUL:          0 USELESS:          0
cpu1_L1I AVERAGE MISS LATENCY: -nan cycles
cpu1_L2C TOTAL        ACCESS:          0 HIT:          0 MISS:          0
cpu1_L2C LOAD         ACCESS:          0 HIT:          0 MISS:          0
cpu1_L2C RFO          ACCESS:          0 HIT:          0 MISS:          0
cpu1_L2C PREFETCH     ACCESS:          0 HIT:          0 MISS:          0
cpu1_L2C WRITE        ACCESS:          0 HIT:          0 MISS:          0
cpu1_L2C TRANSLATION  ACCESS:          0 HIT:          0 MISS:          0
cpu1_L2C PREFETCH REQUESTED:          0 ISSUED:          0 USEFUL:          0 USELESS:          0
cpu1_L2C AVERAGE MISS LATENCY: 217.8 cycles
cpu1_L2C TOTAL        ACCESS:    6220694 HIT:    3650166 MISS:    2570528
cpu1_L2C LOAD         ACCESS:     865934 HIT:     334541 MISS:     531393
cpu1_L2C RFO          ACCESS:       3010 HIT:       1291 MISS:       1719
cpu1_L2C PREFETCH     ACCESS:    3625229 HIT:    1588532 MISS:    2036697
cpu1_L2C WRITE        ACCESS:    1725460 HIT:    1725460 MISS:          0
cpu1_L2C TRANSLATION  ACCESS:       1061 HIT:        342 MISS:        719
cpu1_L2C PREFETCH REQUESTED:          0 ISSUED:          0 USEFUL:          0 USELESS:          0
cpu1_L2C AVERAGE MISS LATENCY: 217.8 cycles
cpu1_L2C TOTAL        ACCESS:          0 HIT:          0 MISS:          0
cpu1_L2C LOAD         ACCESS:          0 HIT:          0 MISS:          0
cpu1_L2C RFO          ACCESS:          0 HIT:          0 MISS:          0
cpu1_L2C PREFETCH     ACCESS:          0 HIT:          0 MISS:          0
cpu1_L2C WRITE        ACCESS:          0 HIT:          0 MISS:          0
cpu1_L2C TRANSLATION  ACCESS:          0 HIT:          0 MISS:          0
cpu1_L2C PREFETCH REQUESTED:          0 ISSUED:          0 USEFUL:          0 USELESS:          0
cpu1_L2C AVERAGE MISS LATENCY: 217.8 cycles
cpu1_L2C TOTAL        ACCESS:          0 HIT:          0 MISS:          0
cpu1_L2C LOAD         ACCESS:          0 HIT:          0 MISS:          0
cpu1_L2C RFO          ACCESS:          0 HIT:          0 MISS:          0
cpu1_L2C PREFETCH     ACCESS:          0 HIT:          0 MISS:          0
cpu1_L2C WRITE        ACCESS:          0 HIT:          0 MISS:          0
cpu1_L2C TRANSLATION  ACCESS:          0 HIT:          0 MISS:          0
cpu1_L2C PREFETCH REQUESTED:          0 ISSUED:          0 USEFUL:          0 USELESS:          0
cpu1_L2C AVERAGE MISS LATENCY: 217.8 cycles
cpu1_STLB TOTAL        ACCESS:          0 HIT:          0 MISS:          0
cpu1_STLB LOAD         ACCESS:          0 HIT:          0 MISS:          0
cpu1_STLB RFO          ACCESS:          0 HIT:          0 MISS:          0
cpu1_STLB PREFETCH     ACCESS:          0 HIT:          0 MISS:          0
cpu1_STLB WRITE        ACCESS:          0 HIT:          0 MISS:          0
cpu1_STLB TRANSLATION  ACCESS:          0 HIT:          0 MISS:          0
cpu1_STLB PREFETCH REQUESTED:          0 ISSUED:          0 USEFUL:          0 USELESS:          0
cpu1_STLB AVERAGE MISS LATENCY: 210.1 cycles
cpu1_STLB TOTAL        ACCESS:      45955 HIT:      19002 MISS:      26953
cpu1_STLB LOAD         ACCESS:      45955 HIT:      19002 MISS:      26953
cpu1_STLB RFO          ACCESS:          0 HIT:          0 MISS:          0
cpu1_STLB PREFETCH     ACCESS:          0 HIT:          0 MISS:          0
cpu1_STLB WRITE        ACCESS:          0 HIT:          0 MISS:          0
cpu1_STLB TRANSLATION  ACCESS:          0 HIT:          0 MISS:          0
cpu1_STLB PREFETCH REQUESTED:          0 ISSUED:          0 USEFUL:          0 USELESS:          0
cpu1_STLB AVERAGE MISS LATENCY: 210.1 cycles
cpu1_STLB TOTAL        ACCESS:          0 HIT:          0 MISS:          0
cpu1_STLB LOAD         ACCESS:          0 HIT:          0 MISS:          0
cpu1_STLB RFO          ACCESS:          0 HIT:          0 MISS:          0
cpu1_STLB PREFETCH     ACCESS:          0 HIT:          0 MISS:          0
cpu1_STLB WRITE        ACCESS:          0 HIT:          0 MISS:          0
cpu1_STLB TRANSLATION  ACCESS:          0 HIT:          0 MISS:          0
cpu1_STLB PREFETCH REQUESTED:          0 ISSUED:          0 USEFUL:          0 USELESS:          0
cpu1_STLB AVERAGE MISS LATENCY: 210.1 cycles
cpu1_STLB TOTAL        ACCESS:          0 HIT:          0 MISS:          0
cpu1_STLB LOAD         ACCESS:          0 HIT:          0 MISS:          0
cpu1_STLB RFO          ACCESS:          0 HIT:          0 MISS:          0
cpu1_STLB PREFETCH     ACCESS:          0 HIT:          0 MISS:          0
cpu1_STLB WRITE        ACCESS:          0 HIT:          0 MISS:          0
cpu1_STLB TRANSLATION  ACCESS:          0 HIT:          0 MISS:          0
cpu1_STLB PREFETCH REQUESTED:          0 ISSUED:          0 USEFUL:          0 USELESS:          0
cpu1_STLB AVERAGE MISS LATENCY: 210.1 cycles
cpu2_DTLB TOTAL        ACCESS:          0 HIT:          0 MISS:          0
cpu2_DTLB LOAD         ACCESS:          0 HIT:          0 MISS:          0
cpu2_DTLB RFO          ACCESS:          0 HIT:          0 MISS:          0
cpu2_DTLB PREFETCH     ACCESS:          0 HIT:          0 MISS:          0
cpu2_DTLB WRITE        ACCESS:          0 HIT:          0 MISS:          0
cpu2_DTLB TRANSLATION  ACCESS:          0 HIT:          0 MISS:          0
cpu2_DTLB PREFETCH REQUESTED:          0 ISSUED:          0 USEFUL:          0 USELESS:          0
cpu2_DTLB AVERAGE MISS LATENCY: 6.609 cycles
cpu2_DTLB TOTAL        ACCESS:          0 HIT:          0 MISS:          0
cpu2_DTLB LOAD         ACCESS:          0 HIT:          0 MISS:          0
cpu2_DTLB RFO          ACCESS:          0 HIT:          0 MISS:          0
cpu2_DTLB PREFETCH     ACCESS:          0 HIT:          0 MISS:          0
cpu2_DTLB WRITE        ACCESS:          0 HIT:          0 MISS:          0
cpu2_DTLB TRANSLATION  ACCESS:          0 HIT:          0 MISS:          0
cpu2_DTLB PREFETCH REQUESTED:          0 ISSUED:          0 USEFUL:          0 USELESS:          0
cpu2_DTLB AVERAGE MISS LATENCY: 6.609 cycles
cpu2_DTLB TOTAL        ACCESS:   29608559 HIT:   23615977 MISS:    5992582
cpu2_DTLB LOAD         ACCESS:   29608559 HIT:   23615977 MISS:    5992582
cpu2_DTLB RFO          ACCESS:          0 HIT:          0 MISS:          0
cpu2_DTLB PREFETCH     ACCESS:          0 HIT:          0 MISS:          0
cpu2_DTLB WRITE        ACCESS:          0 HIT:          0 MISS:          0
cpu2_DTLB TRANSLATION  ACCESS:          0 HIT:          0 MISS:          0
cpu2_DTLB PREFETCH REQUESTED:          0 ISSUED:          0 USEFUL:          0 USELESS:          0
cpu2_DTLB AVERAGE MISS LATENCY: 6.609 cycles
cpu2_DTLB TOTAL        ACCESS:          0 HIT:          0 MISS:          0
cpu2_DTLB LOAD         ACCESS:          0 HIT:          0 MISS:          0
cpu2_DTLB RFO          ACCESS:          0 HIT:          0 MISS:          0
cpu2_DTLB PREFETCH     ACCESS:          0 HIT:          0 MISS:          0
cpu2_DTLB WRITE        ACCESS:          0 HIT:          0 MISS:          0
cpu2_DTLB TRANSLATION  ACCESS:          0 HIT:          0 MISS:          0
cpu2_DTLB PREFETCH REQUESTED:          0 ISSUED:          0 USEFUL:          0 USELESS:          0
cpu2_DTLB AVERAGE MISS LATENCY: 6.609 cycles
cpu2_ITLB TOTAL        ACCESS:          0 HIT:          0 MISS:          0
cpu2_ITLB LOAD         ACCESS:          0 HIT:          0 MISS:          0
cpu2_ITLB RFO          ACCESS:          0 HIT:          0 MISS:          0
cpu2_ITLB PREFETCH     ACCESS:          0 HIT:          0 MISS:          0
cpu2_ITLB WRITE        ACCESS:          0 HIT:          0 MISS:          0
cpu2_ITLB TRANSLATION  ACCESS:          0 HIT:          0 MISS:          0
cpu2_ITLB PREFETCH REQUESTED:          0 ISSUED:          0 USEFUL:          0 USELESS:          0
cpu2_ITLB AVERAGE MISS LATENCY: 4.895 cycles
cpu2_ITLB TOTAL        ACCESS:          0 HIT:          0 MISS:          0
cpu2_ITLB LOAD         ACCESS:          0 HIT:          0 MISS:          0
cpu2_ITLB RFO          ACCESS:          0 HIT:          0 MISS:          0
cpu2_ITLB PREFETCH     ACCESS:          0 HIT:          0 MISS:          0
cpu2_ITLB WRITE        ACCESS:          0 HIT:          0 MISS:          0
cpu2_ITLB TRANSLATION  ACCESS:          0 HIT:          0 MISS:          0
cpu2_ITLB PREFETCH REQUESTED:          0 ISSUED:          0 USEFUL:          0 USELESS:          0
cpu2_ITLB AVERAGE MISS LATENCY: 4.895 cycles
cpu2_ITLB TOTAL        ACCESS:    5139531 HIT:    5020805 MISS:     118726
cpu2_ITLB LOAD         ACCESS:    5139531 HIT:    5020805 MISS:     118726
cpu2_ITLB RFO          ACCESS:          0 HIT:          0 MISS:          0
cpu2_ITLB PREFETCH     ACCESS:          0 HIT:          0 MISS:          0
cpu2_ITLB WRITE        ACCESS:          0 HIT:          0 MISS:          0
cpu2_ITLB TRANSLATION  ACCESS:          0 HIT:          0 MISS:          0
cpu2_ITLB PREFETCH REQUESTED:          0 ISSUED:          0 USEFUL:          0 USELESS:          0
cpu2_ITLB AVERAGE MISS LATENCY: 4.895 cycles
cpu2_ITLB TOTAL        ACCESS:          0 HIT:          0 MISS:          0
cpu2_ITLB LOAD         ACCESS:          0 HIT:          0 MISS:          0
cpu2_ITLB RFO          ACCESS:          0 HIT:          0 MISS:          0
cpu2_ITLB PREFETCH     ACCESS:          0 HIT:          0 MISS:          0
cpu2_ITLB WRITE        ACCESS:          0 HIT:          0 MISS:          0
cpu2_ITLB TRANSLATION  ACCESS:          0 HIT:          0 MISS:          0
cpu2_ITLB PREFETCH REQUESTED:          0 ISSUED:          0 USEFUL:          0 USELESS:          0
cpu2_ITLB AVERAGE MISS LATENCY: 4.895 cycles
cpu2_L1D TOTAL        ACCESS:          0 HIT:          0 MISS:          0
cpu2_L1D LOAD         ACCESS:          0 HIT:          0 MISS:          0
cpu2_L1D RFO          ACCESS:          0 HIT:          0 MISS:          0
cpu2_L1D PREFETCH     ACCESS:          0 HIT:          0 MISS:          0
cpu2_L1D WRITE        ACCESS:          0 HIT:          0 MISS:          0
cpu2_L1D TRANSLATION  ACCESS:          0 HIT:          0 MISS:          0
cpu2_L1D PREFETCH REQUESTED:   29053655 ISSUED:    4650006 USEFUL:     118811 USELESS:      74244
cpu2_L1D AVERAGE MISS LATENCY: 20.6 cycles
cpu2_L1D TOTAL        ACCESS:          0 HIT:          0 MISS:          0
cpu2_L1D LOAD         ACCESS:          0 HIT:          0 MISS:          0
cpu2_L1D RFO          ACCESS:          0 HIT:          0 MISS:          0
cpu2_L1D PREFETCH     ACCESS:          0 HIT:          0 MISS:          0
cpu2_L1D WRITE        ACCESS:          0 HIT:          0 MISS:          0
cpu2_L1D TRANSLATION  ACCESS:          0 HIT:          0 MISS:          0
cpu2_L1D PREFETCH REQUESTED:   29053655 ISSUED:    4650006 USEFUL:     118811 USELESS:      74244
cpu2_L1D AVERAGE MISS LATENCY: 20.6 cycles
cpu2_L1D TOTAL        ACCESS:   42156039 HIT:   32263256 MISS:    9892783
cpu2_L1D LOAD         ACCESS:   26232150 HIT:   18181986 MISS:    8050164
cpu2_L1D RFO          ACCESS:          0 HIT:          0 MISS:          0
cpu2_L1D PREFETCH     ACCESS:    4650007 HIT:    3785495 MISS:     864512
cpu2_L1D WRITE        ACCESS:   11009349 HIT:   10283411 MISS:     725938
cpu2_L1D TRANSLATION  ACCESS:     264533 HIT:      12364 MISS:     252169
cpu2_L1D PREFETCH REQUESTED:   29053655 ISSUED:    4650006 USEFUL:     118811 USELESS:      74244
cpu2_L1D AVERAGE MISS LATENCY: 20.6 cycles
cpu2_L1D TOTAL        ACCESS:          0 HIT:          0 MISS:          0
cpu2_L1D LOAD         ACCESS:          0 HIT:          0 MISS:          0
cpu2_L1D RFO          ACCESS:          0 HIT:          0 MISS:          0
cpu2_L1D PREFETCH     ACCESS:          0 HIT:          0 MISS:          0
cpu2_L1D WRITE        ACCESS:          0 HIT:          0 MISS:          0
cpu2_L1D TRANSLATION  ACCESS:          0 HIT:          0 MISS:          0
cpu2_L1D PREFETCH REQUESTED:   29053655 ISSUED:    4650006 USEFUL:     118811 USELESS:      74244
cpu2_L1D AVERAGE MISS LATENCY: 20.6 cycles
cpu2_L1I TOTAL        ACCESS:          0 HIT:          0 MISS:          0
cpu2_L1I LOAD         ACCESS:          0 HIT:          0 MISS:          0
cpu2_L1I RFO          ACCESS:          0 HIT:          0 MISS:          0
cpu2_L1I PREFETCH     ACCESS:          0 HIT:          0 MISS:          0
cpu2_L1I WRITE        ACCESS:          0 HIT:          0 MISS:          0
cpu2_L1I TRANSLATION  ACCESS:          0 HIT:          0 MISS:          0
cpu2_L1I PREFETCH REQUESTED:          0 ISSUED:          0 USEFUL:          0 USELESS:          0
cpu2_L1I AVERAGE MISS LATENCY: 12.06 cycles
cpu2_L1I TOTAL        ACCESS:          0 HIT:          0 MISS:          0
cpu2_L1I LOAD         ACCESS:          0 HIT:          0 MISS:          0
cpu2_L1I RFO          ACCESS:          0 HIT:          0 MISS:          0
cpu2_L1I PREFETCH     ACCESS:          0 HIT:          0 MISS:          0
cpu2_L1I WRITE        ACCESS:          0 HIT:          0 MISS:          0
cpu2_L1I TRANSLATION  ACCESS:          0 HIT:          0 MISS:          0
cpu2_L1I PREFETCH REQUESTED:          0 ISSUED:          0 USEFUL:          0 USELESS:          0
cpu2_L1I AVERAGE MISS LATENCY: 12.06 cycles
cpu2_L1I TOTAL        ACCESS:    6133856 HIT:    5602843 MISS:     531013
cpu2_L1I LOAD         ACCESS:    6133856 HIT:    5602843 MISS:     531013
cpu2_L1I RFO          ACCESS:          0 HIT:          0 MISS:          0
cpu2_L1I PREFETCH     ACCESS:          0 HIT:          0 MISS:          0
cpu2_L1I WRITE        ACCESS:          0 HIT:          0 MISS:          0
cpu2_L1I TRANSLATION  ACCESS:          0 HIT:          0 MISS:          0
cpu2_L1I PREFETCH REQUESTED:          0 ISSUED:          0 USEFUL:          0 USELESS:          0
cpu2_L1I AVERAGE MISS LATENCY: 12.06 cycles
cpu2_L1I TOTAL        ACCESS:          0 HIT:          0 MISS:          0
cpu2_L1I LOAD         ACCESS:          0 HIT:          0 MISS:          0
cpu2_L1I RFO          ACCESS:          0 HIT:          0 MISS:          0
cpu2_L1I PREFETCH     ACCESS:          0 HIT:          0 MISS:          0
cpu2_L1I WRITE        ACCESS:          0 HIT:          0 MISS:          0
cpu2_L1I TRANSLATION  ACCESS:          0 HIT:          0 MISS:          0
cpu2_L1I PREFETCH REQUESTED:          0 ISSUED:          0 USEFUL:          0 USELESS:          0
cpu2_L1I AVERAGE MISS LATENCY: 12.06 cycles
cpu2_L2C TOTAL        ACCESS:          0 HIT:          0 MISS:          0
cpu2_L2C LOAD         ACCESS:          0 HIT:          0 MISS:          0
cpu2_L2C RFO          ACCESS:          0 HIT:          0 MISS:          0
cpu2_L2C PREFETCH     ACCESS:          0 HIT:          0 MISS:          0
cpu2_L2C WRITE        ACCESS:          0 HIT:          0 MISS:          0
cpu2_L2C TRANSLATION  ACCESS:          0 HIT:          0 MISS:          0
cpu2_L2C PREFETCH REQUESTED:          0 ISSUED:          0 USEFUL:          0 USELESS:          0
cpu2_L2C AVERAGE MISS LATENCY: 218.7 cycles
cpu2_L2C TOTAL        ACCESS:          0 HIT:          0 MISS:          0
cpu2_L2C LOAD         ACCESS:          0 HIT:          0 MISS:          0
cpu2_L2C RFO          ACCESS:          0 HIT:          0 MISS:          0
cpu2_L2C PREFETCH     ACCESS:          0 HIT:          0 MISS:          0
cpu2_L2C WRITE        ACCESS:          0 HIT:          0 MISS:          0
cpu2_L2C TRANSLATION  ACCESS:          0 HIT:          0 MISS:          0
cpu2_L2C PREFETCH REQUESTED:          0 ISSUED:          0 USEFUL:          0 USELESS:          0
cpu2_L2C AVERAGE MISS LATENCY: 218.7 cycles
cpu2_L2C TOTAL        ACCESS:    9202473 HIT:    8526337 MISS:     676136
cpu2_L2C LOAD         ACCESS:    7621020 HIT:    7201311 MISS:     419709
cpu2_L2C RFO          ACCESS:     187550 HIT:      39286 MISS:     148264
cpu2_L2C PREFETCH     ACCESS:     822144 HIT:     753674 MISS:      68470
cpu2_L2C WRITE        ACCESS:     319674 HIT:     319667 MISS:          7
cpu2_L2C TRANSLATION  ACCESS:     252085 HIT:     212399 MISS:      39686
cpu2_L2C PREFETCH REQUESTED:          0 ISSUED:          0 USEFUL:          0 USELESS:          0
cpu2_L2C AVERAGE MISS LATENCY: 218.7 cycles
cpu2_L2C TOTAL        ACCESS:          0 HIT:          0 MISS:          0
cpu2_L2C LOAD         ACCESS:          0 HIT:          0 MISS:          0
cpu2_L2C RFO          ACCESS:          0 HIT:          0 MISS:          0
cpu2_L2C PREFETCH     ACCESS:          0 HIT:          0 MISS:          0
cpu2_L2C WRITE        ACCESS:          0 HIT:          0 MISS:          0
cpu2_L2C TRANSLATION  ACCESS:          0 HIT:          0 MISS:          0
cpu2_L2C PREFETCH REQUESTED:          0 ISSUED:          0 USEFUL:          0 USELESS:          0
cpu2_L2C AVERAGE MISS LATENCY: 218.7 cycles
cpu2_STLB TOTAL        ACCESS:          0 HIT:          0 MISS:          0
cpu2_STLB LOAD         ACCESS:          0 HIT:          0 MISS:          0
cpu2_STLB RFO          ACCESS:          0 HIT:          0 MISS:          0
cpu2_STLB PREFETCH     ACCESS:          0 HIT:          0 MISS:          0
cpu2_STLB WRITE        ACCESS:          0 HIT:          0 MISS:          0
cpu2_STLB TRANSLATION  ACCESS:          0 HIT:          0 MISS:          0
cpu2_STLB PREFETCH REQUESTED:          0 ISSUED:          0 USEFUL:          0 USELESS:          0
cpu2_STLB AVERAGE MISS LATENCY: 46.21 cycles
cpu2_STLB TOTAL        ACCESS:          0 HIT:          0 MISS:          0
cpu2_STLB LOAD         ACCESS:          0 HIT:          0 MISS:          0
cpu2_STLB RFO          ACCESS:          0 HIT:          0 MISS:          0
cpu2_STLB PREFETCH     ACCESS:          0 HIT:          0 MISS:          0
cpu2_STLB WRITE        ACCESS:          0 HIT:          0 MISS:          0
cpu2_STLB TRANSLATION  ACCESS:          0 HIT:          0 MISS:          0
cpu2_STLB PREFETCH REQUESTED:          0 ISSUED:          0 USEFUL:          0 USELESS:          0
cpu2_STLB AVERAGE MISS LATENCY: 46.21 cycles
cpu2_STLB TOTAL        ACCESS:    4468268 HIT:    4204591 MISS:     263677
cpu2_STLB LOAD         ACCESS:    4468268 HIT:    4204591 MISS:     263677
cpu2_STLB RFO          ACCESS:          0 HIT:          0 MISS:          0
cpu2_STLB PREFETCH     ACCESS:          0 HIT:          0 MISS:          0
cpu2_STLB WRITE        ACCESS:          0 HIT:          0 MISS:          0
cpu2_STLB TRANSLATION  ACCESS:          0 HIT:          0 MISS:          0
cpu2_STLB PREFETCH REQUESTED:          0 ISSUED:          0 USEFUL:          0 USELESS:          0
cpu2_STLB AVERAGE MISS LATENCY: 46.21 cycles
cpu2_STLB TOTAL        ACCESS:          0 HIT:          0 MISS:          0
cpu2_STLB LOAD         ACCESS:          0 HIT:          0 MISS:          0
cpu2_STLB RFO          ACCESS:          0 HIT:          0 MISS:          0
cpu2_STLB PREFETCH     ACCESS:          0 HIT:          0 MISS:          0
cpu2_STLB WRITE        ACCESS:          0 HIT:          0 MISS:          0
cpu2_STLB TRANSLATION  ACCESS:          0 HIT:          0 MISS:          0
cpu2_STLB PREFETCH REQUESTED:          0 ISSUED:          0 USEFUL:          0 USELESS:          0
cpu2_STLB AVERAGE MISS LATENCY: 46.21 cycles
cpu3_DTLB TOTAL        ACCESS:          0 HIT:          0 MISS:          0
cpu3_DTLB LOAD         ACCESS:          0 HIT:          0 MISS:          0
cpu3_DTLB RFO          ACCESS:          0 HIT:          0 MISS:          0
cpu3_DTLB PREFETCH     ACCESS:          0 HIT:          0 MISS:          0
cpu3_DTLB WRITE        ACCESS:          0 HIT:          0 MISS:          0
cpu3_DTLB TRANSLATION  ACCESS:          0 HIT:          0 MISS:          0
cpu3_DTLB PREFETCH REQUESTED:          0 ISSUED:          0 USEFUL:          0 USELESS:          0
cpu3_DTLB AVERAGE MISS LATENCY: 14.51 cycles
cpu3_DTLB TOTAL        ACCESS:          0 HIT:          0 MISS:          0
cpu3_DTLB LOAD         ACCESS:          0 HIT:          0 MISS:          0
cpu3_DTLB RFO          ACCESS:          0 HIT:          0 MISS:          0
cpu3_DTLB PREFETCH     ACCESS:          0 HIT:          0 MISS:          0
cpu3_DTLB WRITE        ACCESS:          0 HIT:          0 MISS:          0
cpu3_DTLB TRANSLATION  ACCESS:          0 HIT:          0 MISS:          0
cpu3_DTLB PREFETCH REQUESTED:          0 ISSUED:          0 USEFUL:          0 USELESS:          0
cpu3_DTLB AVERAGE MISS LATENCY: 14.51 cycles
cpu3_DTLB TOTAL        ACCESS:          0 HIT:          0 MISS:          0
cpu3_DTLB LOAD         ACCESS:          0 HIT:          0 MISS:          0
cpu3_DTLB RFO          ACCESS:          0 HIT:          0 MISS:          0
cpu3_DTLB PREFETCH     ACCESS:          0 HIT:          0 MISS:          0
cpu3_DTLB WRITE        ACCESS:          0 HIT:          0 MISS:          0
cpu3_DTLB TRANSLATION  ACCESS:          0 HIT:          0 MISS:          0
cpu3_DTLB PREFETCH REQUESTED:          0 ISSUED:          0 USEFUL:          0 USELESS:          0
cpu3_DTLB AVERAGE MISS LATENCY: 14.51 cycles
cpu3_DTLB TOTAL        ACCESS:   25880161 HIT:   25866721 MISS:      13440
cpu3_DTLB LOAD         ACCESS:   25880161 HIT:   25866721 MISS:      13440
cpu3_DTLB RFO          ACCESS:          0 HIT:          0 MISS:          0
cpu3_DTLB PREFETCH     ACCESS:          0 HIT:          0 MISS:          0
cpu3_DTLB WRITE        ACCESS:          0 HIT:          0 MISS:          0
cpu3_DTLB TRANSLATION  ACCESS:          0 HIT:          0 MISS:          0
cpu3_DTLB PREFETCH REQUESTED:          0 ISSUED:          0 USEFUL:          0 USELESS:          0
cpu3_DTLB AVERAGE MISS LATENCY: 14.51 cycles
cpu3_ITLB TOTAL        ACCESS:          0 HIT:          0 MISS:          0
cpu3_ITLB LOAD         ACCESS:          0 HIT:          0 MISS:          0
cpu3_ITLB RFO          ACCESS:          0 HIT:          0 MISS:          0
cpu3_ITLB PREFETCH     ACCESS:          0 HIT:          0 MISS:          0
cpu3_ITLB WRITE        ACCESS:          0 HIT:          0 MISS:          0
cpu3_ITLB TRANSLATION  ACCESS:          0 HIT:          0 MISS:          0
cpu3_ITLB PREFETCH REQUESTED:          0 ISSUED:          0 USEFUL:          0 USELESS:          0
cpu3_ITLB AVERAGE MISS LATENCY: -nan cycles
cpu3_ITLB TOTAL        ACCESS:          0 HIT:          0 MISS:          0
cpu3_ITLB LOAD         ACCESS:          0 HIT:          0 MISS:          0
cpu3_ITLB RFO          ACCESS:          0 HIT:          0 MISS:          0
cpu3_ITLB PREFETCH     ACCESS:          0 HIT:          0 MISS:          0
cpu3_ITLB WRITE        ACCESS:          0 HIT:          0 MISS:          0
cpu3_ITLB TRANSLATION  ACCESS:          0 HIT:          0 MISS:          0
cpu3_ITLB PREFETCH REQUESTED:          0 ISSUED:          0 USEFUL:          0 USELESS:          0
cpu3_ITLB AVERAGE MISS LATENCY: -nan cycles
cpu3_ITLB TOTAL        ACCESS:          0 HIT:          0 MISS:          0
cpu3_ITLB LOAD         ACCESS:          0 HIT:          0 MISS:          0
cpu3_ITLB RFO          ACCESS:          0 HIT:          0 MISS:          0
cpu3_ITLB PREFETCH     ACCESS:          0 HIT:          0 MISS:          0
cpu3_ITLB WRITE        ACCESS:          0 HIT:          0 MISS:          0
cpu3_ITLB TRANSLATION  ACCESS:          0 HIT:          0 MISS:          0
cpu3_ITLB PREFETCH REQUESTED:          0 ISSUED:          0 USEFUL:          0 USELESS:          0
cpu3_ITLB AVERAGE MISS LATENCY: -nan cycles
cpu3_ITLB TOTAL        ACCESS:     722894 HIT:     722894 MISS:          0
cpu3_ITLB LOAD         ACCESS:     722894 HIT:     722894 MISS:          0
cpu3_ITLB RFO          ACCESS:          0 HIT:          0 MISS:          0
cpu3_ITLB PREFETCH     ACCESS:          0 HIT:          0 MISS:          0
cpu3_ITLB WRITE        ACCESS:          0 HIT:          0 MISS:          0
cpu3_ITLB TRANSLATION  ACCESS:          0 HIT:          0 MISS:          0
cpu3_ITLB PREFETCH REQUESTED:          0 ISSUED:          0 USEFUL:          0 USELESS:          0
cpu3_ITLB AVERAGE MISS LATENCY: -nan cycles
cpu3_L1D TOTAL        ACCESS:          0 HIT:          0 MISS:          0
cpu3_L1D LOAD         ACCESS:          0 HIT:          0 MISS:          0
cpu3_L1D RFO          ACCESS:          0 HIT:          0 MISS:          0
cpu3_L1D PREFETCH     ACCESS:          0 HIT:          0 MISS:          0
cpu3_L1D WRITE        ACCESS:          0 HIT:          0 MISS:          0
cpu3_L1D TRANSLATION  ACCESS:          0 HIT:          0 MISS:          0
cpu3_L1D PREFETCH REQUESTED:      40638 ISSUED:      37600 USEFUL:       1111 USELESS:         88
cpu3_L1D AVERAGE MISS LATENCY: 71.16 cycles
cpu3_L1D TOTAL        ACCESS:          0 HIT:          0 MISS:          0
cpu3_L1D LOAD         ACCESS:          0 HIT:          0 MISS:          0
cpu3_L1D RFO          ACCESS:          0 HIT:          0 MISS:          0
cpu3_L1D PREFETCH     ACCESS:          0 HIT:          0 MISS:          0
cpu3_L1D WRITE        ACCESS:          0 HIT:          0 MISS:          0
cpu3_L1D TRANSLATION  ACCESS:          0 HIT:          0 MISS:          0
cpu3_L1D PREFETCH REQUESTED:      40638 ISSUED:      37600 USEFUL:       1111 USELESS:         88
cpu3_L1D AVERAGE MISS LATENCY: 71.16 cycles
cpu3_L1D TOTAL        ACCESS:          0 HIT:          0 MISS:          0
cpu3_L1D LOAD         ACCESS:          0 HIT:          0 MISS:          0
cpu3_L1D RFO          ACCESS:          0 HIT:          0 MISS:          0
cpu3_L1D PREFETCH     ACCESS:          0 HIT:          0 MISS:          0
cpu3_L1D WRITE        ACCESS:          0 HIT:          0 MISS:          0
cpu3_L1D TRANSLATION  ACCESS:          0 HIT:          0 MISS:          0
cpu3_L1D PREFETCH REQUESTED:      40638 ISSUED:      37600 USEFUL:       1111 USELESS:         88
cpu3_L1D AVERAGE MISS LATENCY: 71.16 cycles
cpu3_L1D TOTAL        ACCESS:   31919095 HIT:   31887052 MISS:      32043
cpu3_L1D LOAD         ACCESS:   23820402 HIT:   23817620 MISS:       2782
cpu3_L1D RFO          ACCESS:          0 HIT:          0 MISS:          0
cpu3_L1D PREFETCH     ACCESS:      37600 HIT:      19042 MISS:      18558
cpu3_L1D WRITE        ACCESS:    8060843 HIT:    8050366 MISS:      10477
cpu3_L1D TRANSLATION  ACCESS:        250 HIT:         24 MISS:        226
cpu3_L1D PREFETCH REQUESTED:      40638 ISSUED:      37600 USEFUL:       1111 USELESS:         88
cpu3_L1D AVERAGE MISS LATENCY: 71.16 cycles
cpu3_L1I TOTAL        ACCESS:          0 HIT:          0 MISS:          0
cpu3_L1I LOAD         ACCESS:          0 HIT:          0 MISS:          0
cpu3_L1I RFO          ACCESS:          0 HIT:          0 MISS:          0
cpu3_L1I PREFETCH     ACCESS:          0 HIT:          0 MISS:          0
cpu3_L1I WRITE        ACCESS:          0 HIT:          0 MISS:          0
cpu3_L1I TRANSLATION  ACCESS:          0 HIT:          0 MISS:          0
cpu3_L1I PREFETCH REQUESTED:          0 ISSUED:          0 USEFUL:          0 USELESS:          0
cpu3_L1I AVERAGE MISS LATENCY: 7.33 cycles
cpu3_L1I TOTAL        ACCESS:          0 HIT:          0 MISS:          0
cpu3_L1I LOAD         ACCESS:          0 HIT:          0 MISS:          0
cpu3_L1I RFO          ACCESS:          0 HIT:          0 MISS:          0
cpu3_L1I PREFETCH     ACCESS:          0 HIT:          0 MISS:          0
cpu3_L1I WRITE        ACCESS:          0 HIT:          0 MISS:          0
cpu3_L1I TRANSLATION  ACCESS:          0 HIT:          0 MISS:          0
cpu3_L1I PREFETCH REQUESTED:          0 ISSUED:          0 USEFUL:          0 USELESS:          0
cpu3_L1I AVERAGE MISS LATENCY: 7.33 cycles
cpu3_L1I TOTAL        ACCESS:          0 HIT:          0 MISS:          0
cpu3_L1I LOAD         ACCESS:          0 HIT:          0 MISS:          0
cpu3_L1I RFO          ACCESS:          0 HIT:          0 MISS:          0
cpu3_L1I PREFETCH     ACCESS:          0 HIT:          0 MISS:          0
cpu3_L1I WRITE        ACCESS:          0 HIT:          0 MISS:          0
cpu3_L1I TRANSLATION  ACCESS:          0 HIT:          0 MISS:          0
cpu3_L1I PREFETCH REQUESTED:          0 ISSUED:          0 USEFUL:          0 USELESS:          0
cpu3_L1I AVERAGE MISS LATENCY: 7.33 cycles
cpu3_L1I TOTAL        ACCESS:     799931 HIT:     797739 MISS:       2192
cpu3_L1I LOAD         ACCESS:     799931 HIT:     797739 MISS:       2192
cpu3_L1I RFO          ACCESS:          0 HIT:          0 MISS:          0
cpu3_L1I PREFETCH     ACCESS:          0 HIT:          0 MISS:          0
cpu3_L1I WRITE        ACCESS:          0 HIT:          0 MISS:          0
cpu3_L1I TRANSLATION  ACCESS:          0 HIT:          0 MISS:          0
cpu3_L1I PREFETCH REQUESTED:          0 ISSUED:          0 USEFUL:          0 USELESS:          0
cpu3_L1I AVERAGE MISS LATENCY: 7.33 cycles
cpu3_L2C TOTAL        ACCESS:          0 HIT:          0 MISS:          0
cpu3_L2C LOAD         ACCESS:          0 HIT:          0 MISS:          0
cpu3_L2C RFO          ACCESS:          0 HIT:          0 MISS:          0
cpu3_L2C PREFETCH     ACCESS:          0 HIT:          0 MISS:          0
cpu3_L2C WRITE        ACCESS:          0 HIT:          0 MISS:          0
cpu3_L2C TRANSLATION  ACCESS:          0 HIT:          0 MISS:          0
cpu3_L2C PREFETCH REQUESTED:          0 ISSUED:          0 USEFUL:          0 USELESS:          0
cpu3_L2C AVERAGE MISS LATENCY: 379 cycles
cpu3_L2C TOTAL        ACCESS:          0 HIT:          0 MISS:          0
cpu3_L2C LOAD         ACCESS:          0 HIT:          0 MISS:          0
cpu3_L2C RFO          ACCESS:          0 HIT:          0 MISS:          0
cpu3_L2C PREFETCH     ACCESS:          0 HIT:          0 MISS:          0
cpu3_L2C WRITE        ACCESS:          0 HIT:          0 MISS:          0
cpu3_L2C TRANSLATION  ACCESS:          0 HIT:          0 MISS:          0
cpu3_L2C PREFETCH REQUESTED:          0 ISSUED:          0 USEFUL:          0 USELESS:          0
cpu3_L2C AVERAGE MISS LATENCY: 379 cycles
cpu3_L2C TOTAL        ACCESS:          0 HIT:          0 MISS:          0
cpu3_L2C LOAD         ACCESS:          0 HIT:          0 MISS:          0
cpu3_L2C RFO          ACCESS:          0 HIT:          0 MISS:          0
cpu3_L2C PREFETCH     ACCESS:          0 HIT:          0 MISS:          0
cpu3_L2C WRITE        ACCESS:          0 HIT:          0 MISS:          0
cpu3_L2C TRANSLATION  ACCESS:          0 HIT:          0 MISS:          0
cpu3_L2C PREFETCH REQUESTED:          0 ISSUED:          0 USEFUL:          0 USELESS:          0
cpu3_L2C AVERAGE MISS LATENCY: 379 cycles
cpu3_L2C TOTAL        ACCESS:      30475 HIT:      20661 MISS:       9814
cpu3_L2C LOAD         ACCESS:       3216 HIT:       2007 MISS:       1209
cpu3_L2C RFO          ACCESS:       3853 HIT:        178 MISS:       3675
cpu3_L2C PREFETCH     ACCESS:      18495 HIT:      13713 MISS:       4782
cpu3_L2C WRITE        ACCESS:       4685 HIT:       4683 MISS:          2
cpu3_L2C TRANSLATION  ACCESS:        226 HIT:         80 MISS:        146
cpu3_L2C PREFETCH REQUESTED:          0 ISSUED:          0 USEFUL:          0 USELESS:          0
cpu3_L2C AVERAGE MISS LATENCY: 379 cycles
cpu3_STLB TOTAL        ACCESS:          0 HIT:          0 MISS:          0
cpu3_STLB LOAD         ACCESS:          0 HIT:          0 MISS:          0
cpu3_STLB RFO          ACCESS:          0 HIT:          0 MISS:          0
cpu3_STLB PREFETCH     ACCESS:          0 HIT:          0 MISS:          0
cpu3_STLB WRITE        ACCESS:          0 HIT:          0 MISS:          0
cpu3_STLB TRANSLATION  ACCESS:          0 HIT:          0 MISS:          0
cpu3_STLB PREFETCH REQUESTED:          0 ISSUED:          0 USEFUL:          0 USELESS:          0
cpu3_STLB AVERAGE MISS LATENCY: 600.8 cycles
cpu3_STLB TOTAL        ACCESS:          0 HIT:          0 MISS:          0
cpu3_STLB LOAD         ACCESS:          0 HIT:          0 MISS:          0
cpu3_STLB RFO          ACCESS:          0 HIT:          0 MISS:          0
cpu3_STLB PREFETCH     ACCESS:          0 HIT:          0 MISS:          0
cpu3_STLB WRITE        ACCESS:          0 HIT:          0 MISS:          0
cpu3_STLB TRANSLATION  ACCESS:          0 HIT:          0 MISS:          0
cpu3_STLB PREFETCH REQUESTED:          0 ISSUED:          0 USEFUL:          0 USELESS:          0
cpu3_STLB AVERAGE MISS LATENCY: 600.8 cycles
cpu3_STLB TOTAL        ACCESS:          0 HIT:          0 MISS:          0
cpu3_STLB LOAD         ACCESS:          0 HIT:          0 MISS:          0
cpu3_STLB RFO          ACCESS:          0 HIT:          0 MISS:          0
cpu3_STLB PREFETCH     ACCESS:          0 HIT:          0 MISS:          0
cpu3_STLB WRITE        ACCESS:          0 HIT:          0 MISS:          0
cpu3_STLB TRANSLATION  ACCESS:          0 HIT:          0 MISS:          0
cpu3_STLB PREFETCH REQUESTED:          0 ISSUED:          0 USEFUL:          0 USELESS:          0
cpu3_STLB AVERAGE MISS LATENCY: 600.8 cycles
cpu3_STLB TOTAL        ACCESS:      11554 HIT:      11305 MISS:        249
cpu3_STLB LOAD         ACCESS:      11554 HIT:      11305 MISS:        249
cpu3_STLB RFO          ACCESS:          0 HIT:          0 MISS:          0
cpu3_STLB PREFETCH     ACCESS:          0 HIT:          0 MISS:          0
cpu3_STLB WRITE        ACCESS:          0 HIT:          0 MISS:          0
cpu3_STLB TRANSLATION  ACCESS:          0 HIT:          0 MISS:          0
cpu3_STLB PREFETCH REQUESTED:          0 ISSUED:          0 USEFUL:          0 USELESS:          0
cpu3_STLB AVERAGE MISS LATENCY: 600.8 cycles

Region of Interest Statistics

CPU 0 cumulative IPC: 2.174 instructions: 150000000 cycles: 68986682
CPU 0 Branch Prediction Accuracy: 85.81% MPKI: 13.74 Average ROB Occupancy at Mispredict: 103.3
Branch type MPKI
BRANCH_DIRECT_JUMP: 0.00012
BRANCH_INDIRECT: 6.67e-06
BRANCH_CONDITIONAL: 8.21
BRANCH_DIRECT_CALL: 0
BRANCH_INDIRECT_CALL: 0
BRANCH_RETURN: 5.53


CPU 1 cumulative IPC: 1.963 instructions: 150000001 cycles: 76399075
CPU 1 Branch Prediction Accuracy: 99.98% MPKI: 0.00438 Average ROB Occupancy at Mispredict: 352
Branch type MPKI
BRANCH_DIRECT_JUMP: 0
BRANCH_INDIRECT: 0
BRANCH_CONDITIONAL: 0.00438
BRANCH_DIRECT_CALL: 0
BRANCH_INDIRECT_CALL: 0
BRANCH_RETURN: 0


CPU 2 cumulative IPC: 1.487 instructions: 150000001 cycles: 100861291
CPU 2 Branch Prediction Accuracy: 96.96% MPKI: 8.474 Average ROB Occupancy at Mispredict: 40.02
Branch type MPKI
BRANCH_DIRECT_JUMP: 0.12
BRANCH_INDIRECT: 0.36
BRANCH_CONDITIONAL: 6.02
BRANCH_DIRECT_CALL: 0.000787
BRANCH_INDIRECT_CALL: 0.409
BRANCH_RETURN: 1.56


CPU 3 cumulative IPC: 2.154 instructions: 150000001 cycles: 69642229
CPU 3 Branch Prediction Accuracy: 94.91% MPKI: 6.828 Average ROB Occupancy at Mispredict: 78.6
Branch type MPKI
BRANCH_DIRECT_JUMP: 0
BRANCH_INDIRECT: 0
BRANCH_CONDITIONAL: 6.81
BRANCH_DIRECT_CALL: 0
BRANCH_INDIRECT_CALL: 0
BRANCH_RETURN: 0.0175

LLC TOTAL        ACCESS:      40342 HIT:       5935 MISS:      34407
LLC LOAD         ACCESS:       4105 HIT:        626 MISS:       3479
LLC RFO          ACCESS:         91 HIT:         80 MISS:         11
LLC PREFETCH     ACCESS:      34951 HIT:       5156 MISS:      29795
LLC WRITE        ACCESS:        739 HIT:         48 MISS:        691
LLC TRANSLATION  ACCESS:        456 HIT:         25 MISS:        431
LLC PREFETCH REQUESTED:          0 ISSUED:          0 USEFUL:          0 USELESS:          0
LLC AVERAGE MISS LATENCY: 334 cycles
LLC TOTAL        ACCESS:    2963767 HIT:    1626562 MISS:    1337205
LLC LOAD         ACCESS:     381608 HIT:      37312 MISS:     344296
LLC RFO          ACCESS:       1321 HIT:       1321 MISS:          0
LLC PREFETCH     ACCESS:    1263637 HIT:     270818 MISS:     992819
LLC WRITE        ACCESS:    1316659 HIT:    1316654 MISS:          5
LLC TRANSLATION  ACCESS:        542 HIT:        457 MISS:         85
LLC PREFETCH REQUESTED:          0 ISSUED:          0 USEFUL:          0 USELESS:          0
LLC AVERAGE MISS LATENCY: 334 cycles
LLC TOTAL        ACCESS:     859773 HIT:     622819 MISS:     236954
LLC LOAD         ACCESS:     419252 HIT:     361546 MISS:      57706
[...]
cpu2_L2C TRANSLATION  ACCESS:          0 HIT:          0 MISS:          0
cpu2_L2C PREFETCH REQUESTED:          0 ISSUED:          0 USEFUL:          0 USELESS:          0
cpu2_L2C AVERAGE MISS LATENCY: 218.7 cycles
cpu2_L2C TOTAL        ACCESS:          0 HIT:          0 MISS:          0
cpu2_L2C LOAD         ACCESS:          0 HIT:          0 MISS:          0
cpu2_L2C RFO          ACCESS:          0 HIT:          0 MISS:          0
cpu2_L2C PREFETCH     ACCESS:          0 HIT:          0 MISS:          0
cpu2_L2C WRITE        ACCESS:          0 HIT:          0 MISS:          0
cpu2_L2C TRANSLATION  ACCESS:          0 HIT:          0 MISS:          0
cpu2_L2C PREFETCH REQUESTED:          0 ISSUED:          0 USEFUL:          0 USELESS:          0
cpu2_L2C AVERAGE MISS LATENCY: 218.7 cycles
cpu2_L2C TOTAL        ACCESS:    9202473 HIT:    8526337 MISS:     676136
cpu2_L2C LOAD         ACCESS:    7621020 HIT:    7201311 MISS:     419709
cpu2_L2C RFO          ACCESS:     187550 HIT:      39286 MISS:     148264
cpu2_L2C PREFETCH     ACCESS:     822144 HIT:     753674 MISS:      68470
cpu2_L2C WRITE        ACCESS:     319674 HIT:     319667 MISS:          7
cpu2_L2C TRANSLATION  ACCESS:     252085 HIT:     212399 MISS:      39686
cpu2_L2C PREFETCH REQUESTED:          0 ISSUED:          0 USEFUL:          0 USELESS:          0
cpu2_L2C AVERAGE MISS LATENCY: 218.7 cycles
cpu2_L2C TOTAL        ACCESS:          0 HIT:          0 MISS:          0
cpu2_L2C LOAD         ACCESS:          0 HIT:          0 MISS:          0
cpu2_L2C RFO          ACCESS:          0 HIT:          0 MISS:          0
cpu2_L2C PREFETCH     ACCESS:          0 HIT:          0 MISS:          0
cpu2_L2C WRITE        ACCESS:          0 HIT:          0 MISS:          0
cpu2_L2C TRANSLATION  ACCESS:          0 HIT:          0 MISS:          0
cpu2_L2C PREFETCH REQUESTED:          0 ISSUED:          0 USEFUL:          0 USELESS:          0
cpu2_L2C AVERAGE MISS LATENCY: 218.7 cycles
cpu2_STLB TOTAL        ACCESS:          0 HIT:          0 MISS:          0
cpu2_STLB LOAD         ACCESS:          0 HIT:          0 MISS:          0
cpu2_STLB RFO          ACCESS:          0 HIT:          0 MISS:          0
cpu2_STLB PREFETCH     ACCESS:          0 HIT:          0 MISS:          0
cpu2_STLB WRITE        ACCESS:          0 HIT:          0 MISS:          0
cpu2_STLB TRANSLATION  ACCESS:          0 HIT:          0 MISS:          0
cpu2_STLB PREFETCH REQUESTED:          0 ISSUED:          0 USEFUL:          0 USELESS:          0
cpu2_STLB AVERAGE MISS LATENCY: 46.21 cycles
cpu2_STLB TOTAL        ACCESS:          0 HIT:          0 MISS:          0
cpu2_STLB LOAD         ACCESS:          0 HIT:          0 MISS:          0
cpu2_STLB RFO          ACCESS:          0 HIT:          0 MISS:          0
cpu2_STLB PREFETCH     ACCESS:          0 HIT:          0 MISS:          0
cpu2_STLB WRITE        ACCESS:          0 HIT:          0 MISS:          0
cpu2_STLB TRANSLATION  ACCESS:          0 HIT:          0 MISS:          0
cpu2_STLB PREFETCH REQUESTED:          0 ISSUED:          0 USEFUL:          0 USELESS:          0
cpu2_STLB AVERAGE MISS LATENCY: 46.21 cycles
cpu2_STLB TOTAL        ACCESS:    4468268 HIT:    4204591 MISS:     263677
cpu2_STLB LOAD         ACCESS:    4468268 HIT:    4204591 MISS:     263677
cpu2_STLB RFO          ACCESS:          0 HIT:          0 MISS:          0
cpu2_STLB PREFETCH     ACCESS:          0 HIT:          0 MISS:          0
cpu2_STLB WRITE        ACCESS:          0 HIT:          0 MISS:          0
cpu2_STLB TRANSLATION  ACCESS:          0 HIT:          0 MISS:          0
cpu2_STLB PREFETCH REQUESTED:          0 ISSUED:          0 USEFUL:          0 USELESS:          0
cpu2_STLB AVERAGE MISS LATENCY: 46.21 cycles
cpu2_STLB TOTAL        ACCESS:          0 HIT:          0 MISS:          0
cpu2_STLB LOAD         ACCESS:          0 HIT:          0 MISS:          0
cpu2_STLB RFO          ACCESS:          0 HIT:          0 MISS:          0
cpu2_STLB PREFETCH     ACCESS:          0 HIT:          0 MISS:          0
cpu2_STLB WRITE        ACCESS:          0 HIT:          0 MISS:          0
cpu2_STLB TRANSLATION  ACCESS:          0 HIT:          0 MISS:          0
cpu2_STLB PREFETCH REQUESTED:          0 ISSUED:          0 USEFUL:          0 USELESS:          0
cpu2_STLB AVERAGE MISS LATENCY: 46.21 cycles
cpu3_DTLB TOTAL        ACCESS:          0 HIT:          0 MISS:          0
cpu3_DTLB LOAD         ACCESS:          0 HIT:          0 MISS:          0
cpu3_DTLB RFO          ACCESS:          0 HIT:          0 MISS:          0
cpu3_DTLB PREFETCH     ACCESS:          0 HIT:          0 MISS:          0
cpu3_DTLB WRITE        ACCESS:          0 HIT:          0 MISS:          0
cpu3_DTLB TRANSLATION  ACCESS:          0 HIT:          0 MISS:          0
cpu3_DTLB PREFETCH REQUESTED:          0 ISSUED:          0 USEFUL:          0 USELESS:          0
cpu3_DTLB AVERAGE MISS LATENCY: 14.51 cycles
cpu3_DTLB TOTAL        ACCESS:          0 HIT:          0 MISS:          0
cpu3_DTLB LOAD         ACCESS:          0 HIT:          0 MISS:          0
cpu3_DTLB RFO          ACCESS:          0 HIT:          0 MISS:          0
cpu3_DTLB PREFETCH     ACCESS:          0 HIT:          0 MISS:          0
cpu3_DTLB WRITE        ACCESS:          0 HIT:          0 MISS:          0
cpu3_DTLB TRANSLATION  ACCESS:          0 HIT:          0 MISS:          0
cpu3_DTLB PREFETCH REQUESTED:          0 ISSUED:          0 USEFUL:          0 USELESS:          0
cpu3_DTLB AVERAGE MISS LATENCY: 14.51 cycles
cpu3_DTLB TOTAL        ACCESS:          0 HIT:          0 MISS:          0
cpu3_DTLB LOAD         ACCESS:          0 HIT:          0 MISS:          0
cpu3_DTLB RFO          ACCESS:          0 HIT:          0 MISS:          0
cpu3_DTLB PREFETCH     ACCESS:          0 HIT:          0 MISS:          0
cpu3_DTLB WRITE        ACCESS:          0 HIT:          0 MISS:          0
cpu3_DTLB TRANSLATION  ACCESS:          0 HIT:          0 MISS:          0
cpu3_DTLB PREFETCH REQUESTED:          0 ISSUED:          0 USEFUL:          0 USELESS:          0
cpu3_DTLB AVERAGE MISS LATENCY: 14.51 cycles
cpu3_DTLB TOTAL        ACCESS:   17960241 HIT:   17948341 MISS:      11900
cpu3_DTLB LOAD         ACCESS:   17960241 HIT:   17948341 MISS:      11900
cpu3_DTLB RFO          ACCESS:          0 HIT:          0 MISS:          0
cpu3_DTLB PREFETCH     ACCESS:          0 HIT:          0 MISS:          0
cpu3_DTLB WRITE        ACCESS:          0 HIT:          0 MISS:          0
cpu3_DTLB TRANSLATION  ACCESS:          0 HIT:          0 MISS:          0
cpu3_DTLB PREFETCH REQUESTED:          0 ISSUED:          0 USEFUL:          0 USELESS:          0
cpu3_DTLB AVERAGE MISS LATENCY: 14.51 cycles
cpu3_ITLB TOTAL        ACCESS:          0 HIT:          0 MISS:          0
cpu3_ITLB LOAD         ACCESS:          0 HIT:          0 MISS:          0
cpu3_ITLB RFO          ACCESS:          0 HIT:          0 MISS:          0
cpu3_ITLB PREFETCH     ACCESS:          0 HIT:          0 MISS:          0
cpu3_ITLB WRITE        ACCESS:          0 HIT:          0 MISS:          0
cpu3_ITLB TRANSLATION  ACCESS:          0 HIT:          0 MISS:          0
cpu3_ITLB PREFETCH REQUESTED:          0 ISSUED:          0 USEFUL:          0 USELESS:          0
cpu3_ITLB AVERAGE MISS LATENCY: -nan cycles
cpu3_ITLB TOTAL        ACCESS:          0 HIT:          0 MISS:          0
cpu3_ITLB LOAD         ACCESS:          0 HIT:          0 MISS:          0
cpu3_ITLB RFO          ACCESS:          0 HIT:          0 MISS:          0
cpu3_ITLB PREFETCH     ACCESS:          0 HIT:          0 MISS:          0
cpu3_ITLB WRITE        ACCESS:          0 HIT:          0 MISS:          0
cpu3_ITLB TRANSLATION  ACCESS:          0 HIT:          0 MISS:          0
cpu3_ITLB PREFETCH REQUESTED:          0 ISSUED:          0 USEFUL:          0 USELESS:          0
cpu3_ITLB AVERAGE MISS LATENCY: -nan cycles
cpu3_ITLB TOTAL        ACCESS:          0 HIT:          0 MISS:          0
cpu3_ITLB LOAD         ACCESS:          0 HIT:          0 MISS:          0
cpu3_ITLB RFO          ACCESS:          0 HIT:          0 MISS:          0
cpu3_ITLB PREFETCH     ACCESS:          0 HIT:          0 MISS:          0
cpu3_ITLB WRITE        ACCESS:          0 HIT:          0 MISS:          0
cpu3_ITLB TRANSLATION  ACCESS:          0 HIT:          0 MISS:          0
cpu3_ITLB PREFETCH REQUESTED:          0 ISSUED:          0 USEFUL:          0 USELESS:          0
cpu3_ITLB AVERAGE MISS LATENCY: -nan cycles
cpu3_ITLB TOTAL        ACCESS:     523745 HIT:     523745 MISS:          0
cpu3_ITLB LOAD         ACCESS:     523745 HIT:     523745 MISS:          0
cpu3_ITLB RFO          ACCESS:          0 HIT:          0 MISS:          0
cpu3_ITLB PREFETCH     ACCESS:          0 HIT:          0 MISS:          0
cpu3_ITLB WRITE        ACCESS:          0 HIT:          0 MISS:          0
cpu3_ITLB TRANSLATION  ACCESS:          0 HIT:          0 MISS:          0
cpu3_ITLB PREFETCH REQUESTED:          0 ISSUED:          0 USEFUL:          0 USELESS:          0
cpu3_ITLB AVERAGE MISS LATENCY: -nan cycles
cpu3_L1D TOTAL        ACCESS:          0 HIT:          0 MISS:          0
cpu3_L1D LOAD         ACCESS:          0 HIT:          0 MISS:          0
cpu3_L1D RFO          ACCESS:          0 HIT:          0 MISS:          0
cpu3_L1D PREFETCH     ACCESS:          0 HIT:          0 MISS:          0
cpu3_L1D WRITE        ACCESS:          0 HIT:          0 MISS:          0
cpu3_L1D TRANSLATION  ACCESS:          0 HIT:          0 MISS:          0
cpu3_L1D PREFETCH REQUESTED:      40638 ISSUED:      37600 USEFUL:       1111 USELESS:         88
cpu3_L1D AVERAGE MISS LATENCY: 71.16 cycles
cpu3_L1D TOTAL        ACCESS:          0 HIT:          0 MISS:          0
cpu3_L1D LOAD         ACCESS:          0 HIT:          0 MISS:          0
cpu3_L1D RFO          ACCESS:          0 HIT:          0 MISS:          0
cpu3_L1D PREFETCH     ACCESS:          0 HIT:          0 MISS:          0
cpu3_L1D WRITE        ACCESS:          0 HIT:          0 MISS:          0
cpu3_L1D TRANSLATION  ACCESS:          0 HIT:          0 MISS:          0
cpu3_L1D PREFETCH REQUESTED:      40638 ISSUED:      37600 USEFUL:       1111 USELESS:         88
cpu3_L1D AVERAGE MISS LATENCY: 71.16 cycles
cpu3_L1D TOTAL        ACCESS:          0 HIT:          0 MISS:          0
cpu3_L1D LOAD         ACCESS:          0 HIT:          0 MISS:          0
cpu3_L1D RFO          ACCESS:          0 HIT:          0 MISS:          0
cpu3_L1D PREFETCH     ACCESS:          0 HIT:          0 MISS:          0
cpu3_L1D WRITE        ACCESS:          0 HIT:          0 MISS:          0
cpu3_L1D TRANSLATION  ACCESS:          0 HIT:          0 MISS:          0
cpu3_L1D PREFETCH REQUESTED:      40638 ISSUED:      37600 USEFUL:       1111 USELESS:         88
cpu3_L1D AVERAGE MISS LATENCY: 71.16 cycles
cpu3_L1D TOTAL        ACCESS:   22133286 HIT:   22111343 MISS:      21943
cpu3_L1D LOAD         ACCESS:   16505817 HIT:   16503873 MISS:       1944
cpu3_L1D RFO          ACCESS:          0 HIT:          0 MISS:          0
cpu3_L1D PREFETCH     ACCESS:      25568 HIT:      12872 MISS:      12696
cpu3_L1D WRITE        ACCESS:    5601726 HIT:    5594581 MISS:       7145
cpu3_L1D TRANSLATION  ACCESS:        175 HIT:         17 MISS:        158
cpu3_L1D PREFETCH REQUESTED:      40638 ISSUED:      37600 USEFUL:       1111 USELESS:         88
cpu3_L1D AVERAGE MISS LATENCY: 71.16 cycles
cpu3_L1I TOTAL        ACCESS:          0 HIT:          0 MISS:          0
cpu3_L1I LOAD         ACCESS:          0 HIT:          0 MISS:          0
cpu3_L1I RFO          ACCESS:          0 HIT:          0 MISS:          0
cpu3_L1I PREFETCH     ACCESS:          0 HIT:          0 MISS:          0
cpu3_L1I WRITE        ACCESS:          0 HIT:          0 MISS:          0
cpu3_L1I TRANSLATION  ACCESS:          0 HIT:          0 MISS:          0
cpu3_L1I PREFETCH REQUESTED:          0 ISSUED:          0 USEFUL:          0 USELESS:          0
cpu3_L1I AVERAGE MISS LATENCY: 7.33 cycles
cpu3_L1I TOTAL        ACCESS:          0 HIT:          0 MISS:          0
cpu3_L1I LOAD         ACCESS:          0 HIT:          0 MISS:          0
cpu3_L1I RFO          ACCESS:          0 HIT:          0 MISS:          0
cpu3_L1I PREFETCH     ACCESS:          0 HIT:          0 MISS:          0
cpu3_L1I WRITE        ACCESS:          0 HIT:          0 MISS:          0
cpu3_L1I TRANSLATION  ACCESS:          0 HIT:          0 MISS:          0
cpu3_L1I PREFETCH REQUESTED:          0 ISSUED:          0 USEFUL:          0 USELESS:          0
cpu3_L1I AVERAGE MISS LATENCY: 7.33 cycles
cpu3_L1I TOTAL        ACCESS:          0 HIT:          0 MISS:          0
cpu3_L1I LOAD         ACCESS:          0 HIT:          0 MISS:          0
cpu3_L1I RFO          ACCESS:          0 HIT:          0 MISS:          0
cpu3_L1I PREFETCH     ACCESS:          0 HIT:          0 MISS:          0
cpu3_L1I WRITE        ACCESS:          0 HIT:          0 MISS:          0
cpu3_L1I TRANSLATION  ACCESS:          0 HIT:          0 MISS:          0
cpu3_L1I PREFETCH REQUESTED:          0 ISSUED:          0 USEFUL:          0 USELESS:          0
cpu3_L1I AVERAGE MISS LATENCY: 7.33 cycles
cpu3_L1I TOTAL        ACCESS:     579207 HIT:     577695 MISS:       1512
cpu3_L1I LOAD         ACCESS:     579207 HIT:     577695 MISS:       1512
cpu3_L1I RFO          ACCESS:          0 HIT:          0 MISS:          0
cpu3_L1I PREFETCH     ACCESS:          0 HIT:          0 MISS:          0
cpu3_L1I WRITE        ACCESS:          0 HIT:          0 MISS:          0
cpu3_L1I TRANSLATION  ACCESS:          0 HIT:          0 MISS:          0
cpu3_L1I PREFETCH REQUESTED:          0 ISSUED:          0 USEFUL:          0 USELESS:          0
cpu3_L1I AVERAGE MISS LATENCY: 7.33 cycles
cpu3_L2C TOTAL        ACCESS:          0 HIT:          0 MISS:          0
cpu3_L2C LOAD         ACCESS:          0 HIT:          0 MISS:          0
cpu3_L2C RFO          ACCESS:          0 HIT:          0 MISS:          0
cpu3_L2C PREFETCH     ACCESS:          0 HIT:          0 MISS:          0
cpu3_L2C WRITE        ACCESS:          0 HIT:          0 MISS:          0
cpu3_L2C TRANSLATION  ACCESS:          0 HIT:          0 MISS:          0
cpu3_L2C PREFETCH REQUESTED:          0 ISSUED:          0 USEFUL:          0 USELESS:          0
cpu3_L2C AVERAGE MISS LATENCY: 379 cycles
cpu3_L2C TOTAL        ACCESS:          0 HIT:          0 MISS:          0
cpu3_L2C LOAD         ACCESS:          0 HIT:          0 MISS:          0
cpu3_L2C RFO          ACCESS:          0 HIT:          0 MISS:          0
cpu3_L2C PREFETCH     ACCESS:          0 HIT:          0 MISS:          0
cpu3_L2C WRITE        ACCESS:          0 HIT:          0 MISS:          0
cpu3_L2C TRANSLATION  ACCESS:          0 HIT:          0 MISS:          0
cpu3_L2C PREFETCH REQUESTED:          0 ISSUED:          0 USEFUL:          0 USELESS:          0
cpu3_L2C AVERAGE MISS LATENCY: 379 cycles
cpu3_L2C TOTAL        ACCESS:          0 HIT:          0 MISS:          0
cpu3_L2C LOAD         ACCESS:          0 HIT:          0 MISS:          0
cpu3_L2C RFO          ACCESS:          0 HIT:          0 MISS:          0
cpu3_L2C PREFETCH     ACCESS:          0 HIT:          0 MISS:          0
cpu3_L2C WRITE        ACCESS:          0 HIT:          0 MISS:          0
cpu3_L2C TRANSLATION  ACCESS:          0 HIT:          0 MISS:          0
cpu3_L2C PREFETCH REQUESTED:          0 ISSUED:          0 USEFUL:          0 USELESS:          0
cpu3_L2C AVERAGE MISS LATENCY: 379 cycles
cpu3_L2C TOTAL        ACCESS:      20950 HIT:      14317 MISS:       6633
cpu3_L2C LOAD         ACCESS:       2237 HIT:       1386 MISS:        851
cpu3_L2C RFO          ACCESS:       2652 HIT:        106 MISS:       2546
cpu3_L2C PREFETCH     ACCESS:      12677 HIT:       9542 MISS:       3135
cpu3_L2C WRITE        ACCESS:       3226 HIT:       3225 MISS:          1
cpu3_L2C TRANSLATION  ACCESS:        158 HIT:         58 MISS:        100
cpu3_L2C PREFETCH REQUESTED:          0 ISSUED:          0 USEFUL:          0 USELESS:          0
cpu3_L2C AVERAGE MISS LATENCY: 379 cycles
cpu3_STLB TOTAL        ACCESS:          0 HIT:          0 MISS:          0
cpu3_STLB LOAD         ACCESS:          0 HIT:          0 MISS:          0
cpu3_STLB RFO          ACCESS:          0 HIT:          0 MISS:          0
cpu3_STLB PREFETCH     ACCESS:          0 HIT:          0 MISS:          0
cpu3_STLB WRITE        ACCESS:          0 HIT:          0 MISS:          0
cpu3_STLB TRANSLATION  ACCESS:          0 HIT:          0 MISS:          0
cpu3_STLB PREFETCH REQUESTED:          0 ISSUED:          0 USEFUL:          0 USELESS:          0
cpu3_STLB AVERAGE MISS LATENCY: 600.8 cycles
cpu3_STLB TOTAL        ACCESS:          0 HIT:          0 MISS:          0
cpu3_STLB LOAD         ACCESS:          0 HIT:          0 MISS:          0
cpu3_STLB RFO          ACCESS:          0 HIT:          0 MISS:          0
cpu3_STLB PREFETCH     ACCESS:          0 HIT:          0 MISS:          0
cpu3_STLB WRITE        ACCESS:          0 HIT:          0 MISS:          0
cpu3_STLB TRANSLATION  ACCESS:          0 HIT:          0 MISS:          0
cpu3_STLB PREFETCH REQUESTED:          0 ISSUED:          0 USEFUL:          0 USELESS:          0
cpu3_STLB AVERAGE MISS LATENCY: 600.8 cycles
cpu3_STLB TOTAL        ACCESS:          0 HIT:          0 MISS:          0
cpu3_STLB LOAD         ACCESS:          0 HIT:          0 MISS:          0
cpu3_STLB RFO          ACCESS:          0 HIT:          0 MISS:          0
cpu3_STLB PREFETCH     ACCESS:          0 HIT:          0 MISS:          0
cpu3_STLB WRITE        ACCESS:          0 HIT:          0 MISS:          0
cpu3_STLB TRANSLATION  ACCESS:          0 HIT:          0 MISS:          0
cpu3_STLB PREFETCH REQUESTED:          0 ISSUED:          0 USEFUL:          0 USELESS:          0
cpu3_STLB AVERAGE MISS LATENCY: 600.8 cycles
cpu3_STLB TOTAL        ACCESS:      10563 HIT:      10388 MISS:        175
cpu3_STLB LOAD         ACCESS:      10563 HIT:      10388 MISS:        175
cpu3_STLB RFO          ACCESS:          0 HIT:          0 MISS:          0
cpu3_STLB PREFETCH     ACCESS:          0 HIT:          0 MISS:          0
cpu3_STLB WRITE        ACCESS:          0 HIT:          0 MISS:          0
cpu3_STLB TRANSLATION  ACCESS:          0 HIT:          0 MISS:          0
cpu3_STLB PREFETCH REQUESTED:          0 ISSUED:          0 USEFUL:          0 USELESS:          0
cpu3_STLB AVERAGE MISS LATENCY: 600.8 cycles

DRAM Statistics

Channel 0 RQ ROW_BUFFER_HIT:     276532
  ROW_BUFFER_MISS:     742267
 AVG DBUS CONGESTED CYCLE: 3.948
WQ ROW_BUFFER_HIT: Channel 0 
  ROW_BUFFER_MISS:      83407
  FULL:     862617

Channel 1 RQ ROW_BUFFER_HIT:     275898
  ROW_BUFFER_MISS:     741992
 AVG DBUS CONGESTED CYCLE: 3.947
WQ ROW_BUFFER_HIT: Channel 1 
  ROW_BUFFER_MISS:      86237
  FULL:     859597
BERTI TO_L1: 96305173 TO_L2: 51492316 TO_L2_BC_MSHR: 26064
BERTI AVG_LAT: 90.7304 NUM_TRACK_LATENCY: 14836772 NUM_CANT_TRACK_LATENCY: 4790
BERTI CROSS_PAGE 23128701 NO_CROSS_PAGE: 124668788
BERTI FOUND_BERTI: 44058508 NO_FOUND_BERTI: 83541216
BERTI AVERAGE_ISSUED: 2.85988
BERTI TO_L1: 96305173 TO_L2: 51492316 TO_L2_BC_MSHR: 26064
BERTI AVG_LAT: 90.7304 NUM_TRACK_LATENCY: 14836772 NUM_CANT_TRACK_LATENCY: 4790
BERTI CROSS_PAGE 23128701 NO_CROSS_PAGE: 124668788
BERTI FOUND_BERTI: 44058508 NO_FOUND_BERTI: 83541216
BERTI AVERAGE_ISSUED: 2.85988
BERTI TO_L1: 96305173 TO_L2: 51492316 TO_L2_BC_MSHR: 26064
BERTI AVG_LAT: 90.7304 NUM_TRACK_LATENCY: 14836772 NUM_CANT_TRACK_LATENCY: 4790
BERTI CROSS_PAGE 23128701 NO_CROSS_PAGE: 124668788
BERTI FOUND_BERTI: 44058508 NO_FOUND_BERTI: 83541216
BERTI AVERAGE_ISSUED: 2.85988
BERTI TO_L1: 96305173 TO_L2: 51492316 TO_L2_BC_MSHR: 26064
BERTI AVG_LAT: 90.7304 NUM_TRACK_LATENCY: 14836772 NUM_CANT_TRACK_LATENCY: 4790
BERTI CROSS_PAGE 23128701 NO_CROSS_PAGE: 124668788
BERTI FOUND_BERTI: 44058508 NO_FOUND_BERTI: 83541216
BERTI AVERAGE_ISSUED: 2.85988
