Original cmd-> /home/grads/r/rdas40/ECEN676/ChampSim/bin/multi_core/berti_2ch --warmup_instructions=50000000 --simulation_instructions=150000000  /home/grads/r/rdas40/dpc3_traces/619.lbm_s-4268B.champsimtrace.xz /home/grads/r/rdas40/dpc3_traces/607.cactuBSSN_s-2421B.champsimtrace.xz /home/grads/r/rdas40/dpc3_traces/627.cam4_s-573B.champsimtrace.xz /home/grads/r/rdas40/dpc3_traces/621.wrf_s-575B.champsimtrace.xz
WARNING: physical memory size is smaller than virtual memory size.
WARNING: option --warmup_instructions is deprecated. Use --warmup-instructions instead.
WARNING: option --simulation_instructions is deprecated. Use --simulation-instructions instead.

*** ChampSim Multicore Out-of-Order Simulator ***
Warmup Instructions: 50000000
Simulation Instructions: 150000000
Number of CPUs: 4
Page size: 4096

Berti Prefetcher
BERTI HASH ORIGINAL
BERTI IP MASK ffff
Berti Prefetcher
BERTI HASH ORIGINAL
BERTI IP MASK ffff
Berti Prefetcher
BERTI HASH ORIGINAL
BERTI IP MASK ffff
Berti Prefetcher
BERTI HASH ORIGINAL
BERTI IP MASK ffff
Off-chip DRAM Size: 8 GiB Channels: 2 Width: 64-bit Data Race: 3200 MT/s
Heartbeat CPU 3 instructions: 10000001 cycles: 2502764 heartbeat IPC: 3.996 cumulative IPC: 3.996 (Simulation time: 00 hr 03 min 06 sec)
Heartbeat CPU 2 instructions: 10000002 cycles: 2724881 heartbeat IPC: 3.67 cumulative IPC: 3.67 (Simulation time: 00 hr 03 min 23 sec)
Heartbeat CPU 0 instructions: 10000003 cycles: 3387253 heartbeat IPC: 2.952 cumulative IPC: 2.952 (Simulation time: 00 hr 04 min 14 sec)
Heartbeat CPU 1 instructions: 10000002 cycles: 3683488 heartbeat IPC: 2.715 cumulative IPC: 2.715 (Simulation time: 00 hr 04 min 36 sec)
Heartbeat CPU 3 instructions: 20000000 cycles: 5005381 heartbeat IPC: 3.996 cumulative IPC: 3.996 (Simulation time: 00 hr 06 min 17 sec)
Heartbeat CPU 2 instructions: 20000001 cycles: 5241562 heartbeat IPC: 3.973 cumulative IPC: 3.816 (Simulation time: 00 hr 06 min 34 sec)
Heartbeat CPU 0 instructions: 20000003 cycles: 6764894 heartbeat IPC: 2.961 cumulative IPC: 2.956 (Simulation time: 00 hr 08 min 30 sec)
Heartbeat CPU 1 instructions: 20000003 cycles: 7363692 heartbeat IPC: 2.717 cumulative IPC: 2.716 (Simulation time: 00 hr 09 min 15 sec)
Heartbeat CPU 3 instructions: 30000001 cycles: 7507708 heartbeat IPC: 3.996 cumulative IPC: 3.996 (Simulation time: 00 hr 09 min 26 sec)
Heartbeat CPU 2 instructions: 30000000 cycles: 7757929 heartbeat IPC: 3.974 cumulative IPC: 3.867 (Simulation time: 00 hr 09 min 45 sec)
Heartbeat CPU 3 instructions: 40000001 cycles: 10010384 heartbeat IPC: 3.996 cumulative IPC: 3.996 (Simulation time: 00 hr 12 min 36 sec)
Heartbeat CPU 0 instructions: 30000002 cycles: 10128075 heartbeat IPC: 2.973 cumulative IPC: 2.962 (Simulation time: 00 hr 12 min 45 sec)
Heartbeat CPU 2 instructions: 40000002 cycles: 10280638 heartbeat IPC: 3.964 cumulative IPC: 3.891 (Simulation time: 00 hr 12 min 57 sec)
Heartbeat CPU 1 instructions: 30000001 cycles: 11045992 heartbeat IPC: 2.716 cumulative IPC: 2.716 (Simulation time: 00 hr 13 min 55 sec)
Heartbeat CPU 3 instructions: 50000002 cycles: 12513096 heartbeat IPC: 3.996 cumulative IPC: 3.996 (Simulation time: 00 hr 15 min 49 sec)
Warmup finished CPU 3 instructions: 50000002 cycles: 12513097 cumulative IPC: 3.996 (Simulation time: 00 hr 15 min 49 sec)
Heartbeat CPU 2 instructions: 50000001 cycles: 12834745 heartbeat IPC: 3.915 cumulative IPC: 3.896 (Simulation time: 00 hr 16 min 15 sec)
Warmup finished CPU 2 instructions: 50000001 cycles: 12834746 cumulative IPC: 3.896 (Simulation time: 00 hr 16 min 15 sec)
Heartbeat CPU 0 instructions: 40000000 cycles: 13525654 heartbeat IPC: 2.943 cumulative IPC: 2.957 (Simulation time: 00 hr 17 min 08 sec)
Heartbeat CPU 1 instructions: 40000003 cycles: 14727921 heartbeat IPC: 2.716 cumulative IPC: 2.716 (Simulation time: 00 hr 18 min 41 sec)
Heartbeat CPU 3 instructions: 60000001 cycles: 15015694 heartbeat IPC: 3.996 cumulative IPC: 3.996 (Simulation time: 00 hr 19 min 04 sec)
Heartbeat CPU 2 instructions: 60000000 cycles: 15394569 heartbeat IPC: 3.907 cumulative IPC: 3.897 (Simulation time: 00 hr 19 min 33 sec)
Heartbeat CPU 0 instructions: 50000002 cycles: 16928280 heartbeat IPC: 2.939 cumulative IPC: 2.954 (Simulation time: 00 hr 21 min 32 sec)
Warmup finished CPU 0 instructions: 50000002 cycles: 16928281 cumulative IPC: 2.954 (Simulation time: 00 hr 21 min 32 sec)
Heartbeat CPU 3 instructions: 70000001 cycles: 17520487 heartbeat IPC: 3.992 cumulative IPC: 3.995 (Simulation time: 00 hr 22 min 17 sec)
Heartbeat CPU 2 instructions: 70000001 cycles: 17935100 heartbeat IPC: 3.936 cumulative IPC: 3.903 (Simulation time: 00 hr 22 min 49 sec)
Heartbeat CPU 1 instructions: 50000004 cycles: 18408491 heartbeat IPC: 2.717 cumulative IPC: 2.716 (Simulation time: 00 hr 23 min 24 sec)
Warmup finished CPU 1 instructions: 50000004 cycles: 18408492 cumulative IPC: 2.716 (Simulation time: 00 hr 23 min 24 sec)
Warmup complete CPU 0 instructions: 54311327 cycles: 18408492 cumulative IPC: 2.95 (Simulation time: 00 hr 23 min 24 sec)
Warmup complete CPU 1 instructions: 50000004 cycles: 18408492 cumulative IPC: 2.716 (Simulation time: 00 hr 23 min 24 sec)
Warmup complete CPU 2 instructions: 71884161 cycles: 18408492 cumulative IPC: 3.905 (Simulation time: 00 hr 23 min 24 sec)
Warmup complete CPU 3 instructions: 73552017 cycles: 18408492 cumulative IPC: 3.996 (Simulation time: 00 hr 23 min 24 sec)
Heartbeat CPU 3 instructions: 80000001 cycles: 21485643 heartbeat IPC: 2.522 cumulative IPC: 2.095 (Simulation time: 00 hr 25 min 43 sec)
Heartbeat CPU 2 instructions: 80000003 cycles: 24817415 heartbeat IPC: 1.453 cumulative IPC: 1.266 (Simulation time: 00 hr 28 min 16 sec)
Heartbeat CPU 3 instructions: 90000002 cycles: 26226887 heartbeat IPC: 2.109 cumulative IPC: 2.104 (Simulation time: 00 hr 29 min 20 sec)
Heartbeat CPU 2 instructions: 90000003 cycles: 29977370 heartbeat IPC: 1.938 cumulative IPC: 1.566 (Simulation time: 00 hr 32 min 26 sec)
Heartbeat CPU 3 instructions: 100000000 cycles: 30974912 heartbeat IPC: 2.106 cumulative IPC: 2.105 (Simulation time: 00 hr 33 min 15 sec)
Heartbeat CPU 3 instructions: 110000001 cycles: 35704550 heartbeat IPC: 2.114 cumulative IPC: 2.107 (Simulation time: 00 hr 36 min 34 sec)
Heartbeat CPU 0 instructions: 60000004 cycles: 37868227 heartbeat IPC: 0.4776 cumulative IPC: 0.2923 (Simulation time: 00 hr 38 min 06 sec)
Heartbeat CPU 1 instructions: 60000004 cycles: 38676080 heartbeat IPC: 0.4934 cumulative IPC: 0.4934 (Simulation time: 00 hr 38 min 40 sec)
Heartbeat CPU 3 instructions: 120000000 cycles: 40370615 heartbeat IPC: 2.143 cumulative IPC: 2.115 (Simulation time: 00 hr 39 min 52 sec)
Heartbeat CPU 3 instructions: 130000002 cycles: 45063231 heartbeat IPC: 2.131 cumulative IPC: 2.118 (Simulation time: 00 hr 43 min 17 sec)
Heartbeat CPU 3 instructions: 140000000 cycles: 49808184 heartbeat IPC: 2.108 cumulative IPC: 2.116 (Simulation time: 00 hr 46 min 48 sec)
Heartbeat CPU 2 instructions: 100000000 cycles: 53579042 heartbeat IPC: 0.4237 cumulative IPC: 0.7994 (Simulation time: 00 hr 49 min 27 sec)
Heartbeat CPU 3 instructions: 150000004 cycles: 54477932 heartbeat IPC: 2.141 cumulative IPC: 2.119 (Simulation time: 00 hr 50 min 03 sec)
Heartbeat CPU 3 instructions: 160000003 cycles: 59158528 heartbeat IPC: 2.136 cumulative IPC: 2.121 (Simulation time: 00 hr 53 min 09 sec)
Heartbeat CPU 1 instructions: 70000004 cycles: 62793389 heartbeat IPC: 0.4146 cumulative IPC: 0.4506 (Simulation time: 00 hr 55 min 33 sec)
Heartbeat CPU 3 instructions: 170000003 cycles: 63819800 heartbeat IPC: 2.145 cumulative IPC: 2.124 (Simulation time: 00 hr 56 min 14 sec)
Heartbeat CPU 3 instructions: 180000004 cycles: 68473612 heartbeat IPC: 2.149 cumulative IPC: 2.126 (Simulation time: 00 hr 59 min 15 sec)
Heartbeat CPU 3 instructions: 190000002 cycles: 73151188 heartbeat IPC: 2.138 cumulative IPC: 2.127 (Simulation time: 01 hr 02 min 14 sec)
Heartbeat CPU 3 instructions: 200000000 cycles: 77918818 heartbeat IPC: 2.097 cumulative IPC: 2.125 (Simulation time: 01 hr 05 min 16 sec)
Heartbeat CPU 3 instructions: 210000000 cycles: 82593001 heartbeat IPC: 2.139 cumulative IPC: 2.126 (Simulation time: 01 hr 08 min 15 sec)
Heartbeat CPU 3 instructions: 220000000 cycles: 87238514 heartbeat IPC: 2.153 cumulative IPC: 2.128 (Simulation time: 01 hr 11 min 14 sec)
Simulation finished CPU 3 instructions: 150000001 cycles: 70469809 cumulative IPC: 2.129 (Simulation time: 01 hr 12 min 18 sec)
Heartbeat CPU 0 instructions: 70000000 cycles: 89671498 heartbeat IPC: 0.193 cumulative IPC: 0.2202 (Simulation time: 01 hr 12 min 48 sec)
Heartbeat CPU 3 instructions: 230000001 cycles: 91873804 heartbeat IPC: 2.157 cumulative IPC: 2.13 (Simulation time: 01 hr 14 min 14 sec)
Heartbeat CPU 3 instructions: 240000000 cycles: 96547213 heartbeat IPC: 2.14 cumulative IPC: 2.13 (Simulation time: 01 hr 17 min 35 sec)
Heartbeat CPU 1 instructions: 80000000 cycles: 96699144 heartbeat IPC: 0.2949 cumulative IPC: 0.3832 (Simulation time: 01 hr 17 min 42 sec)
Heartbeat CPU 2 instructions: 110000001 cycles: 96743286 heartbeat IPC: 0.2317 cumulative IPC: 0.4866 (Simulation time: 01 hr 17 min 44 sec)
Heartbeat CPU 3 instructions: 250000002 cycles: 101198621 heartbeat IPC: 2.15 cumulative IPC: 2.131 (Simulation time: 01 hr 21 min 03 sec)
Heartbeat CPU 2 instructions: 120000003 cycles: 102725780 heartbeat IPC: 1.672 cumulative IPC: 0.5707 (Simulation time: 01 hr 22 min 20 sec)
Heartbeat CPU 3 instructions: 260000000 cycles: 105907048 heartbeat IPC: 2.124 cumulative IPC: 2.131 (Simulation time: 01 hr 24 min 58 sec)
Heartbeat CPU 2 instructions: 130000001 cycles: 106557555 heartbeat IPC: 2.61 cumulative IPC: 0.6593 (Simulation time: 01 hr 25 min 30 sec)
Heartbeat CPU 2 instructions: 140000000 cycles: 110471371 heartbeat IPC: 2.555 cumulative IPC: 0.7399 (Simulation time: 01 hr 28 min 44 sec)
Heartbeat CPU 3 instructions: 270000000 cycles: 110561943 heartbeat IPC: 2.148 cumulative IPC: 2.132 (Simulation time: 01 hr 28 min 49 sec)
Heartbeat CPU 3 instructions: 280000001 cycles: 115230881 heartbeat IPC: 2.142 cumulative IPC: 2.132 (Simulation time: 01 hr 32 min 25 sec)
Heartbeat CPU 2 instructions: 150000003 cycles: 116790076 heartbeat IPC: 1.583 cumulative IPC: 0.794 (Simulation time: 01 hr 33 min 37 sec)
Heartbeat CPU 1 instructions: 90000000 cycles: 116957548 heartbeat IPC: 0.4936 cumulative IPC: 0.4059 (Simulation time: 01 hr 33 min 45 sec)
Heartbeat CPU 3 instructions: 290000004 cycles: 119899288 heartbeat IPC: 2.142 cumulative IPC: 2.133 (Simulation time: 01 hr 35 min 59 sec)
Heartbeat CPU 2 instructions: 160000000 cycles: 123173361 heartbeat IPC: 1.567 cumulative IPC: 0.8411 (Simulation time: 01 hr 38 min 34 sec)
Heartbeat CPU 0 instructions: 80000001 cycles: 124223173 heartbeat IPC: 0.2894 cumulative IPC: 0.2428 (Simulation time: 01 hr 39 min 19 sec)
Heartbeat CPU 3 instructions: 300000000 cycles: 124556253 heartbeat IPC: 2.147 cumulative IPC: 2.133 (Simulation time: 01 hr 39 min 34 sec)
Heartbeat CPU 3 instructions: 310000001 cycles: 129217770 heartbeat IPC: 2.145 cumulative IPC: 2.134 (Simulation time: 01 hr 43 min 10 sec)
Heartbeat CPU 2 instructions: 170000000 cycles: 130620498 heartbeat IPC: 1.343 cumulative IPC: 0.8744 (Simulation time: 01 hr 44 min 13 sec)
Heartbeat CPU 3 instructions: 320000001 cycles: 133872209 heartbeat IPC: 2.148 cumulative IPC: 2.134 (Simulation time: 01 hr 46 min 48 sec)
Heartbeat CPU 1 instructions: 100000000 cycles: 136698869 heartbeat IPC: 0.5066 cumulative IPC: 0.4227 (Simulation time: 01 hr 48 min 51 sec)
Heartbeat CPU 2 instructions: 180000001 cycles: 137739308 heartbeat IPC: 1.405 cumulative IPC: 0.906 (Simulation time: 01 hr 49 min 39 sec)
Heartbeat CPU 3 instructions: 330000001 cycles: 138505029 heartbeat IPC: 2.159 cumulative IPC: 2.135 (Simulation time: 01 hr 50 min 12 sec)
Heartbeat CPU 2 instructions: 190000002 cycles: 143691324 heartbeat IPC: 1.68 cumulative IPC: 0.9428 (Simulation time: 01 hr 54 min 05 sec)
Heartbeat CPU 3 instructions: 340000000 cycles: 146190160 heartbeat IPC: 1.301 cumulative IPC: 2.085 (Simulation time: 01 hr 56 min 04 sec)
Heartbeat CPU 3 instructions: 350000002 cycles: 152108273 heartbeat IPC: 1.69 cumulative IPC: 2.068 (Simulation time: 02 hr 00 min 12 sec)
Heartbeat CPU 1 instructions: 110000003 cycles: 157137503 heartbeat IPC: 0.4893 cumulative IPC: 0.4325 (Simulation time: 02 hr 03 min 41 sec)
Heartbeat CPU 3 instructions: 360000003 cycles: 157533483 heartbeat IPC: 1.843 cumulative IPC: 2.059 (Simulation time: 02 hr 03 min 57 sec)
Heartbeat CPU 0 instructions: 90000000 cycles: 158415855 heartbeat IPC: 0.2925 cumulative IPC: 0.2549 (Simulation time: 02 hr 04 min 36 sec)
Heartbeat CPU 3 instructions: 370000000 cycles: 162840324 heartbeat IPC: 1.884 cumulative IPC: 2.053 (Simulation time: 02 hr 07 min 55 sec)
Heartbeat CPU 2 instructions: 200000004 cycles: 162905591 heartbeat IPC: 0.5204 cumulative IPC: 0.8866 (Simulation time: 02 hr 07 min 58 sec)
Heartbeat CPU 3 instructions: 380000002 cycles: 168113545 heartbeat IPC: 1.896 cumulative IPC: 2.047 (Simulation time: 02 hr 11 min 41 sec)
Heartbeat CPU 1 instructions: 120000004 cycles: 186792832 heartbeat IPC: 0.3372 cumulative IPC: 0.4157 (Simulation time: 02 hr 22 min 19 sec)
Heartbeat CPU 3 instructions: 390000001 cycles: 199517922 heartbeat IPC: 0.3184 cumulative IPC: 1.747 (Simulation time: 02 hr 29 min 30 sec)
Heartbeat CPU 3 instructions: 400000003 cycles: 208488259 heartbeat IPC: 1.115 cumulative IPC: 1.717 (Simulation time: 02 hr 35 min 09 sec)
Heartbeat CPU 3 instructions: 410000000 cycles: 217967010 heartbeat IPC: 1.055 cumulative IPC: 1.686 (Simulation time: 02 hr 41 min 13 sec)
Heartbeat CPU 2 instructions: 210000003 cycles: 219085787 heartbeat IPC: 0.178 cumulative IPC: 0.6882 (Simulation time: 02 hr 42 min 00 sec)
Heartbeat CPU 0 instructions: 100000001 cycles: 220461868 heartbeat IPC: 0.1612 cumulative IPC: 0.2261 (Simulation time: 02 hr 43 min 06 sec)
Heartbeat CPU 1 instructions: 130000001 cycles: 222610595 heartbeat IPC: 0.2792 cumulative IPC: 0.3918 (Simulation time: 02 hr 44 min 38 sec)
Heartbeat CPU 3 instructions: 420000001 cycles: 225278958 heartbeat IPC: 1.368 cumulative IPC: 1.675 (Simulation time: 02 hr 46 min 44 sec)
Heartbeat CPU 2 instructions: 220000001 cycles: 225505440 heartbeat IPC: 1.558 cumulative IPC: 0.7152 (Simulation time: 02 hr 46 min 56 sec)
Simulation finished CPU 2 instructions: 150000000 cycles: 207788833 cumulative IPC: 0.7219 (Simulation time: 02 hr 47 min 29 sec)
Heartbeat CPU 2 instructions: 230000001 cycles: 229314003 heartbeat IPC: 2.626 cumulative IPC: 0.7497 (Simulation time: 02 hr 50 min 05 sec)
Heartbeat CPU 3 instructions: 430000004 cycles: 232204470 heartbeat IPC: 1.444 cumulative IPC: 1.667 (Simulation time: 02 hr 52 min 30 sec)
Heartbeat CPU 2 instructions: 240000000 cycles: 233240751 heartbeat IPC: 2.547 cumulative IPC: 0.7825 (Simulation time: 02 hr 53 min 21 sec)
Heartbeat CPU 2 instructions: 250000000 cycles: 238876742 heartbeat IPC: 1.774 cumulative IPC: 0.8079 (Simulation time: 02 hr 57 min 48 sec)
Heartbeat CPU 3 instructions: 440000004 cycles: 239186634 heartbeat IPC: 1.432 cumulative IPC: 1.66 (Simulation time: 02 hr 58 min 04 sec)
Heartbeat CPU 1 instructions: 140000002 cycles: 243734182 heartbeat IPC: 0.4734 cumulative IPC: 0.3994 (Simulation time: 03 hr 01 min 34 sec)
Heartbeat CPU 2 instructions: 260000004 cycles: 245760163 heartbeat IPC: 1.453 cumulative IPC: 0.8274 (Simulation time: 03 hr 03 min 09 sec)
Heartbeat CPU 3 instructions: 450000000 cycles: 246462882 heartbeat IPC: 1.374 cumulative IPC: 1.651 (Simulation time: 03 hr 03 min 42 sec)
Heartbeat CPU 2 instructions: 270000000 cycles: 252600522 heartbeat IPC: 1.462 cumulative IPC: 0.846 (Simulation time: 03 hr 08 min 30 sec)
Heartbeat CPU 3 instructions: 460000004 cycles: 253496706 heartbeat IPC: 1.422 cumulative IPC: 1.644 (Simulation time: 03 hr 09 min 10 sec)
Heartbeat CPU 0 instructions: 110000003 cycles: 255955163 heartbeat IPC: 0.2817 cumulative IPC: 0.2344 (Simulation time: 03 hr 11 min 03 sec)
Heartbeat CPU 2 instructions: 280000001 cycles: 259541593 heartbeat IPC: 1.441 cumulative IPC: 0.8631 (Simulation time: 03 hr 13 min 49 sec)
Heartbeat CPU 3 instructions: 470000003 cycles: 260409557 heartbeat IPC: 1.447 cumulative IPC: 1.638 (Simulation time: 03 hr 14 min 27 sec)
Heartbeat CPU 1 instructions: 150000002 cycles: 265205651 heartbeat IPC: 0.4657 cumulative IPC: 0.4052 (Simulation time: 03 hr 18 min 05 sec)
Heartbeat CPU 2 instructions: 290000002 cycles: 267237440 heartbeat IPC: 1.299 cumulative IPC: 0.8766 (Simulation time: 03 hr 19 min 42 sec)
Heartbeat CPU 3 instructions: 480000000 cycles: 267448088 heartbeat IPC: 1.421 cumulative IPC: 1.632 (Simulation time: 03 hr 19 min 52 sec)
Heartbeat CPU 3 instructions: 490000002 cycles: 278570726 heartbeat IPC: 0.8991 cumulative IPC: 1.601 (Simulation time: 03 hr 27 min 31 sec)
Heartbeat CPU 2 instructions: 300000002 cycles: 280820998 heartbeat IPC: 0.7362 cumulative IPC: 0.8693 (Simulation time: 03 hr 29 min 02 sec)
Heartbeat CPU 3 instructions: 500000001 cycles: 286460177 heartbeat IPC: 1.268 cumulative IPC: 1.591 (Simulation time: 03 hr 32 min 53 sec)
Heartbeat CPU 1 instructions: 160000004 cycles: 287320259 heartbeat IPC: 0.4522 cumulative IPC: 0.4091 (Simulation time: 03 hr 33 min 30 sec)
Heartbeat CPU 0 instructions: 120000003 cycles: 293983866 heartbeat IPC: 0.263 cumulative IPC: 0.2384 (Simulation time: 03 hr 38 min 09 sec)
Heartbeat CPU 3 instructions: 510000002 cycles: 294495863 heartbeat IPC: 1.244 cumulative IPC: 1.581 (Simulation time: 03 hr 38 min 29 sec)
Heartbeat CPU 3 instructions: 520000000 cycles: 303553502 heartbeat IPC: 1.104 cumulative IPC: 1.566 (Simulation time: 03 hr 44 min 12 sec)
Heartbeat CPU 3 instructions: 530000003 cycles: 312821813 heartbeat IPC: 1.079 cumulative IPC: 1.55 (Simulation time: 03 hr 49 min 56 sec)
Heartbeat CPU 1 instructions: 170000000 cycles: 318595813 heartbeat IPC: 0.3197 cumulative IPC: 0.3998 (Simulation time: 03 hr 53 min 30 sec)
Heartbeat CPU 3 instructions: 540000000 cycles: 322319292 heartbeat IPC: 1.053 cumulative IPC: 1.535 (Simulation time: 03 hr 55 min 46 sec)
Heartbeat CPU 3 instructions: 550000002 cycles: 331762677 heartbeat IPC: 1.059 cumulative IPC: 1.52 (Simulation time: 04 hr 01 min 35 sec)
Heartbeat CPU 3 instructions: 560000002 cycles: 340675829 heartbeat IPC: 1.122 cumulative IPC: 1.509 (Simulation time: 04 hr 07 min 11 sec)
Heartbeat CPU 2 instructions: 310000000 cycles: 341102588 heartbeat IPC: 0.1659 cumulative IPC: 0.7379 (Simulation time: 04 hr 07 min 28 sec)
Heartbeat CPU 3 instructions: 570000004 cycles: 348880407 heartbeat IPC: 1.219 cumulative IPC: 1.502 (Simulation time: 04 hr 12 min 55 sec)
Heartbeat CPU 2 instructions: 320000004 cycles: 349202692 heartbeat IPC: 1.235 cumulative IPC: 0.7501 (Simulation time: 04 hr 13 min 10 sec)
Heartbeat CPU 1 instructions: 180000001 cycles: 351030650 heartbeat IPC: 0.3083 cumulative IPC: 0.3908 (Simulation time: 04 hr 14 min 36 sec)
Heartbeat CPU 0 instructions: 130000000 cycles: 352595414 heartbeat IPC: 0.1706 cumulative IPC: 0.2265 (Simulation time: 04 hr 15 min 52 sec)
Heartbeat CPU 2 instructions: 330000002 cycles: 353140261 heartbeat IPC: 2.54 cumulative IPC: 0.7711 (Simulation time: 04 hr 16 min 18 sec)
Heartbeat CPU 3 instructions: 580000000 cycles: 356408730 heartbeat IPC: 1.328 cumulative IPC: 1.498 (Simulation time: 04 hr 18 min 57 sec)
Heartbeat CPU 2 instructions: 340000004 cycles: 356933434 heartbeat IPC: 2.636 cumulative IPC: 0.792 (Simulation time: 04 hr 19 min 21 sec)
Heartbeat CPU 2 instructions: 350000004 cycles: 362028148 heartbeat IPC: 1.963 cumulative IPC: 0.8094 (Simulation time: 04 hr 23 min 14 sec)
Heartbeat CPU 3 instructions: 590000001 cycles: 364006283 heartbeat IPC: 1.316 cumulative IPC: 1.494 (Simulation time: 04 hr 24 min 43 sec)
Heartbeat CPU 2 instructions: 360000001 cycles: 367909115 heartbeat IPC: 1.7 cumulative IPC: 0.8244 (Simulation time: 04 hr 27 min 40 sec)
Heartbeat CPU 3 instructions: 600000000 cycles: 371166274 heartbeat IPC: 1.397 cumulative IPC: 1.492 (Simulation time: 04 hr 30 min 06 sec)
Heartbeat CPU 1 instructions: 190000001 cycles: 372527023 heartbeat IPC: 0.4652 cumulative IPC: 0.3953 (Simulation time: 04 hr 31 min 07 sec)
Heartbeat CPU 2 instructions: 370000001 cycles: 374535524 heartbeat IPC: 1.509 cumulative IPC: 0.8371 (Simulation time: 04 hr 32 min 38 sec)
Heartbeat CPU 3 instructions: 610000000 cycles: 378539032 heartbeat IPC: 1.356 cumulative IPC: 1.49 (Simulation time: 04 hr 35 min 37 sec)
Heartbeat CPU 2 instructions: 380000002 cycles: 381255130 heartbeat IPC: 1.488 cumulative IPC: 0.8492 (Simulation time: 04 hr 37 min 33 sec)
Heartbeat CPU 2 instructions: 390000000 cycles: 389687185 heartbeat IPC: 1.186 cumulative IPC: 0.8568 (Simulation time: 04 hr 43 min 10 sec)
Heartbeat CPU 0 instructions: 140000003 cycles: 390170056 heartbeat IPC: 0.2661 cumulative IPC: 0.2305 (Simulation time: 04 hr 43 min 31 sec)
Heartbeat CPU 2 instructions: 400000001 cycles: 395632511 heartbeat IPC: 1.682 cumulative IPC: 0.8698 (Simulation time: 04 hr 47 min 15 sec)
Heartbeat CPU 1 instructions: 200000002 cycles: 395683834 heartbeat IPC: 0.4318 cumulative IPC: 0.3976 (Simulation time: 04 hr 47 min 17 sec)
Simulation finished CPU 1 instructions: 150000003 cycles: 377275344 cumulative IPC: 0.3976 (Simulation time: 04 hr 47 min 17 sec)
Heartbeat CPU 3 instructions: 620000002 cycles: 419250167 heartbeat IPC: 0.2456 cumulative IPC: 1.363 (Simulation time: 05 hr 01 min 41 sec)
Heartbeat CPU 1 instructions: 210000003 cycles: 420123321 heartbeat IPC: 0.4092 cumulative IPC: 0.3983 (Simulation time: 05 hr 02 min 13 sec)
Heartbeat CPU 2 instructions: 410000000 cycles: 430730946 heartbeat IPC: 0.2849 cumulative IPC: 0.82 (Simulation time: 05 hr 08 min 26 sec)
Heartbeat CPU 0 instructions: 150000001 cycles: 443241752 heartbeat IPC: 0.1884 cumulative IPC: 0.2252 (Simulation time: 05 hr 15 min 24 sec)
Heartbeat CPU 1 instructions: 220000003 cycles: 458234319 heartbeat IPC: 0.2624 cumulative IPC: 0.3865 (Simulation time: 05 hr 23 min 46 sec)
Heartbeat CPU 3 instructions: 630000003 cycles: 475470059 heartbeat IPC: 0.1779 cumulative IPC: 1.217 (Simulation time: 05 hr 33 min 53 sec)
Heartbeat CPU 2 instructions: 420000002 cycles: 475988866 heartbeat IPC: 0.221 cumulative IPC: 0.7608 (Simulation time: 05 hr 34 min 15 sec)
Heartbeat CPU 2 instructions: 430000002 cycles: 482842686 heartbeat IPC: 1.459 cumulative IPC: 0.7711 (Simulation time: 05 hr 38 min 58 sec)
Heartbeat CPU 2 instructions: 440000003 cycles: 487196082 heartbeat IPC: 2.297 cumulative IPC: 0.7853 (Simulation time: 05 hr 42 min 12 sec)
Heartbeat CPU 1 instructions: 230000002 cycles: 487810543 heartbeat IPC: 0.3381 cumulative IPC: 0.3835 (Simulation time: 05 hr 42 min 37 sec)
Heartbeat CPU 2 instructions: 450000002 cycles: 491911387 heartbeat IPC: 2.121 cumulative IPC: 0.7986 (Simulation time: 05 hr 45 min 37 sec)
Heartbeat CPU 2 instructions: 460000001 cycles: 498128561 heartbeat IPC: 1.608 cumulative IPC: 0.809 (Simulation time: 05 hr 50 min 04 sec)
Heartbeat CPU 0 instructions: 160000003 cycles: 500269160 heartbeat IPC: 0.1754 cumulative IPC: 0.2193 (Simulation time: 05 hr 51 min 32 sec)
Heartbeat CPU 2 instructions: 470000000 cycles: 504828386 heartbeat IPC: 1.493 cumulative IPC: 0.8185 (Simulation time: 05 hr 54 min 44 sec)
Heartbeat CPU 3 instructions: 640000003 cycles: 508994607 heartbeat IPC: 0.2983 cumulative IPC: 1.155 (Simulation time: 05 hr 57 min 40 sec)
Heartbeat CPU 1 instructions: 240000003 cycles: 512277144 heartbeat IPC: 0.4087 cumulative IPC: 0.3847 (Simulation time: 05 hr 59 min 50 sec)
Heartbeat CPU 2 instructions: 480000000 cycles: 512330310 heartbeat IPC: 1.333 cumulative IPC: 0.8263 (Simulation time: 05 hr 59 min 52 sec)
Heartbeat CPU 2 instructions: 490000001 cycles: 521094557 heartbeat IPC: 1.141 cumulative IPC: 0.8318 (Simulation time: 06 hr 05 min 50 sec)
Heartbeat CPU 2 instructions: 500000000 cycles: 526845342 heartbeat IPC: 1.739 cumulative IPC: 0.842 (Simulation time: 06 hr 09 min 54 sec)
Heartbeat CPU 1 instructions: 250000003 cycles: 536121455 heartbeat IPC: 0.4194 cumulative IPC: 0.3863 (Simulation time: 06 hr 15 min 42 sec)
Heartbeat CPU 0 instructions: 170000004 cycles: 543102046 heartbeat IPC: 0.2335 cumulative IPC: 0.2205 (Simulation time: 06 hr 19 min 54 sec)
Heartbeat CPU 3 instructions: 650000001 cycles: 548278947 heartbeat IPC: 0.2546 cumulative IPC: 1.088 (Simulation time: 06 hr 23 min 12 sec)
Heartbeat CPU 2 instructions: 510000000 cycles: 554413992 heartbeat IPC: 0.3627 cumulative IPC: 0.8174 (Simulation time: 06 hr 27 min 21 sec)
Heartbeat CPU 1 instructions: 260000003 cycles: 560582929 heartbeat IPC: 0.4088 cumulative IPC: 0.3873 (Simulation time: 06 hr 31 min 04 sec)
Heartbeat CPU 3 instructions: 660000002 cycles: 562971783 heartbeat IPC: 0.6806 cumulative IPC: 1.077 (Simulation time: 06 hr 32 min 26 sec)
Heartbeat CPU 1 instructions: 270000000 cycles: 598206831 heartbeat IPC: 0.2658 cumulative IPC: 0.3794 (Simulation time: 06 hr 52 min 33 sec)
Heartbeat CPU 3 instructions: 670000002 cycles: 600984084 heartbeat IPC: 0.2631 cumulative IPC: 1.024 (Simulation time: 06 hr 54 min 13 sec)
Heartbeat CPU 0 instructions: 180000002 cycles: 605612340 heartbeat IPC: 0.16 cumulative IPC: 0.214 (Simulation time: 06 hr 57 min 02 sec)
Heartbeat CPU 2 instructions: 520000003 cycles: 605992373 heartbeat IPC: 0.1939 cumulative IPC: 0.7626 (Simulation time: 06 hr 57 min 17 sec)
Heartbeat CPU 2 instructions: 530000003 cycles: 612750036 heartbeat IPC: 1.48 cumulative IPC: 0.7708 (Simulation time: 07 hr 01 min 46 sec)
Heartbeat CPU 2 instructions: 540000001 cycles: 616797570 heartbeat IPC: 2.471 cumulative IPC: 0.7823 (Simulation time: 07 hr 04 min 46 sec)
Heartbeat CPU 2 instructions: 550000001 cycles: 621663792 heartbeat IPC: 2.055 cumulative IPC: 0.7926 (Simulation time: 07 hr 08 min 16 sec)
Heartbeat CPU 1 instructions: 280000002 cycles: 625284018 heartbeat IPC: 0.3693 cumulative IPC: 0.379 (Simulation time: 07 hr 10 min 50 sec)
Heartbeat CPU 2 instructions: 560000000 cycles: 627619475 heartbeat IPC: 1.679 cumulative IPC: 0.8012 (Simulation time: 07 hr 12 min 25 sec)
Heartbeat CPU 2 instructions: 570000004 cycles: 635479336 heartbeat IPC: 1.272 cumulative IPC: 0.8072 (Simulation time: 07 hr 17 min 28 sec)
Heartbeat CPU 2 instructions: 580000003 cycles: 643542099 heartbeat IPC: 1.24 cumulative IPC: 0.8128 (Simulation time: 07 hr 22 min 30 sec)
Heartbeat CPU 1 instructions: 290000001 cycles: 651079201 heartbeat IPC: 0.3877 cumulative IPC: 0.3793 (Simulation time: 07 hr 27 min 01 sec)
Heartbeat CPU 2 instructions: 590000000 cycles: 652569599 heartbeat IPC: 1.108 cumulative IPC: 0.817 (Simulation time: 07 hr 27 min 59 sec)
Heartbeat CPU 0 instructions: 190000000 cycles: 652569614 heartbeat IPC: 0.213 cumulative IPC: 0.214 (Simulation time: 07 hr 27 min 59 sec)
Heartbeat CPU 3 instructions: 680000000 cycles: 657171577 heartbeat IPC: 0.178 cumulative IPC: 0.9494 (Simulation time: 07 hr 31 min 08 sec)
Heartbeat CPU 2 instructions: 600000000 cycles: 658234828 heartbeat IPC: 1.765 cumulative IPC: 0.8254 (Simulation time: 07 hr 31 min 57 sec)
Heartbeat CPU 3 instructions: 690000001 cycles: 670945222 heartbeat IPC: 0.726 cumulative IPC: 0.9447 (Simulation time: 07 hr 39 min 53 sec)
Heartbeat CPU 1 instructions: 300000000 cycles: 672809245 heartbeat IPC: 0.4602 cumulative IPC: 0.382 (Simulation time: 07 hr 41 min 00 sec)
Heartbeat CPU 2 instructions: 610000003 cycles: 681253855 heartbeat IPC: 0.4344 cumulative IPC: 0.8118 (Simulation time: 07 hr 46 min 25 sec)
Heartbeat CPU 3 instructions: 700000003 cycles: 689980212 heartbeat IPC: 0.5253 cumulative IPC: 0.9328 (Simulation time: 07 hr 51 min 30 sec)
Heartbeat CPU 0 instructions: 200000001 cycles: 696409225 heartbeat IPC: 0.2281 cumulative IPC: 0.2149 (Simulation time: 07 hr 55 min 07 sec)
Heartbeat CPU 1 instructions: 310000003 cycles: 701312673 heartbeat IPC: 0.3508 cumulative IPC: 0.3807 (Simulation time: 07 hr 57 min 48 sec)
Heartbeat CPU 3 instructions: 710000001 cycles: 722981361 heartbeat IPC: 0.303 cumulative IPC: 0.9033 (Simulation time: 08 hr 09 min 37 sec)
Simulation finished CPU 0 instructions: 150000003 cycles: 708266582 cumulative IPC: 0.2118 (Simulation time: 08 hr 11 min 41 sec)
Simulation complete CPU 0 instructions: 150000003 cycles: 708266582 cumulative IPC: 0.2118 (Simulation time: 08 hr 11 min 41 sec)
Simulation complete CPU 1 instructions: 266805977 cycles: 708266582 cumulative IPC: 0.3767 (Simulation time: 08 hr 11 min 41 sec)
Simulation complete CPU 2 instructions: 543185502 cycles: 708266582 cumulative IPC: 0.7669 (Simulation time: 08 hr 11 min 41 sec)
Simulation complete CPU 3 instructions: 637664379 cycles: 708266582 cumulative IPC: 0.9003 (Simulation time: 08 hr 11 min 41 sec)

ChampSim completed all CPUs

=== Simulation ===
CPU 0 runs /home/grads/r/rdas40/dpc3_traces/619.lbm_s-4268B.champsimtrace.xzCPU 1 runs /home/grads/r/rdas40/dpc3_traces/607.cactuBSSN_s-2421B.champsimtrace.xzCPU 2 runs /home/grads/r/rdas40/dpc3_traces/627.cam4_s-573B.champsimtrace.xzCPU 3 runs /home/grads/r/rdas40/dpc3_traces/621.wrf_s-575B.champsimtrace.xz
Total Simulation Statistics (not including warmup)

CPU 0 cumulative IPC: 0.2118 instructions: 150000003 cycles: 708266582
CPU 0 Branch Prediction Accuracy: 97.11% MPKI: 0.5214 Average ROB Occupancy at Mispredict: 242.7
Branch type MPKI
BRANCH_DIRECT_JUMP: 0
BRANCH_INDIRECT: 0
BRANCH_CONDITIONAL: 0.521
BRANCH_DIRECT_CALL: 0
BRANCH_INDIRECT_CALL: 0
BRANCH_RETURN: 0


CPU 1 cumulative IPC: 0.3767 instructions: 266805977 cycles: 708266582
CPU 1 Branch Prediction Accuracy: 98.65% MPKI: 0.01808 Average ROB Occupancy at Mispredict: 128.4
Branch type MPKI
BRANCH_DIRECT_JUMP: 0.000112
BRANCH_INDIRECT: 0.000319
BRANCH_CONDITIONAL: 0.011
BRANCH_DIRECT_CALL: 0.00232
BRANCH_INDIRECT_CALL: 1.12e-05
BRANCH_RETURN: 0.00435


CPU 2 cumulative IPC: 0.7669 instructions: 543185502 cycles: 708266582
CPU 2 Branch Prediction Accuracy: 94.69% MPKI: 7.143 Average ROB Occupancy at Mispredict: 66.65
Branch type MPKI
BRANCH_DIRECT_JUMP: 0.00567
BRANCH_INDIRECT: 0.00166
BRANCH_CONDITIONAL: 6.48
BRANCH_DIRECT_CALL: 0.0196
BRANCH_INDIRECT_CALL: 0
BRANCH_RETURN: 0.632


CPU 3 cumulative IPC: 0.9003 instructions: 637664379 cycles: 708266582
CPU 3 Branch Prediction Accuracy: 95.4% MPKI: 5.921 Average ROB Occupancy at Mispredict: 102.5
Branch type MPKI
BRANCH_DIRECT_JUMP: 0.000444
BRANCH_INDIRECT: 2.2e-05
BRANCH_CONDITIONAL: 5.48
BRANCH_DIRECT_CALL: 0.00284
BRANCH_INDIRECT_CALL: 0
BRANCH_RETURN: 0.439

LLC TOTAL        ACCESS:   12998299 HIT:    5718774 MISS:    7279525
LLC LOAD         ACCESS:     340276 HIT:        603 MISS:     339673
LLC RFO          ACCESS:    5114793 HIT:     148254 MISS:    4966539
LLC PREFETCH     ACCESS:    2031637 HIT:      59150 MISS:    1972487
LLC WRITE        ACCESS:    5510782 HIT:    5510728 MISS:         54
LLC TRANSLATION  ACCESS:        811 HIT:         39 MISS:        772
LLC PREFETCH REQUESTED:          0 ISSUED:          0 USEFUL:          0 USELESS:          0
LLC AVERAGE MISS LATENCY: 2859 cycles
LLC TOTAL        ACCESS:    3091518 HIT:     994907 MISS:    2096611
LLC LOAD         ACCESS:    2778906 HIT:     710298 MISS:    2068608
LLC RFO          ACCESS:       7361 HIT:       6253 MISS:       1108
LLC PREFETCH     ACCESS:         61 HIT:         14 MISS:         47
LLC WRITE        ACCESS:     264553 HIT:     264220 MISS:        333
LLC TRANSLATION  ACCESS:      40637 HIT:      14122 MISS:      26515
LLC PREFETCH REQUESTED:          0 ISSUED:          0 USEFUL:          0 USELESS:          0
LLC AVERAGE MISS LATENCY: 2859 cycles
LLC TOTAL        ACCESS:    6462685 HIT:    3025614 MISS:    3437071
LLC LOAD         ACCESS:     357478 HIT:      58607 MISS:     298871
LLC RFO          ACCESS:    2916364 HIT:      54525 MISS:    2861839
LLC PREFETCH     ACCESS:     216648 HIT:      38740 MISS:     177908
LLC WRITE        ACCESS:    2962653 HIT:    2873227 MISS:      89426
LLC TRANSLATION  ACCESS:       9542 HIT:        515 MISS:       9027
LLC PREFETCH REQUESTED:          0 ISSUED:          0 USEFUL:          0 USELESS:          0
LLC AVERAGE MISS LATENCY: 2859 cycles
LLC TOTAL        ACCESS:    3925143 HIT:    1831254 MISS:    2093889
LLC LOAD         ACCESS:     597782 HIT:     247255 MISS:     350527
LLC RFO          ACCESS:     770200 HIT:     142894 MISS:     627306
LLC PREFETCH     ACCESS:    1322894 HIT:     254164 MISS:    1068730
LLC WRITE        ACCESS:    1229719 HIT:    1185362 MISS:      44357
LLC TRANSLATION  ACCESS:       4548 HIT:       1579 MISS:       2969
LLC PREFETCH REQUESTED:          0 ISSUED:          0 USEFUL:          0 USELESS:          0
LLC AVERAGE MISS LATENCY: 2859 cycles
cpu0_DTLB TOTAL        ACCESS:   24087176 HIT:   23752726 MISS:     334450
cpu0_DTLB LOAD         ACCESS:   24087176 HIT:   23752726 MISS:     334450
cpu0_DTLB RFO          ACCESS:          0 HIT:          0 MISS:          0
cpu0_DTLB PREFETCH     ACCESS:          0 HIT:          0 MISS:          0
cpu0_DTLB WRITE        ACCESS:          0 HIT:          0 MISS:          0
cpu0_DTLB TRANSLATION  ACCESS:          0 HIT:          0 MISS:          0
cpu0_DTLB PREFETCH REQUESTED:          0 ISSUED:          0 USEFUL:          0 USELESS:          0
cpu0_DTLB AVERAGE MISS LATENCY: 51.21 cycles
cpu0_DTLB TOTAL        ACCESS:          0 HIT:          0 MISS:          0
cpu0_DTLB LOAD         ACCESS:          0 HIT:          0 MISS:          0
cpu0_DTLB RFO          ACCESS:          0 HIT:          0 MISS:          0
cpu0_DTLB PREFETCH     ACCESS:          0 HIT:          0 MISS:          0
cpu0_DTLB WRITE        ACCESS:          0 HIT:          0 MISS:          0
cpu0_DTLB TRANSLATION  ACCESS:          0 HIT:          0 MISS:          0
cpu0_DTLB PREFETCH REQUESTED:          0 ISSUED:          0 USEFUL:          0 USELESS:          0
cpu0_DTLB AVERAGE MISS LATENCY: 51.21 cycles
cpu0_DTLB TOTAL        ACCESS:          0 HIT:          0 MISS:          0
cpu0_DTLB LOAD         ACCESS:          0 HIT:          0 MISS:          0
cpu0_DTLB RFO          ACCESS:          0 HIT:          0 MISS:          0
cpu0_DTLB PREFETCH     ACCESS:          0 HIT:          0 MISS:          0
cpu0_DTLB WRITE        ACCESS:          0 HIT:          0 MISS:          0
cpu0_DTLB TRANSLATION  ACCESS:          0 HIT:          0 MISS:          0
cpu0_DTLB PREFETCH REQUESTED:          0 ISSUED:          0 USEFUL:          0 USELESS:          0
cpu0_DTLB AVERAGE MISS LATENCY: 51.21 cycles
cpu0_DTLB TOTAL        ACCESS:          0 HIT:          0 MISS:          0
cpu0_DTLB LOAD         ACCESS:          0 HIT:          0 MISS:          0
cpu0_DTLB RFO          ACCESS:          0 HIT:          0 MISS:          0
cpu0_DTLB PREFETCH     ACCESS:          0 HIT:          0 MISS:          0
cpu0_DTLB WRITE        ACCESS:          0 HIT:          0 MISS:          0
cpu0_DTLB TRANSLATION  ACCESS:          0 HIT:          0 MISS:          0
cpu0_DTLB PREFETCH REQUESTED:          0 ISSUED:          0 USEFUL:          0 USELESS:          0
cpu0_DTLB AVERAGE MISS LATENCY: 51.21 cycles
cpu0_ITLB TOTAL        ACCESS:          0 HIT:          0 MISS:          0
cpu0_ITLB LOAD         ACCESS:          0 HIT:          0 MISS:          0
cpu0_ITLB RFO          ACCESS:          0 HIT:          0 MISS:          0
cpu0_ITLB PREFETCH     ACCESS:          0 HIT:          0 MISS:          0
cpu0_ITLB WRITE        ACCESS:          0 HIT:          0 MISS:          0
cpu0_ITLB TRANSLATION  ACCESS:          0 HIT:          0 MISS:          0
cpu0_ITLB PREFETCH REQUESTED:          0 ISSUED:          0 USEFUL:          0 USELESS:          0
cpu0_ITLB AVERAGE MISS LATENCY: -nan cycles
cpu0_ITLB TOTAL        ACCESS:          0 HIT:          0 MISS:          0
cpu0_ITLB LOAD         ACCESS:          0 HIT:          0 MISS:          0
cpu0_ITLB RFO          ACCESS:          0 HIT:          0 MISS:          0
cpu0_ITLB PREFETCH     ACCESS:          0 HIT:          0 MISS:          0
cpu0_ITLB WRITE        ACCESS:          0 HIT:          0 MISS:          0
cpu0_ITLB TRANSLATION  ACCESS:          0 HIT:          0 MISS:          0
cpu0_ITLB PREFETCH REQUESTED:          0 ISSUED:          0 USEFUL:          0 USELESS:          0
cpu0_ITLB AVERAGE MISS LATENCY: -nan cycles
cpu0_ITLB TOTAL        ACCESS:          0 HIT:          0 MISS:          0
cpu0_ITLB LOAD         ACCESS:          0 HIT:          0 MISS:          0
cpu0_ITLB RFO          ACCESS:          0 HIT:          0 MISS:          0
cpu0_ITLB PREFETCH     ACCESS:          0 HIT:          0 MISS:          0
cpu0_ITLB WRITE        ACCESS:          0 HIT:          0 MISS:          0
cpu0_ITLB TRANSLATION  ACCESS:          0 HIT:          0 MISS:          0
cpu0_ITLB PREFETCH REQUESTED:          0 ISSUED:          0 USEFUL:          0 USELESS:          0
cpu0_ITLB AVERAGE MISS LATENCY: -nan cycles
cpu0_ITLB TOTAL        ACCESS:          0 HIT:          0 MISS:          0
cpu0_ITLB LOAD         ACCESS:          0 HIT:          0 MISS:          0
cpu0_ITLB RFO          ACCESS:          0 HIT:          0 MISS:          0
cpu0_ITLB PREFETCH     ACCESS:          0 HIT:          0 MISS:          0
cpu0_ITLB WRITE        ACCESS:          0 HIT:          0 MISS:          0
cpu0_ITLB TRANSLATION  ACCESS:          0 HIT:          0 MISS:          0
cpu0_ITLB PREFETCH REQUESTED:          0 ISSUED:          0 USEFUL:          0 USELESS:          0
cpu0_ITLB AVERAGE MISS LATENCY: -nan cycles
cpu0_L1D TOTAL        ACCESS:   39551548 HIT:   20992111 MISS:   18559437
cpu0_L1D LOAD         ACCESS:    5222549 HIT:    3445900 MISS:    1776649
cpu0_L1D RFO          ACCESS:          0 HIT:          0 MISS:          0
cpu0_L1D PREFETCH     ACCESS:    6706551 HIT:    1195705 MISS:    5510846
cpu0_L1D WRITE        ACCESS:   27510088 HIT:   16350292 MISS:   11159796
cpu0_L1D TRANSLATION  ACCESS:     112360 HIT:        214 MISS:     112146
cpu0_L1D PREFETCH REQUESTED:  116411799 ISSUED:    6706522 USEFUL:     470076 USELESS:     103135
cpu0_L1D AVERAGE MISS LATENCY: 686.3 cycles
cpu0_L1D TOTAL        ACCESS:          0 HIT:          0 MISS:          0
cpu0_L1D LOAD         ACCESS:          0 HIT:          0 MISS:          0
cpu0_L1D RFO          ACCESS:          0 HIT:          0 MISS:          0
cpu0_L1D PREFETCH     ACCESS:          0 HIT:          0 MISS:          0
cpu0_L1D WRITE        ACCESS:          0 HIT:          0 MISS:          0
cpu0_L1D TRANSLATION  ACCESS:          0 HIT:          0 MISS:          0
cpu0_L1D PREFETCH REQUESTED:  116411799 ISSUED:    6706522 USEFUL:     470076 USELESS:     103135
cpu0_L1D AVERAGE MISS LATENCY: 686.3 cycles
cpu0_L1D TOTAL        ACCESS:          0 HIT:          0 MISS:          0
cpu0_L1D LOAD         ACCESS:          0 HIT:          0 MISS:          0
cpu0_L1D RFO          ACCESS:          0 HIT:          0 MISS:          0
cpu0_L1D PREFETCH     ACCESS:          0 HIT:          0 MISS:          0
cpu0_L1D WRITE        ACCESS:          0 HIT:          0 MISS:          0
cpu0_L1D TRANSLATION  ACCESS:          0 HIT:          0 MISS:          0
cpu0_L1D PREFETCH REQUESTED:  116411799 ISSUED:    6706522 USEFUL:     470076 USELESS:     103135
cpu0_L1D AVERAGE MISS LATENCY: 686.3 cycles
cpu0_L1D TOTAL        ACCESS:          0 HIT:          0 MISS:          0
cpu0_L1D LOAD         ACCESS:          0 HIT:          0 MISS:          0
cpu0_L1D RFO          ACCESS:          0 HIT:          0 MISS:          0
cpu0_L1D PREFETCH     ACCESS:          0 HIT:          0 MISS:          0
cpu0_L1D WRITE        ACCESS:          0 HIT:          0 MISS:          0
cpu0_L1D TRANSLATION  ACCESS:          0 HIT:          0 MISS:          0
cpu0_L1D PREFETCH REQUESTED:  116411799 ISSUED:    6706522 USEFUL:     470076 USELESS:     103135
cpu0_L1D AVERAGE MISS LATENCY: 686.3 cycles
cpu0_L1I TOTAL        ACCESS:          0 HIT:          0 MISS:          0
cpu0_L1I LOAD         ACCESS:          0 HIT:          0 MISS:          0
cpu0_L1I RFO          ACCESS:          0 HIT:          0 MISS:          0
cpu0_L1I PREFETCH     ACCESS:          0 HIT:          0 MISS:          0
cpu0_L1I WRITE        ACCESS:          0 HIT:          0 MISS:          0
cpu0_L1I TRANSLATION  ACCESS:          0 HIT:          0 MISS:          0
cpu0_L1I PREFETCH REQUESTED:          0 ISSUED:          0 USEFUL:          0 USELESS:          0
cpu0_L1I AVERAGE MISS LATENCY: -nan cycles
cpu0_L1I TOTAL        ACCESS:          0 HIT:          0 MISS:          0
cpu0_L1I LOAD         ACCESS:          0 HIT:          0 MISS:          0
cpu0_L1I RFO          ACCESS:          0 HIT:          0 MISS:          0
cpu0_L1I PREFETCH     ACCESS:          0 HIT:          0 MISS:          0
cpu0_L1I WRITE        ACCESS:          0 HIT:          0 MISS:          0
cpu0_L1I TRANSLATION  ACCESS:          0 HIT:          0 MISS:          0
cpu0_L1I PREFETCH REQUESTED:          0 ISSUED:          0 USEFUL:          0 USELESS:          0
cpu0_L1I AVERAGE MISS LATENCY: -nan cycles
cpu0_L1I TOTAL        ACCESS:          0 HIT:          0 MISS:          0
cpu0_L1I LOAD         ACCESS:          0 HIT:          0 MISS:          0
cpu0_L1I RFO          ACCESS:          0 HIT:          0 MISS:          0
cpu0_L1I PREFETCH     ACCESS:          0 HIT:          0 MISS:          0
cpu0_L1I WRITE        ACCESS:          0 HIT:          0 MISS:          0
cpu0_L1I TRANSLATION  ACCESS:          0 HIT:          0 MISS:          0
cpu0_L1I PREFETCH REQUESTED:          0 ISSUED:          0 USEFUL:          0 USELESS:          0
cpu0_L1I AVERAGE MISS LATENCY: -nan cycles
cpu0_L1I TOTAL        ACCESS:          0 HIT:          0 MISS:          0
cpu0_L1I LOAD         ACCESS:          0 HIT:          0 MISS:          0
cpu0_L1I RFO          ACCESS:          0 HIT:          0 MISS:          0
cpu0_L1I PREFETCH     ACCESS:          0 HIT:          0 MISS:          0
cpu0_L1I WRITE        ACCESS:          0 HIT:          0 MISS:          0
cpu0_L1I TRANSLATION  ACCESS:          0 HIT:          0 MISS:          0
cpu0_L1I PREFETCH REQUESTED:          0 ISSUED:          0 USEFUL:          0 USELESS:          0
cpu0_L1I AVERAGE MISS LATENCY: -nan cycles
cpu0_L2C TOTAL        ACCESS:   26836167 HIT:   17510687 MISS:    9325480
cpu0_L2C LOAD         ACCESS:    1329091 HIT:     799922 MISS:     529169
cpu0_L2C RFO          ACCESS:   10138246 HIT:    5000612 MISS:    5137634
cpu0_L2C PREFETCH     ACCESS:    5114121 HIT:    1456267 MISS:    3657854
cpu0_L2C WRITE        ACCESS:   10142563 HIT:   10142551 MISS:         12
cpu0_L2C TRANSLATION  ACCESS:     112146 HIT:     111335 MISS:        811
cpu0_L2C PREFETCH REQUESTED:          0 ISSUED:          0 USEFUL:          0 USELESS:          0
cpu0_L2C AVERAGE MISS LATENCY: 1882 cycles
cpu0_L2C TOTAL        ACCESS:          0 HIT:          0 MISS:          0
cpu0_L2C LOAD         ACCESS:          0 HIT:          0 MISS:          0
cpu0_L2C RFO          ACCESS:          0 HIT:          0 MISS:          0
cpu0_L2C PREFETCH     ACCESS:          0 HIT:          0 MISS:          0
cpu0_L2C WRITE        ACCESS:          0 HIT:          0 MISS:          0
cpu0_L2C TRANSLATION  ACCESS:          0 HIT:          0 MISS:          0
cpu0_L2C PREFETCH REQUESTED:          0 ISSUED:          0 USEFUL:          0 USELESS:          0
cpu0_L2C AVERAGE MISS LATENCY: 1882 cycles
cpu0_L2C TOTAL        ACCESS:          0 HIT:          0 MISS:          0
cpu0_L2C LOAD         ACCESS:          0 HIT:          0 MISS:          0
cpu0_L2C RFO          ACCESS:          0 HIT:          0 MISS:          0
cpu0_L2C PREFETCH     ACCESS:          0 HIT:          0 MISS:          0
cpu0_L2C WRITE        ACCESS:          0 HIT:          0 MISS:          0
cpu0_L2C TRANSLATION  ACCESS:          0 HIT:          0 MISS:          0
cpu0_L2C PREFETCH REQUESTED:          0 ISSUED:          0 USEFUL:          0 USELESS:          0
cpu0_L2C AVERAGE MISS LATENCY: 1882 cycles
cpu0_L2C TOTAL        ACCESS:          0 HIT:          0 MISS:          0
cpu0_L2C LOAD         ACCESS:          0 HIT:          0 MISS:          0
cpu0_L2C RFO          ACCESS:          0 HIT:          0 MISS:          0
cpu0_L2C PREFETCH     ACCESS:          0 HIT:          0 MISS:          0
cpu0_L2C WRITE        ACCESS:          0 HIT:          0 MISS:          0
cpu0_L2C TRANSLATION  ACCESS:          0 HIT:          0 MISS:          0
cpu0_L2C PREFETCH REQUESTED:          0 ISSUED:          0 USEFUL:          0 USELESS:          0
cpu0_L2C AVERAGE MISS LATENCY: 1882 cycles
cpu0_STLB TOTAL        ACCESS:     206876 HIT:      94625 MISS:     112251
cpu0_STLB LOAD         ACCESS:     206876 HIT:      94625 MISS:     112251
cpu0_STLB RFO          ACCESS:          0 HIT:          0 MISS:          0
cpu0_STLB PREFETCH     ACCESS:          0 HIT:          0 MISS:          0
cpu0_STLB WRITE        ACCESS:          0 HIT:          0 MISS:          0
cpu0_STLB TRANSLATION  ACCESS:          0 HIT:          0 MISS:          0
cpu0_STLB PREFETCH REQUESTED:          0 ISSUED:          0 USEFUL:          0 USELESS:          0
cpu0_STLB AVERAGE MISS LATENCY: 187.2 cycles
cpu0_STLB TOTAL        ACCESS:          0 HIT:          0 MISS:          0
cpu0_STLB LOAD         ACCESS:          0 HIT:          0 MISS:          0
cpu0_STLB RFO          ACCESS:          0 HIT:          0 MISS:          0
cpu0_STLB PREFETCH     ACCESS:          0 HIT:          0 MISS:          0
cpu0_STLB WRITE        ACCESS:          0 HIT:          0 MISS:          0
cpu0_STLB TRANSLATION  ACCESS:          0 HIT:          0 MISS:          0
cpu0_STLB PREFETCH REQUESTED:          0 ISSUED:          0 USEFUL:          0 USELESS:          0
cpu0_STLB AVERAGE MISS LATENCY: 187.2 cycles
cpu0_STLB TOTAL        ACCESS:          0 HIT:          0 MISS:          0
cpu0_STLB LOAD         ACCESS:          0 HIT:          0 MISS:          0
cpu0_STLB RFO          ACCESS:          0 HIT:          0 MISS:          0
cpu0_STLB PREFETCH     ACCESS:          0 HIT:          0 MISS:          0
cpu0_STLB WRITE        ACCESS:          0 HIT:          0 MISS:          0
cpu0_STLB TRANSLATION  ACCESS:          0 HIT:          0 MISS:          0
cpu0_STLB PREFETCH REQUESTED:          0 ISSUED:          0 USEFUL:          0 USELESS:          0
cpu0_STLB AVERAGE MISS LATENCY: 187.2 cycles
cpu0_STLB TOTAL        ACCESS:          0 HIT:          0 MISS:          0
cpu0_STLB LOAD         ACCESS:          0 HIT:          0 MISS:          0
cpu0_STLB RFO          ACCESS:          0 HIT:          0 MISS:          0
cpu0_STLB PREFETCH     ACCESS:          0 HIT:          0 MISS:          0
cpu0_STLB WRITE        ACCESS:          0 HIT:          0 MISS:          0
cpu0_STLB TRANSLATION  ACCESS:          0 HIT:          0 MISS:          0
cpu0_STLB PREFETCH REQUESTED:          0 ISSUED:          0 USEFUL:          0 USELESS:          0
cpu0_STLB AVERAGE MISS LATENCY: 187.2 cycles
cpu1_DTLB TOTAL        ACCESS:          0 HIT:          0 MISS:          0
cpu1_DTLB LOAD         ACCESS:          0 HIT:          0 MISS:          0
cpu1_DTLB RFO          ACCESS:          0 HIT:          0 MISS:          0
cpu1_DTLB PREFETCH     ACCESS:          0 HIT:          0 MISS:          0
cpu1_DTLB WRITE        ACCESS:          0 HIT:          0 MISS:          0
cpu1_DTLB TRANSLATION  ACCESS:          0 HIT:          0 MISS:          0
cpu1_DTLB PREFETCH REQUESTED:          0 ISSUED:          0 USEFUL:          0 USELESS:          0
cpu1_DTLB AVERAGE MISS LATENCY: 9.539 cycles
cpu1_DTLB TOTAL        ACCESS:   56357064 HIT:   33205471 MISS:   23151593
cpu1_DTLB LOAD         ACCESS:   56357064 HIT:   33205471 MISS:   23151593
cpu1_DTLB RFO          ACCESS:          0 HIT:          0 MISS:          0
cpu1_DTLB PREFETCH     ACCESS:          0 HIT:          0 MISS:          0
cpu1_DTLB WRITE        ACCESS:          0 HIT:          0 MISS:          0
cpu1_DTLB TRANSLATION  ACCESS:          0 HIT:          0 MISS:          0
cpu1_DTLB PREFETCH REQUESTED:          0 ISSUED:          0 USEFUL:          0 USELESS:          0
cpu1_DTLB AVERAGE MISS LATENCY: 9.539 cycles
cpu1_DTLB TOTAL        ACCESS:          0 HIT:          0 MISS:          0
cpu1_DTLB LOAD         ACCESS:          0 HIT:          0 MISS:          0
cpu1_DTLB RFO          ACCESS:          0 HIT:          0 MISS:          0
cpu1_DTLB PREFETCH     ACCESS:          0 HIT:          0 MISS:          0
cpu1_DTLB WRITE        ACCESS:          0 HIT:          0 MISS:          0
cpu1_DTLB TRANSLATION  ACCESS:          0 HIT:          0 MISS:          0
cpu1_DTLB PREFETCH REQUESTED:          0 ISSUED:          0 USEFUL:          0 USELESS:          0
cpu1_DTLB AVERAGE MISS LATENCY: 9.539 cycles
cpu1_DTLB TOTAL        ACCESS:          0 HIT:          0 MISS:          0
cpu1_DTLB LOAD         ACCESS:          0 HIT:          0 MISS:          0
cpu1_DTLB RFO          ACCESS:          0 HIT:          0 MISS:          0
cpu1_DTLB PREFETCH     ACCESS:          0 HIT:          0 MISS:          0
cpu1_DTLB WRITE        ACCESS:          0 HIT:          0 MISS:          0
cpu1_DTLB TRANSLATION  ACCESS:          0 HIT:          0 MISS:          0
cpu1_DTLB PREFETCH REQUESTED:          0 ISSUED:          0 USEFUL:          0 USELESS:          0
cpu1_DTLB AVERAGE MISS LATENCY: 9.539 cycles
cpu1_ITLB TOTAL        ACCESS:          0 HIT:          0 MISS:          0
cpu1_ITLB LOAD         ACCESS:          0 HIT:          0 MISS:          0
cpu1_ITLB RFO          ACCESS:          0 HIT:          0 MISS:          0
cpu1_ITLB PREFETCH     ACCESS:          0 HIT:          0 MISS:          0
cpu1_ITLB WRITE        ACCESS:          0 HIT:          0 MISS:          0
cpu1_ITLB TRANSLATION  ACCESS:          0 HIT:          0 MISS:          0
cpu1_ITLB PREFETCH REQUESTED:          0 ISSUED:          0 USEFUL:          0 USELESS:          0
cpu1_ITLB AVERAGE MISS LATENCY: 706.3 cycles
cpu1_ITLB TOTAL        ACCESS:   34154397 HIT:   34154313 MISS:         84
cpu1_ITLB LOAD         ACCESS:   34154397 HIT:   34154313 MISS:         84
cpu1_ITLB RFO          ACCESS:          0 HIT:          0 MISS:          0
cpu1_ITLB PREFETCH     ACCESS:          0 HIT:          0 MISS:          0
cpu1_ITLB WRITE        ACCESS:          0 HIT:          0 MISS:          0
cpu1_ITLB TRANSLATION  ACCESS:          0 HIT:          0 MISS:          0
cpu1_ITLB PREFETCH REQUESTED:          0 ISSUED:          0 USEFUL:          0 USELESS:          0
cpu1_ITLB AVERAGE MISS LATENCY: 706.3 cycles
cpu1_ITLB TOTAL        ACCESS:          0 HIT:          0 MISS:          0
cpu1_ITLB LOAD         ACCESS:          0 HIT:          0 MISS:          0
cpu1_ITLB RFO          ACCESS:          0 HIT:          0 MISS:          0
cpu1_ITLB PREFETCH     ACCESS:          0 HIT:          0 MISS:          0
cpu1_ITLB WRITE        ACCESS:          0 HIT:          0 MISS:          0
cpu1_ITLB TRANSLATION  ACCESS:          0 HIT:          0 MISS:          0
cpu1_ITLB PREFETCH REQUESTED:          0 ISSUED:          0 USEFUL:          0 USELESS:          0
cpu1_ITLB AVERAGE MISS LATENCY: 706.3 cycles
cpu1_ITLB TOTAL        ACCESS:          0 HIT:          0 MISS:          0
cpu1_ITLB LOAD         ACCESS:          0 HIT:          0 MISS:          0
cpu1_ITLB RFO          ACCESS:          0 HIT:          0 MISS:          0
cpu1_ITLB PREFETCH     ACCESS:          0 HIT:          0 MISS:          0
cpu1_ITLB WRITE        ACCESS:          0 HIT:          0 MISS:          0
cpu1_ITLB TRANSLATION  ACCESS:          0 HIT:          0 MISS:          0
cpu1_ITLB PREFETCH REQUESTED:          0 ISSUED:          0 USEFUL:          0 USELESS:          0
cpu1_ITLB AVERAGE MISS LATENCY: 706.3 cycles
cpu1_L1D TOTAL        ACCESS:          0 HIT:          0 MISS:          0
cpu1_L1D LOAD         ACCESS:          0 HIT:          0 MISS:          0
cpu1_L1D RFO          ACCESS:          0 HIT:          0 MISS:          0
cpu1_L1D PREFETCH     ACCESS:          0 HIT:          0 MISS:          0
cpu1_L1D WRITE        ACCESS:          0 HIT:          0 MISS:          0
cpu1_L1D TRANSLATION  ACCESS:          0 HIT:          0 MISS:          0
cpu1_L1D PREFETCH REQUESTED:       2084 ISSUED:       1875 USEFUL:          9 USELESS:          8
cpu1_L1D AVERAGE MISS LATENCY: 279.2 cycles
cpu1_L1D TOTAL        ACCESS:   69521436 HIT:   38608786 MISS:   30912650
cpu1_L1D LOAD         ACCESS:   39054074 HIT:    9789812 MISS:   29264262
cpu1_L1D RFO          ACCESS:          0 HIT:          0 MISS:          0
cpu1_L1D PREFETCH     ACCESS:       1875 HIT:       1184 MISS:        691
cpu1_L1D WRITE        ACCESS:   30414820 HIT:   28817332 MISS:    1597488
cpu1_L1D TRANSLATION  ACCESS:      50667 HIT:        458 MISS:      50209
cpu1_L1D PREFETCH REQUESTED:       2084 ISSUED:       1875 USEFUL:          9 USELESS:          8
cpu1_L1D AVERAGE MISS LATENCY: 279.2 cycles
cpu1_L1D TOTAL        ACCESS:          0 HIT:          0 MISS:          0
cpu1_L1D LOAD         ACCESS:          0 HIT:          0 MISS:          0
cpu1_L1D RFO          ACCESS:          0 HIT:          0 MISS:          0
cpu1_L1D PREFETCH     ACCESS:          0 HIT:          0 MISS:          0
cpu1_L1D WRITE        ACCESS:          0 HIT:          0 MISS:          0
cpu1_L1D TRANSLATION  ACCESS:          0 HIT:          0 MISS:          0
cpu1_L1D PREFETCH REQUESTED:       2084 ISSUED:       1875 USEFUL:          9 USELESS:          8
cpu1_L1D AVERAGE MISS LATENCY: 279.2 cycles
cpu1_L1D TOTAL        ACCESS:          0 HIT:          0 MISS:          0
cpu1_L1D LOAD         ACCESS:          0 HIT:          0 MISS:          0
cpu1_L1D RFO          ACCESS:          0 HIT:          0 MISS:          0
cpu1_L1D PREFETCH     ACCESS:          0 HIT:          0 MISS:          0
cpu1_L1D WRITE        ACCESS:          0 HIT:          0 MISS:          0
cpu1_L1D TRANSLATION  ACCESS:          0 HIT:          0 MISS:          0
cpu1_L1D PREFETCH REQUESTED:       2084 ISSUED:       1875 USEFUL:          9 USELESS:          8
cpu1_L1D AVERAGE MISS LATENCY: 279.2 cycles
cpu1_L1I TOTAL        ACCESS:          0 HIT:          0 MISS:          0
cpu1_L1I LOAD         ACCESS:          0 HIT:          0 MISS:          0
cpu1_L1I RFO          ACCESS:          0 HIT:          0 MISS:          0
cpu1_L1I PREFETCH     ACCESS:          0 HIT:          0 MISS:          0
cpu1_L1I WRITE        ACCESS:          0 HIT:          0 MISS:          0
cpu1_L1I TRANSLATION  ACCESS:          0 HIT:          0 MISS:          0
cpu1_L1I PREFETCH REQUESTED:          0 ISSUED:          0 USEFUL:          0 USELESS:          0
cpu1_L1I AVERAGE MISS LATENCY: 23.01 cycles
cpu1_L1I TOTAL        ACCESS:   45057416 HIT:   44981196 MISS:      76220
cpu1_L1I LOAD         ACCESS:   45057416 HIT:   44981196 MISS:      76220
cpu1_L1I RFO          ACCESS:          0 HIT:          0 MISS:          0
cpu1_L1I PREFETCH     ACCESS:          0 HIT:          0 MISS:          0
cpu1_L1I WRITE        ACCESS:          0 HIT:          0 MISS:          0
cpu1_L1I TRANSLATION  ACCESS:          0 HIT:          0 MISS:          0
cpu1_L1I PREFETCH REQUESTED:          0 ISSUED:          0 USEFUL:          0 USELESS:          0
cpu1_L1I AVERAGE MISS LATENCY: 23.01 cycles
cpu1_L1I TOTAL        ACCESS:          0 HIT:          0 MISS:          0
cpu1_L1I LOAD         ACCESS:          0 HIT:          0 MISS:          0
cpu1_L1I RFO          ACCESS:          0 HIT:          0 MISS:          0
cpu1_L1I PREFETCH     ACCESS:          0 HIT:          0 MISS:          0
cpu1_L1I WRITE        ACCESS:          0 HIT:          0 MISS:          0
cpu1_L1I TRANSLATION  ACCESS:          0 HIT:          0 MISS:          0
cpu1_L1I PREFETCH REQUESTED:          0 ISSUED:          0 USEFUL:          0 USELESS:          0
cpu1_L1I AVERAGE MISS LATENCY: 23.01 cycles
cpu1_L1I TOTAL        ACCESS:          0 HIT:          0 MISS:          0
cpu1_L1I LOAD         ACCESS:          0 HIT:          0 MISS:          0
cpu1_L1I RFO          ACCESS:          0 HIT:          0 MISS:          0
cpu1_L1I PREFETCH     ACCESS:          0 HIT:          0 MISS:          0
cpu1_L1I WRITE        ACCESS:          0 HIT:          0 MISS:          0
cpu1_L1I TRANSLATION  ACCESS:          0 HIT:          0 MISS:          0
cpu1_L1I PREFETCH REQUESTED:          0 ISSUED:          0 USEFUL:          0 USELESS:          0
cpu1_L1I AVERAGE MISS LATENCY: 23.01 cycles
cpu1_L2C TOTAL        ACCESS:          0 HIT:          0 MISS:          0
cpu1_L2C LOAD         ACCESS:          0 HIT:          0 MISS:          0
cpu1_L2C RFO          ACCESS:          0 HIT:          0 MISS:          0
cpu1_L2C PREFETCH     ACCESS:          0 HIT:          0 MISS:          0
cpu1_L2C WRITE        ACCESS:          0 HIT:          0 MISS:          0
cpu1_L2C TRANSLATION  ACCESS:          0 HIT:          0 MISS:          0
cpu1_L2C PREFETCH REQUESTED:          0 ISSUED:          0 USEFUL:          0 USELESS:          0
cpu1_L2C AVERAGE MISS LATENCY: 2944 cycles
cpu1_L2C TOTAL        ACCESS:   32564738 HIT:   29737655 MISS:    2827083
cpu1_L2C LOAD         ACCESS:   29027127 HIT:   26248169 MISS:    2778958
cpu1_L2C RFO          ACCESS:    1174745 HIT:    1167344 MISS:       7401
cpu1_L2C PREFETCH     ACCESS:        690 HIT:        604 MISS:         86
cpu1_L2C WRITE        ACCESS:    2312030 HIT:    2312029 MISS:          1
cpu1_L2C TRANSLATION  ACCESS:      50146 HIT:       9509 MISS:      40637
cpu1_L2C PREFETCH REQUESTED:          0 ISSUED:          0 USEFUL:          0 USELESS:          0
cpu1_L2C AVERAGE MISS LATENCY: 2944 cycles
cpu1_L2C TOTAL        ACCESS:          0 HIT:          0 MISS:          0
cpu1_L2C LOAD         ACCESS:          0 HIT:          0 MISS:          0
cpu1_L2C RFO          ACCESS:          0 HIT:          0 MISS:          0
cpu1_L2C PREFETCH     ACCESS:          0 HIT:          0 MISS:          0
cpu1_L2C WRITE        ACCESS:          0 HIT:          0 MISS:          0
cpu1_L2C TRANSLATION  ACCESS:          0 HIT:          0 MISS:          0
cpu1_L2C PREFETCH REQUESTED:          0 ISSUED:          0 USEFUL:          0 USELESS:          0
cpu1_L2C AVERAGE MISS LATENCY: 2944 cycles
cpu1_L2C TOTAL        ACCESS:          0 HIT:          0 MISS:          0
cpu1_L2C LOAD         ACCESS:          0 HIT:          0 MISS:          0
cpu1_L2C RFO          ACCESS:          0 HIT:          0 MISS:          0
cpu1_L2C PREFETCH     ACCESS:          0 HIT:          0 MISS:          0
cpu1_L2C WRITE        ACCESS:          0 HIT:          0 MISS:          0
cpu1_L2C TRANSLATION  ACCESS:          0 HIT:          0 MISS:          0
cpu1_L2C PREFETCH REQUESTED:          0 ISSUED:          0 USEFUL:          0 USELESS:          0
cpu1_L2C AVERAGE MISS LATENCY: 2944 cycles
cpu1_STLB TOTAL        ACCESS:          0 HIT:          0 MISS:          0
cpu1_STLB LOAD         ACCESS:          0 HIT:          0 MISS:          0
cpu1_STLB RFO          ACCESS:          0 HIT:          0 MISS:          0
cpu1_STLB PREFETCH     ACCESS:          0 HIT:          0 MISS:          0
cpu1_STLB WRITE        ACCESS:          0 HIT:          0 MISS:          0
cpu1_STLB TRANSLATION  ACCESS:          0 HIT:          0 MISS:          0
cpu1_STLB PREFETCH REQUESTED:          0 ISSUED:          0 USEFUL:          0 USELESS:          0
cpu1_STLB AVERAGE MISS LATENCY: 2691 cycles
cpu1_STLB TOTAL        ACCESS:   20054672 HIT:   20022152 MISS:      32520
cpu1_STLB LOAD         ACCESS:   20054672 HIT:   20022152 MISS:      32520
cpu1_STLB RFO          ACCESS:          0 HIT:          0 MISS:          0
cpu1_STLB PREFETCH     ACCESS:          0 HIT:          0 MISS:          0
cpu1_STLB WRITE        ACCESS:          0 HIT:          0 MISS:          0
cpu1_STLB TRANSLATION  ACCESS:          0 HIT:          0 MISS:          0
cpu1_STLB PREFETCH REQUESTED:          0 ISSUED:          0 USEFUL:          0 USELESS:          0
cpu1_STLB AVERAGE MISS LATENCY: 2691 cycles
cpu1_STLB TOTAL        ACCESS:          0 HIT:          0 MISS:          0
cpu1_STLB LOAD         ACCESS:          0 HIT:          0 MISS:          0
cpu1_STLB RFO          ACCESS:          0 HIT:          0 MISS:          0
cpu1_STLB PREFETCH     ACCESS:          0 HIT:          0 MISS:          0
cpu1_STLB WRITE        ACCESS:          0 HIT:          0 MISS:          0
cpu1_STLB TRANSLATION  ACCESS:          0 HIT:          0 MISS:          0
cpu1_STLB PREFETCH REQUESTED:          0 ISSUED:          0 USEFUL:          0 USELESS:          0
cpu1_STLB AVERAGE MISS LATENCY: 2691 cycles
cpu1_STLB TOTAL        ACCESS:          0 HIT:          0 MISS:          0
cpu1_STLB LOAD         ACCESS:          0 HIT:          0 MISS:          0
cpu1_STLB RFO          ACCESS:          0 HIT:          0 MISS:          0
cpu1_STLB PREFETCH     ACCESS:          0 HIT:          0 MISS:          0
cpu1_STLB WRITE        ACCESS:          0 HIT:          0 MISS:          0
cpu1_STLB TRANSLATION  ACCESS:          0 HIT:          0 MISS:          0
cpu1_STLB PREFETCH REQUESTED:          0 ISSUED:          0 USEFUL:          0 USELESS:          0
cpu1_STLB AVERAGE MISS LATENCY: 2691 cycles
cpu2_DTLB TOTAL        ACCESS:          0 HIT:          0 MISS:          0
cpu2_DTLB LOAD         ACCESS:          0 HIT:          0 MISS:          0
cpu2_DTLB RFO          ACCESS:          0 HIT:          0 MISS:          0
cpu2_DTLB PREFETCH     ACCESS:          0 HIT:          0 MISS:          0
cpu2_DTLB WRITE        ACCESS:          0 HIT:          0 MISS:          0
cpu2_DTLB TRANSLATION  ACCESS:          0 HIT:          0 MISS:          0
cpu2_DTLB PREFETCH REQUESTED:          0 ISSUED:          0 USEFUL:          0 USELESS:          0
cpu2_DTLB AVERAGE MISS LATENCY: 20.78 cycles
cpu2_DTLB TOTAL        ACCESS:          0 HIT:          0 MISS:          0
cpu2_DTLB LOAD         ACCESS:          0 HIT:          0 MISS:          0
cpu2_DTLB RFO          ACCESS:          0 HIT:          0 MISS:          0
cpu2_DTLB PREFETCH     ACCESS:          0 HIT:          0 MISS:          0
cpu2_DTLB WRITE        ACCESS:          0 HIT:          0 MISS:          0
cpu2_DTLB TRANSLATION  ACCESS:          0 HIT:          0 MISS:          0
cpu2_DTLB PREFETCH REQUESTED:          0 ISSUED:          0 USEFUL:          0 USELESS:          0
cpu2_DTLB AVERAGE MISS LATENCY: 20.78 cycles
cpu2_DTLB TOTAL        ACCESS:   79416472 HIT:   78575871 MISS:     840601
cpu2_DTLB LOAD         ACCESS:   79416472 HIT:   78575871 MISS:     840601
cpu2_DTLB RFO          ACCESS:          0 HIT:          0 MISS:          0
cpu2_DTLB PREFETCH     ACCESS:          0 HIT:          0 MISS:          0
cpu2_DTLB WRITE        ACCESS:          0 HIT:          0 MISS:          0
cpu2_DTLB TRANSLATION  ACCESS:          0 HIT:          0 MISS:          0
cpu2_DTLB PREFETCH REQUESTED:          0 ISSUED:          0 USEFUL:          0 USELESS:          0
cpu2_DTLB AVERAGE MISS LATENCY: 20.78 cycles
cpu2_DTLB TOTAL        ACCESS:          0 HIT:          0 MISS:          0
cpu2_DTLB LOAD         ACCESS:          0 HIT:          0 MISS:          0
cpu2_DTLB RFO          ACCESS:          0 HIT:          0 MISS:          0
cpu2_DTLB PREFETCH     ACCESS:          0 HIT:          0 MISS:          0
cpu2_DTLB WRITE        ACCESS:          0 HIT:          0 MISS:          0
cpu2_DTLB TRANSLATION  ACCESS:          0 HIT:          0 MISS:          0
cpu2_DTLB PREFETCH REQUESTED:          0 ISSUED:          0 USEFUL:          0 USELESS:          0
cpu2_DTLB AVERAGE MISS LATENCY: 20.78 cycles
cpu2_ITLB TOTAL        ACCESS:          0 HIT:          0 MISS:          0
cpu2_ITLB LOAD         ACCESS:          0 HIT:          0 MISS:          0
cpu2_ITLB RFO          ACCESS:          0 HIT:          0 MISS:          0
cpu2_ITLB PREFETCH     ACCESS:          0 HIT:          0 MISS:          0
cpu2_ITLB WRITE        ACCESS:          0 HIT:          0 MISS:          0
cpu2_ITLB TRANSLATION  ACCESS:          0 HIT:          0 MISS:          0
cpu2_ITLB PREFETCH REQUESTED:          0 ISSUED:          0 USEFUL:          0 USELESS:          0
cpu2_ITLB AVERAGE MISS LATENCY: 165.3 cycles
cpu2_ITLB TOTAL        ACCESS:          0 HIT:          0 MISS:          0
cpu2_ITLB LOAD         ACCESS:          0 HIT:          0 MISS:          0
cpu2_ITLB RFO          ACCESS:          0 HIT:          0 MISS:          0
cpu2_ITLB PREFETCH     ACCESS:          0 HIT:          0 MISS:          0
cpu2_ITLB WRITE        ACCESS:          0 HIT:          0 MISS:          0
cpu2_ITLB TRANSLATION  ACCESS:          0 HIT:          0 MISS:          0
cpu2_ITLB PREFETCH REQUESTED:          0 ISSUED:          0 USEFUL:          0 USELESS:          0
cpu2_ITLB AVERAGE MISS LATENCY: 165.3 cycles
cpu2_ITLB TOTAL        ACCESS:   11251618 HIT:   11238522 MISS:      13096
cpu2_ITLB LOAD         ACCESS:   11251618 HIT:   11238522 MISS:      13096
cpu2_ITLB RFO          ACCESS:          0 HIT:          0 MISS:          0
cpu2_ITLB PREFETCH     ACCESS:          0 HIT:          0 MISS:          0
cpu2_ITLB WRITE        ACCESS:          0 HIT:          0 MISS:          0
cpu2_ITLB TRANSLATION  ACCESS:          0 HIT:          0 MISS:          0
cpu2_ITLB PREFETCH REQUESTED:          0 ISSUED:          0 USEFUL:          0 USELESS:          0
cpu2_ITLB AVERAGE MISS LATENCY: 165.3 cycles
cpu2_ITLB TOTAL        ACCESS:          0 HIT:          0 MISS:          0
cpu2_ITLB LOAD         ACCESS:          0 HIT:          0 MISS:          0
cpu2_ITLB RFO          ACCESS:          0 HIT:          0 MISS:          0
cpu2_ITLB PREFETCH     ACCESS:          0 HIT:          0 MISS:          0
cpu2_ITLB WRITE        ACCESS:          0 HIT:          0 MISS:          0
cpu2_ITLB TRANSLATION  ACCESS:          0 HIT:          0 MISS:          0
cpu2_ITLB PREFETCH REQUESTED:          0 ISSUED:          0 USEFUL:          0 USELESS:          0
cpu2_ITLB AVERAGE MISS LATENCY: 165.3 cycles
cpu2_L1D TOTAL        ACCESS:          0 HIT:          0 MISS:          0
cpu2_L1D LOAD         ACCESS:          0 HIT:          0 MISS:          0
cpu2_L1D RFO          ACCESS:          0 HIT:          0 MISS:          0
cpu2_L1D PREFETCH     ACCESS:          0 HIT:          0 MISS:          0
cpu2_L1D WRITE        ACCESS:          0 HIT:          0 MISS:          0
cpu2_L1D TRANSLATION  ACCESS:          0 HIT:          0 MISS:          0
cpu2_L1D PREFETCH REQUESTED:   39908016 ISSUED:    8493449 USEFUL:     280418 USELESS:     114096
cpu2_L1D AVERAGE MISS LATENCY: 518.6 cycles
cpu2_L1D TOTAL        ACCESS:          0 HIT:          0 MISS:          0
cpu2_L1D LOAD         ACCESS:          0 HIT:          0 MISS:          0
cpu2_L1D RFO          ACCESS:          0 HIT:          0 MISS:          0
cpu2_L1D PREFETCH     ACCESS:          0 HIT:          0 MISS:          0
cpu2_L1D WRITE        ACCESS:          0 HIT:          0 MISS:          0
cpu2_L1D TRANSLATION  ACCESS:          0 HIT:          0 MISS:          0
cpu2_L1D PREFETCH REQUESTED:   39908016 ISSUED:    8493449 USEFUL:     280418 USELESS:     114096
cpu2_L1D AVERAGE MISS LATENCY: 518.6 cycles
cpu2_L1D TOTAL        ACCESS:  113973926 HIT:   95200533 MISS:   18773393
cpu2_L1D LOAD         ACCESS:   50503032 HIT:   48445646 MISS:    2057386
cpu2_L1D RFO          ACCESS:          0 HIT:          0 MISS:          0
cpu2_L1D PREFETCH     ACCESS:    8493449 HIT:    6142292 MISS:    2351157
cpu2_L1D WRITE        ACCESS:   54918459 HIT:   40567268 MISS:   14351191
cpu2_L1D TRANSLATION  ACCESS:      58986 HIT:      45327 MISS:      13659
cpu2_L1D PREFETCH REQUESTED:   39908016 ISSUED:    8493449 USEFUL:     280418 USELESS:     114096
cpu2_L1D AVERAGE MISS LATENCY: 518.6 cycles
cpu2_L1D TOTAL        ACCESS:          0 HIT:          0 MISS:          0
cpu2_L1D LOAD         ACCESS:          0 HIT:          0 MISS:          0
cpu2_L1D RFO          ACCESS:          0 HIT:          0 MISS:          0
cpu2_L1D PREFETCH     ACCESS:          0 HIT:          0 MISS:          0
cpu2_L1D WRITE        ACCESS:          0 HIT:          0 MISS:          0
cpu2_L1D TRANSLATION  ACCESS:          0 HIT:          0 MISS:          0
cpu2_L1D PREFETCH REQUESTED:   39908016 ISSUED:    8493449 USEFUL:     280418 USELESS:     114096
cpu2_L1D AVERAGE MISS LATENCY: 518.6 cycles
cpu2_L1I TOTAL        ACCESS:          0 HIT:          0 MISS:          0
cpu2_L1I LOAD         ACCESS:          0 HIT:          0 MISS:          0
cpu2_L1I RFO          ACCESS:          0 HIT:          0 MISS:          0
cpu2_L1I PREFETCH     ACCESS:          0 HIT:          0 MISS:          0
cpu2_L1I WRITE        ACCESS:          0 HIT:          0 MISS:          0
cpu2_L1I TRANSLATION  ACCESS:          0 HIT:          0 MISS:          0
cpu2_L1I PREFETCH REQUESTED:          0 ISSUED:          0 USEFUL:          0 USELESS:          0
cpu2_L1I AVERAGE MISS LATENCY: 406.7 cycles
cpu2_L1I TOTAL        ACCESS:          0 HIT:          0 MISS:          0
cpu2_L1I LOAD         ACCESS:          0 HIT:          0 MISS:          0
cpu2_L1I RFO          ACCESS:          0 HIT:          0 MISS:          0
cpu2_L1I PREFETCH     ACCESS:          0 HIT:          0 MISS:          0
cpu2_L1I WRITE        ACCESS:          0 HIT:          0 MISS:          0
cpu2_L1I TRANSLATION  ACCESS:          0 HIT:          0 MISS:          0
cpu2_L1I PREFETCH REQUESTED:          0 ISSUED:          0 USEFUL:          0 USELESS:          0
cpu2_L1I AVERAGE MISS LATENCY: 406.7 cycles
cpu2_L1I TOTAL        ACCESS:   14203370 HIT:   13884707 MISS:     318663
cpu2_L1I LOAD         ACCESS:   14203370 HIT:   13884707 MISS:     318663
cpu2_L1I RFO          ACCESS:          0 HIT:          0 MISS:          0
cpu2_L1I PREFETCH     ACCESS:          0 HIT:          0 MISS:          0
cpu2_L1I WRITE        ACCESS:          0 HIT:          0 MISS:          0
cpu2_L1I TRANSLATION  ACCESS:          0 HIT:          0 MISS:          0
cpu2_L1I PREFETCH REQUESTED:          0 ISSUED:          0 USEFUL:          0 USELESS:          0
cpu2_L1I AVERAGE MISS LATENCY: 406.7 cycles
cpu2_L1I TOTAL        ACCESS:          0 HIT:          0 MISS:          0
cpu2_L1I LOAD         ACCESS:          0 HIT:          0 MISS:          0
cpu2_L1I RFO          ACCESS:          0 HIT:          0 MISS:          0
cpu2_L1I PREFETCH     ACCESS:          0 HIT:          0 MISS:          0
cpu2_L1I WRITE        ACCESS:          0 HIT:          0 MISS:          0
cpu2_L1I TRANSLATION  ACCESS:          0 HIT:          0 MISS:          0
cpu2_L1I PREFETCH REQUESTED:          0 ISSUED:          0 USEFUL:          0 USELESS:          0
cpu2_L1I AVERAGE MISS LATENCY: 406.7 cycles
cpu2_L2C TOTAL        ACCESS:          0 HIT:          0 MISS:          0
cpu2_L2C LOAD         ACCESS:          0 HIT:          0 MISS:          0
cpu2_L2C RFO          ACCESS:          0 HIT:          0 MISS:          0
cpu2_L2C PREFETCH     ACCESS:          0 HIT:          0 MISS:          0
cpu2_L2C WRITE        ACCESS:          0 HIT:          0 MISS:          0
cpu2_L2C TRANSLATION  ACCESS:          0 HIT:          0 MISS:          0
cpu2_L2C PREFETCH REQUESTED:          0 ISSUED:          0 USEFUL:          0 USELESS:          0
cpu2_L2C AVERAGE MISS LATENCY: 2787 cycles
cpu2_L2C TOTAL        ACCESS:          0 HIT:          0 MISS:          0
cpu2_L2C LOAD         ACCESS:          0 HIT:          0 MISS:          0
cpu2_L2C RFO          ACCESS:          0 HIT:          0 MISS:          0
cpu2_L2C PREFETCH     ACCESS:          0 HIT:          0 MISS:          0
cpu2_L2C WRITE        ACCESS:          0 HIT:          0 MISS:          0
cpu2_L2C TRANSLATION  ACCESS:          0 HIT:          0 MISS:          0
cpu2_L2C PREFETCH REQUESTED:          0 ISSUED:          0 USEFUL:          0 USELESS:          0
cpu2_L2C AVERAGE MISS LATENCY: 2787 cycles
cpu2_L2C TOTAL        ACCESS:   11564281 HIT:    7882212 MISS:    3682069
cpu2_L2C LOAD         ACCESS:    1722587 HIT:    1355520 MISS:     367067
cpu2_L2C RFO          ACCESS:    3652022 HIT:     735479 MISS:    2916543
cpu2_L2C PREFETCH     ACCESS:    2273465 HIT:    1884851 MISS:     388614
cpu2_L2C WRITE        ACCESS:    3902664 HIT:    3902361 MISS:        303
cpu2_L2C TRANSLATION  ACCESS:      13543 HIT:       4001 MISS:       9542
cpu2_L2C PREFETCH REQUESTED:          0 ISSUED:          0 USEFUL:          0 USELESS:          0
cpu2_L2C AVERAGE MISS LATENCY: 2787 cycles
cpu2_L2C TOTAL        ACCESS:          0 HIT:          0 MISS:          0
cpu2_L2C LOAD         ACCESS:          0 HIT:          0 MISS:          0
cpu2_L2C RFO          ACCESS:          0 HIT:          0 MISS:          0
cpu2_L2C PREFETCH     ACCESS:          0 HIT:          0 MISS:          0
cpu2_L2C WRITE        ACCESS:          0 HIT:          0 MISS:          0
cpu2_L2C TRANSLATION  ACCESS:          0 HIT:          0 MISS:          0
cpu2_L2C PREFETCH REQUESTED:          0 ISSUED:          0 USEFUL:          0 USELESS:          0
cpu2_L2C AVERAGE MISS LATENCY: 2787 cycles
cpu2_STLB TOTAL        ACCESS:          0 HIT:          0 MISS:          0
cpu2_STLB LOAD         ACCESS:          0 HIT:          0 MISS:          0
cpu2_STLB RFO          ACCESS:          0 HIT:          0 MISS:          0
cpu2_STLB PREFETCH     ACCESS:          0 HIT:          0 MISS:          0
cpu2_STLB WRITE        ACCESS:          0 HIT:          0 MISS:          0
cpu2_STLB TRANSLATION  ACCESS:          0 HIT:          0 MISS:          0
cpu2_STLB PREFETCH REQUESTED:          0 ISSUED:          0 USEFUL:          0 USELESS:          0
cpu2_STLB AVERAGE MISS LATENCY: 350.7 cycles
cpu2_STLB TOTAL        ACCESS:          0 HIT:          0 MISS:          0
cpu2_STLB LOAD         ACCESS:          0 HIT:          0 MISS:          0
cpu2_STLB RFO          ACCESS:          0 HIT:          0 MISS:          0
cpu2_STLB PREFETCH     ACCESS:          0 HIT:          0 MISS:          0
cpu2_STLB WRITE        ACCESS:          0 HIT:          0 MISS:          0
cpu2_STLB TRANSLATION  ACCESS:          0 HIT:          0 MISS:          0
cpu2_STLB PREFETCH REQUESTED:          0 ISSUED:          0 USEFUL:          0 USELESS:          0
cpu2_STLB AVERAGE MISS LATENCY: 350.7 cycles
cpu2_STLB TOTAL        ACCESS:     346709 HIT:     288852 MISS:      57857
cpu2_STLB LOAD         ACCESS:     346709 HIT:     288852 MISS:      57857
cpu2_STLB RFO          ACCESS:          0 HIT:          0 MISS:          0
cpu2_STLB PREFETCH     ACCESS:          0 HIT:          0 MISS:          0
cpu2_STLB WRITE        ACCESS:          0 HIT:          0 MISS:          0
cpu2_STLB TRANSLATION  ACCESS:          0 HIT:          0 MISS:          0
cpu2_STLB PREFETCH REQUESTED:          0 ISSUED:          0 USEFUL:          0 USELESS:          0
cpu2_STLB AVERAGE MISS LATENCY: 350.7 cycles
cpu2_STLB TOTAL        ACCESS:          0 HIT:          0 MISS:          0
cpu2_STLB LOAD         ACCESS:          0 HIT:          0 MISS:          0
cpu2_STLB RFO          ACCESS:          0 HIT:          0 MISS:          0
cpu2_STLB PREFETCH     ACCESS:          0 HIT:          0 MISS:          0
cpu2_STLB WRITE        ACCESS:          0 HIT:          0 MISS:          0
cpu2_STLB TRANSLATION  ACCESS:          0 HIT:          0 MISS:          0
cpu2_STLB PREFETCH REQUESTED:          0 ISSUED:          0 USEFUL:          0 USELESS:          0
cpu2_STLB AVERAGE MISS LATENCY: 350.7 cycles
cpu3_DTLB TOTAL        ACCESS:          0 HIT:          0 MISS:          0
cpu3_DTLB LOAD         ACCESS:          0 HIT:          0 MISS:          0
cpu3_DTLB RFO          ACCESS:          0 HIT:          0 MISS:          0
cpu3_DTLB PREFETCH     ACCESS:          0 HIT:          0 MISS:          0
cpu3_DTLB WRITE        ACCESS:          0 HIT:          0 MISS:          0
cpu3_DTLB TRANSLATION  ACCESS:          0 HIT:          0 MISS:          0
cpu3_DTLB PREFETCH REQUESTED:          0 ISSUED:          0 USEFUL:          0 USELESS:          0
cpu3_DTLB AVERAGE MISS LATENCY: 12.34 cycles
cpu3_DTLB TOTAL        ACCESS:          0 HIT:          0 MISS:          0
cpu3_DTLB LOAD         ACCESS:          0 HIT:          0 MISS:          0
cpu3_DTLB RFO          ACCESS:          0 HIT:          0 MISS:          0
cpu3_DTLB PREFETCH     ACCESS:          0 HIT:          0 MISS:          0
cpu3_DTLB WRITE        ACCESS:          0 HIT:          0 MISS:          0
cpu3_DTLB TRANSLATION  ACCESS:          0 HIT:          0 MISS:          0
cpu3_DTLB PREFETCH REQUESTED:          0 ISSUED:          0 USEFUL:          0 USELESS:          0
cpu3_DTLB AVERAGE MISS LATENCY: 12.34 cycles
cpu3_DTLB TOTAL        ACCESS:          0 HIT:          0 MISS:          0
cpu3_DTLB LOAD         ACCESS:          0 HIT:          0 MISS:          0
cpu3_DTLB RFO          ACCESS:          0 HIT:          0 MISS:          0
cpu3_DTLB PREFETCH     ACCESS:          0 HIT:          0 MISS:          0
cpu3_DTLB WRITE        ACCESS:          0 HIT:          0 MISS:          0
cpu3_DTLB TRANSLATION  ACCESS:          0 HIT:          0 MISS:          0
cpu3_DTLB PREFETCH REQUESTED:          0 ISSUED:          0 USEFUL:          0 USELESS:          0
cpu3_DTLB AVERAGE MISS LATENCY: 12.34 cycles
cpu3_DTLB TOTAL        ACCESS:   96898724 HIT:   95870269 MISS:    1028455
cpu3_DTLB LOAD         ACCESS:   96898724 HIT:   95870269 MISS:    1028455
cpu3_DTLB RFO          ACCESS:          0 HIT:          0 MISS:          0
cpu3_DTLB PREFETCH     ACCESS:          0 HIT:          0 MISS:          0
cpu3_DTLB WRITE        ACCESS:          0 HIT:          0 MISS:          0
cpu3_DTLB TRANSLATION  ACCESS:          0 HIT:          0 MISS:          0
cpu3_DTLB PREFETCH REQUESTED:          0 ISSUED:          0 USEFUL:          0 USELESS:          0
cpu3_DTLB AVERAGE MISS LATENCY: 12.34 cycles
cpu3_ITLB TOTAL        ACCESS:          0 HIT:          0 MISS:          0
cpu3_ITLB LOAD         ACCESS:          0 HIT:          0 MISS:          0
cpu3_ITLB RFO          ACCESS:          0 HIT:          0 MISS:          0
cpu3_ITLB PREFETCH     ACCESS:          0 HIT:          0 MISS:          0
cpu3_ITLB WRITE        ACCESS:          0 HIT:          0 MISS:          0
cpu3_ITLB TRANSLATION  ACCESS:          0 HIT:          0 MISS:          0
cpu3_ITLB PREFETCH REQUESTED:          0 ISSUED:          0 USEFUL:          0 USELESS:          0
cpu3_ITLB AVERAGE MISS LATENCY: 797.5 cycles
cpu3_ITLB TOTAL        ACCESS:          0 HIT:          0 MISS:          0
cpu3_ITLB LOAD         ACCESS:          0 HIT:          0 MISS:          0
cpu3_ITLB RFO          ACCESS:          0 HIT:          0 MISS:          0
cpu3_ITLB PREFETCH     ACCESS:          0 HIT:          0 MISS:          0
cpu3_ITLB WRITE        ACCESS:          0 HIT:          0 MISS:          0
cpu3_ITLB TRANSLATION  ACCESS:          0 HIT:          0 MISS:          0
cpu3_ITLB PREFETCH REQUESTED:          0 ISSUED:          0 USEFUL:          0 USELESS:          0
cpu3_ITLB AVERAGE MISS LATENCY: 797.5 cycles
cpu3_ITLB TOTAL        ACCESS:          0 HIT:          0 MISS:          0
cpu3_ITLB LOAD         ACCESS:          0 HIT:          0 MISS:          0
cpu3_ITLB RFO          ACCESS:          0 HIT:          0 MISS:          0
cpu3_ITLB PREFETCH     ACCESS:          0 HIT:          0 MISS:          0
cpu3_ITLB WRITE        ACCESS:          0 HIT:          0 MISS:          0
cpu3_ITLB TRANSLATION  ACCESS:          0 HIT:          0 MISS:          0
cpu3_ITLB PREFETCH REQUESTED:          0 ISSUED:          0 USEFUL:          0 USELESS:          0
cpu3_ITLB AVERAGE MISS LATENCY: 797.5 cycles
cpu3_ITLB TOTAL        ACCESS:    5543364 HIT:    5542750 MISS:        614
cpu3_ITLB LOAD         ACCESS:    5543364 HIT:    5542750 MISS:        614
cpu3_ITLB RFO          ACCESS:          0 HIT:          0 MISS:          0
cpu3_ITLB PREFETCH     ACCESS:          0 HIT:          0 MISS:          0
cpu3_ITLB WRITE        ACCESS:          0 HIT:          0 MISS:          0
cpu3_ITLB TRANSLATION  ACCESS:          0 HIT:          0 MISS:          0
cpu3_ITLB PREFETCH REQUESTED:          0 ISSUED:          0 USEFUL:          0 USELESS:          0
cpu3_ITLB AVERAGE MISS LATENCY: 797.5 cycles
cpu3_L1D TOTAL        ACCESS:          0 HIT:          0 MISS:          0
[...]
cpu2_L2C PREFETCH REQUESTED:          0 ISSUED:          0 USEFUL:          0 USELESS:          0
cpu2_L2C AVERAGE MISS LATENCY: 2787 cycles
cpu2_L2C TOTAL        ACCESS:          0 HIT:          0 MISS:          0
cpu2_L2C LOAD         ACCESS:          0 HIT:          0 MISS:          0
cpu2_L2C RFO          ACCESS:          0 HIT:          0 MISS:          0
cpu2_L2C PREFETCH     ACCESS:          0 HIT:          0 MISS:          0
cpu2_L2C WRITE        ACCESS:          0 HIT:          0 MISS:          0
cpu2_L2C TRANSLATION  ACCESS:          0 HIT:          0 MISS:          0
cpu2_L2C PREFETCH REQUESTED:          0 ISSUED:          0 USEFUL:          0 USELESS:          0
cpu2_L2C AVERAGE MISS LATENCY: 2787 cycles
cpu2_L2C TOTAL        ACCESS:    3642035 HIT:    2443894 MISS:    1198141
cpu2_L2C LOAD         ACCESS:     499054 HIT:     389051 MISS:     110003
cpu2_L2C RFO          ACCESS:    1188627 HIT:     214077 MISS:     974550
cpu2_L2C PREFETCH     ACCESS:     684274 HIT:     573859 MISS:     110415
cpu2_L2C WRITE        ACCESS:    1265842 HIT:    1265754 MISS:         88
cpu2_L2C TRANSLATION  ACCESS:       4238 HIT:       1153 MISS:       3085
cpu2_L2C PREFETCH REQUESTED:          0 ISSUED:          0 USEFUL:          0 USELESS:          0
cpu2_L2C AVERAGE MISS LATENCY: 2787 cycles
cpu2_L2C TOTAL        ACCESS:          0 HIT:          0 MISS:          0
cpu2_L2C LOAD         ACCESS:          0 HIT:          0 MISS:          0
cpu2_L2C RFO          ACCESS:          0 HIT:          0 MISS:          0
cpu2_L2C PREFETCH     ACCESS:          0 HIT:          0 MISS:          0
cpu2_L2C WRITE        ACCESS:          0 HIT:          0 MISS:          0
cpu2_L2C TRANSLATION  ACCESS:          0 HIT:          0 MISS:          0
cpu2_L2C PREFETCH REQUESTED:          0 ISSUED:          0 USEFUL:          0 USELESS:          0
cpu2_L2C AVERAGE MISS LATENCY: 2787 cycles
cpu2_STLB TOTAL        ACCESS:          0 HIT:          0 MISS:          0
cpu2_STLB LOAD         ACCESS:          0 HIT:          0 MISS:          0
cpu2_STLB RFO          ACCESS:          0 HIT:          0 MISS:          0
cpu2_STLB PREFETCH     ACCESS:          0 HIT:          0 MISS:          0
cpu2_STLB WRITE        ACCESS:          0 HIT:          0 MISS:          0
cpu2_STLB TRANSLATION  ACCESS:          0 HIT:          0 MISS:          0
cpu2_STLB PREFETCH REQUESTED:          0 ISSUED:          0 USEFUL:          0 USELESS:          0
cpu2_STLB AVERAGE MISS LATENCY: 350.7 cycles
cpu2_STLB TOTAL        ACCESS:          0 HIT:          0 MISS:          0
cpu2_STLB LOAD         ACCESS:          0 HIT:          0 MISS:          0
cpu2_STLB RFO          ACCESS:          0 HIT:          0 MISS:          0
cpu2_STLB PREFETCH     ACCESS:          0 HIT:          0 MISS:          0
cpu2_STLB WRITE        ACCESS:          0 HIT:          0 MISS:          0
cpu2_STLB TRANSLATION  ACCESS:          0 HIT:          0 MISS:          0
cpu2_STLB PREFETCH REQUESTED:          0 ISSUED:          0 USEFUL:          0 USELESS:          0
cpu2_STLB AVERAGE MISS LATENCY: 350.7 cycles
cpu2_STLB TOTAL        ACCESS:     100585 HIT:      81501 MISS:      19084
cpu2_STLB LOAD         ACCESS:     100585 HIT:      81501 MISS:      19084
cpu2_STLB RFO          ACCESS:          0 HIT:          0 MISS:          0
cpu2_STLB PREFETCH     ACCESS:          0 HIT:          0 MISS:          0
cpu2_STLB WRITE        ACCESS:          0 HIT:          0 MISS:          0
cpu2_STLB TRANSLATION  ACCESS:          0 HIT:          0 MISS:          0
cpu2_STLB PREFETCH REQUESTED:          0 ISSUED:          0 USEFUL:          0 USELESS:          0
cpu2_STLB AVERAGE MISS LATENCY: 350.7 cycles
cpu2_STLB TOTAL        ACCESS:          0 HIT:          0 MISS:          0
cpu2_STLB LOAD         ACCESS:          0 HIT:          0 MISS:          0
cpu2_STLB RFO          ACCESS:          0 HIT:          0 MISS:          0
cpu2_STLB PREFETCH     ACCESS:          0 HIT:          0 MISS:          0
cpu2_STLB WRITE        ACCESS:          0 HIT:          0 MISS:          0
cpu2_STLB TRANSLATION  ACCESS:          0 HIT:          0 MISS:          0
cpu2_STLB PREFETCH REQUESTED:          0 ISSUED:          0 USEFUL:          0 USELESS:          0
cpu2_STLB AVERAGE MISS LATENCY: 350.7 cycles
cpu3_DTLB TOTAL        ACCESS:          0 HIT:          0 MISS:          0
cpu3_DTLB LOAD         ACCESS:          0 HIT:          0 MISS:          0
cpu3_DTLB RFO          ACCESS:          0 HIT:          0 MISS:          0
cpu3_DTLB PREFETCH     ACCESS:          0 HIT:          0 MISS:          0
cpu3_DTLB WRITE        ACCESS:          0 HIT:          0 MISS:          0
cpu3_DTLB TRANSLATION  ACCESS:          0 HIT:          0 MISS:          0
cpu3_DTLB PREFETCH REQUESTED:          0 ISSUED:          0 USEFUL:          0 USELESS:          0
cpu3_DTLB AVERAGE MISS LATENCY: 12.34 cycles
cpu3_DTLB TOTAL        ACCESS:          0 HIT:          0 MISS:          0
cpu3_DTLB LOAD         ACCESS:          0 HIT:          0 MISS:          0
cpu3_DTLB RFO          ACCESS:          0 HIT:          0 MISS:          0
cpu3_DTLB PREFETCH     ACCESS:          0 HIT:          0 MISS:          0
cpu3_DTLB WRITE        ACCESS:          0 HIT:          0 MISS:          0
cpu3_DTLB TRANSLATION  ACCESS:          0 HIT:          0 MISS:          0
cpu3_DTLB PREFETCH REQUESTED:          0 ISSUED:          0 USEFUL:          0 USELESS:          0
cpu3_DTLB AVERAGE MISS LATENCY: 12.34 cycles
cpu3_DTLB TOTAL        ACCESS:          0 HIT:          0 MISS:          0
cpu3_DTLB LOAD         ACCESS:          0 HIT:          0 MISS:          0
cpu3_DTLB RFO          ACCESS:          0 HIT:          0 MISS:          0
cpu3_DTLB PREFETCH     ACCESS:          0 HIT:          0 MISS:          0
cpu3_DTLB WRITE        ACCESS:          0 HIT:          0 MISS:          0
cpu3_DTLB TRANSLATION  ACCESS:          0 HIT:          0 MISS:          0
cpu3_DTLB PREFETCH REQUESTED:          0 ISSUED:          0 USEFUL:          0 USELESS:          0
cpu3_DTLB AVERAGE MISS LATENCY: 12.34 cycles
cpu3_DTLB TOTAL        ACCESS:   17915114 HIT:   17903992 MISS:      11122
cpu3_DTLB LOAD         ACCESS:   17915114 HIT:   17903992 MISS:      11122
cpu3_DTLB RFO          ACCESS:          0 HIT:          0 MISS:          0
cpu3_DTLB PREFETCH     ACCESS:          0 HIT:          0 MISS:          0
cpu3_DTLB WRITE        ACCESS:          0 HIT:          0 MISS:          0
cpu3_DTLB TRANSLATION  ACCESS:          0 HIT:          0 MISS:          0
cpu3_DTLB PREFETCH REQUESTED:          0 ISSUED:          0 USEFUL:          0 USELESS:          0
cpu3_DTLB AVERAGE MISS LATENCY: 12.34 cycles
cpu3_ITLB TOTAL        ACCESS:          0 HIT:          0 MISS:          0
cpu3_ITLB LOAD         ACCESS:          0 HIT:          0 MISS:          0
cpu3_ITLB RFO          ACCESS:          0 HIT:          0 MISS:          0
cpu3_ITLB PREFETCH     ACCESS:          0 HIT:          0 MISS:          0
cpu3_ITLB WRITE        ACCESS:          0 HIT:          0 MISS:          0
cpu3_ITLB TRANSLATION  ACCESS:          0 HIT:          0 MISS:          0
cpu3_ITLB PREFETCH REQUESTED:          0 ISSUED:          0 USEFUL:          0 USELESS:          0
cpu3_ITLB AVERAGE MISS LATENCY: 797.5 cycles
cpu3_ITLB TOTAL        ACCESS:          0 HIT:          0 MISS:          0
cpu3_ITLB LOAD         ACCESS:          0 HIT:          0 MISS:          0
cpu3_ITLB RFO          ACCESS:          0 HIT:          0 MISS:          0
cpu3_ITLB PREFETCH     ACCESS:          0 HIT:          0 MISS:          0
cpu3_ITLB WRITE        ACCESS:          0 HIT:          0 MISS:          0
cpu3_ITLB TRANSLATION  ACCESS:          0 HIT:          0 MISS:          0
cpu3_ITLB PREFETCH REQUESTED:          0 ISSUED:          0 USEFUL:          0 USELESS:          0
cpu3_ITLB AVERAGE MISS LATENCY: 797.5 cycles
cpu3_ITLB TOTAL        ACCESS:          0 HIT:          0 MISS:          0
cpu3_ITLB LOAD         ACCESS:          0 HIT:          0 MISS:          0
cpu3_ITLB RFO          ACCESS:          0 HIT:          0 MISS:          0
cpu3_ITLB PREFETCH     ACCESS:          0 HIT:          0 MISS:          0
cpu3_ITLB WRITE        ACCESS:          0 HIT:          0 MISS:          0
cpu3_ITLB TRANSLATION  ACCESS:          0 HIT:          0 MISS:          0
cpu3_ITLB PREFETCH REQUESTED:          0 ISSUED:          0 USEFUL:          0 USELESS:          0
cpu3_ITLB AVERAGE MISS LATENCY: 797.5 cycles
cpu3_ITLB TOTAL        ACCESS:     515301 HIT:     515301 MISS:          0
cpu3_ITLB LOAD         ACCESS:     515301 HIT:     515301 MISS:          0
cpu3_ITLB RFO          ACCESS:          0 HIT:          0 MISS:          0
cpu3_ITLB PREFETCH     ACCESS:          0 HIT:          0 MISS:          0
cpu3_ITLB WRITE        ACCESS:          0 HIT:          0 MISS:          0
cpu3_ITLB TRANSLATION  ACCESS:          0 HIT:          0 MISS:          0
cpu3_ITLB PREFETCH REQUESTED:          0 ISSUED:          0 USEFUL:          0 USELESS:          0
cpu3_ITLB AVERAGE MISS LATENCY: 797.5 cycles
cpu3_L1D TOTAL        ACCESS:          0 HIT:          0 MISS:          0
cpu3_L1D LOAD         ACCESS:          0 HIT:          0 MISS:          0
cpu3_L1D RFO          ACCESS:          0 HIT:          0 MISS:          0
cpu3_L1D PREFETCH     ACCESS:          0 HIT:          0 MISS:          0
cpu3_L1D WRITE        ACCESS:          0 HIT:          0 MISS:          0
cpu3_L1D TRANSLATION  ACCESS:          0 HIT:          0 MISS:          0
cpu3_L1D PREFETCH REQUESTED:  101781725 ISSUED:   10494293 USEFUL:     949264 USELESS:     231980
cpu3_L1D AVERAGE MISS LATENCY: 292.6 cycles
cpu3_L1D TOTAL        ACCESS:          0 HIT:          0 MISS:          0
cpu3_L1D LOAD         ACCESS:          0 HIT:          0 MISS:          0
cpu3_L1D RFO          ACCESS:          0 HIT:          0 MISS:          0
cpu3_L1D PREFETCH     ACCESS:          0 HIT:          0 MISS:          0
cpu3_L1D WRITE        ACCESS:          0 HIT:          0 MISS:          0
cpu3_L1D TRANSLATION  ACCESS:          0 HIT:          0 MISS:          0
cpu3_L1D PREFETCH REQUESTED:  101781725 ISSUED:   10494293 USEFUL:     949264 USELESS:     231980
cpu3_L1D AVERAGE MISS LATENCY: 292.6 cycles
cpu3_L1D TOTAL        ACCESS:          0 HIT:          0 MISS:          0
cpu3_L1D LOAD         ACCESS:          0 HIT:          0 MISS:          0
cpu3_L1D RFO          ACCESS:          0 HIT:          0 MISS:          0
cpu3_L1D PREFETCH     ACCESS:          0 HIT:          0 MISS:          0
cpu3_L1D WRITE        ACCESS:          0 HIT:          0 MISS:          0
cpu3_L1D TRANSLATION  ACCESS:          0 HIT:          0 MISS:          0
cpu3_L1D PREFETCH REQUESTED:  101781725 ISSUED:   10494293 USEFUL:     949264 USELESS:     231980
cpu3_L1D AVERAGE MISS LATENCY: 292.6 cycles
cpu3_L1D TOTAL        ACCESS:   22076854 HIT:   22049755 MISS:      27099
cpu3_L1D LOAD         ACCESS:   16472578 HIT:   16470649 MISS:       1929
cpu3_L1D RFO          ACCESS:          0 HIT:          0 MISS:          0
cpu3_L1D PREFETCH     ACCESS:      22205 HIT:      11533 MISS:      10672
cpu3_L1D WRITE        ACCESS:    5581903 HIT:    5567556 MISS:      14347
cpu3_L1D TRANSLATION  ACCESS:        168 HIT:         17 MISS:        151
cpu3_L1D PREFETCH REQUESTED:  101781725 ISSUED:   10494293 USEFUL:     949264 USELESS:     231980
cpu3_L1D AVERAGE MISS LATENCY: 292.6 cycles
cpu3_L1I TOTAL        ACCESS:          0 HIT:          0 MISS:          0
cpu3_L1I LOAD         ACCESS:          0 HIT:          0 MISS:          0
cpu3_L1I RFO          ACCESS:          0 HIT:          0 MISS:          0
cpu3_L1I PREFETCH     ACCESS:          0 HIT:          0 MISS:          0
cpu3_L1I WRITE        ACCESS:          0 HIT:          0 MISS:          0
cpu3_L1I TRANSLATION  ACCESS:          0 HIT:          0 MISS:          0
cpu3_L1I PREFETCH REQUESTED:          0 ISSUED:          0 USEFUL:          0 USELESS:          0
cpu3_L1I AVERAGE MISS LATENCY: 31.68 cycles
cpu3_L1I TOTAL        ACCESS:          0 HIT:          0 MISS:          0
cpu3_L1I LOAD         ACCESS:          0 HIT:          0 MISS:          0
cpu3_L1I RFO          ACCESS:          0 HIT:          0 MISS:          0
cpu3_L1I PREFETCH     ACCESS:          0 HIT:          0 MISS:          0
cpu3_L1I WRITE        ACCESS:          0 HIT:          0 MISS:          0
cpu3_L1I TRANSLATION  ACCESS:          0 HIT:          0 MISS:          0
cpu3_L1I PREFETCH REQUESTED:          0 ISSUED:          0 USEFUL:          0 USELESS:          0
cpu3_L1I AVERAGE MISS LATENCY: 31.68 cycles
cpu3_L1I TOTAL        ACCESS:          0 HIT:          0 MISS:          0
cpu3_L1I LOAD         ACCESS:          0 HIT:          0 MISS:          0
cpu3_L1I RFO          ACCESS:          0 HIT:          0 MISS:          0
cpu3_L1I PREFETCH     ACCESS:          0 HIT:          0 MISS:          0
cpu3_L1I WRITE        ACCESS:          0 HIT:          0 MISS:          0
cpu3_L1I TRANSLATION  ACCESS:          0 HIT:          0 MISS:          0
cpu3_L1I PREFETCH REQUESTED:          0 ISSUED:          0 USEFUL:          0 USELESS:          0
cpu3_L1I AVERAGE MISS LATENCY: 31.68 cycles
cpu3_L1I TOTAL        ACCESS:     570341 HIT:     568925 MISS:       1416
cpu3_L1I LOAD         ACCESS:     570341 HIT:     568925 MISS:       1416
cpu3_L1I RFO          ACCESS:          0 HIT:          0 MISS:          0
cpu3_L1I PREFETCH     ACCESS:          0 HIT:          0 MISS:          0
cpu3_L1I WRITE        ACCESS:          0 HIT:          0 MISS:          0
cpu3_L1I TRANSLATION  ACCESS:          0 HIT:          0 MISS:          0
cpu3_L1I PREFETCH REQUESTED:          0 ISSUED:          0 USEFUL:          0 USELESS:          0
cpu3_L1I AVERAGE MISS LATENCY: 31.68 cycles
cpu3_L2C TOTAL        ACCESS:          0 HIT:          0 MISS:          0
cpu3_L2C LOAD         ACCESS:          0 HIT:          0 MISS:          0
cpu3_L2C RFO          ACCESS:          0 HIT:          0 MISS:          0
cpu3_L2C PREFETCH     ACCESS:          0 HIT:          0 MISS:          0
cpu3_L2C WRITE        ACCESS:          0 HIT:          0 MISS:          0
cpu3_L2C TRANSLATION  ACCESS:          0 HIT:          0 MISS:          0
cpu3_L2C PREFETCH REQUESTED:          0 ISSUED:          0 USEFUL:          0 USELESS:          0
cpu3_L2C AVERAGE MISS LATENCY: 1717 cycles
cpu3_L2C TOTAL        ACCESS:          0 HIT:          0 MISS:          0
cpu3_L2C LOAD         ACCESS:          0 HIT:          0 MISS:          0
cpu3_L2C RFO          ACCESS:          0 HIT:          0 MISS:          0
cpu3_L2C PREFETCH     ACCESS:          0 HIT:          0 MISS:          0
cpu3_L2C WRITE        ACCESS:          0 HIT:          0 MISS:          0
cpu3_L2C TRANSLATION  ACCESS:          0 HIT:          0 MISS:          0
cpu3_L2C PREFETCH REQUESTED:          0 ISSUED:          0 USEFUL:          0 USELESS:          0
cpu3_L2C AVERAGE MISS LATENCY: 1717 cycles
cpu3_L2C TOTAL        ACCESS:          0 HIT:          0 MISS:          0
cpu3_L2C LOAD         ACCESS:          0 HIT:          0 MISS:          0
cpu3_L2C RFO          ACCESS:          0 HIT:          0 MISS:          0
cpu3_L2C PREFETCH     ACCESS:          0 HIT:          0 MISS:          0
cpu3_L2C WRITE        ACCESS:          0 HIT:          0 MISS:          0
cpu3_L2C TRANSLATION  ACCESS:          0 HIT:          0 MISS:          0
cpu3_L2C PREFETCH REQUESTED:          0 ISSUED:          0 USEFUL:          0 USELESS:          0
cpu3_L2C AVERAGE MISS LATENCY: 1717 cycles
cpu3_L2C TOTAL        ACCESS:      18442 HIT:      10058 MISS:       8384
cpu3_L2C LOAD         ACCESS:       2127 HIT:       1299 MISS:        828
cpu3_L2C RFO          ACCESS:       2530 HIT:        105 MISS:       2425
cpu3_L2C PREFETCH     ACCESS:      10580 HIT:       5553 MISS:       5027
cpu3_L2C WRITE        ACCESS:       3054 HIT:       3050 MISS:          4
cpu3_L2C TRANSLATION  ACCESS:        151 HIT:         51 MISS:        100
cpu3_L2C PREFETCH REQUESTED:          0 ISSUED:          0 USEFUL:          0 USELESS:          0
cpu3_L2C AVERAGE MISS LATENCY: 1717 cycles
cpu3_STLB TOTAL        ACCESS:          0 HIT:          0 MISS:          0
cpu3_STLB LOAD         ACCESS:          0 HIT:          0 MISS:          0
cpu3_STLB RFO          ACCESS:          0 HIT:          0 MISS:          0
cpu3_STLB PREFETCH     ACCESS:          0 HIT:          0 MISS:          0
cpu3_STLB WRITE        ACCESS:          0 HIT:          0 MISS:          0
cpu3_STLB TRANSLATION  ACCESS:          0 HIT:          0 MISS:          0
cpu3_STLB PREFETCH REQUESTED:          0 ISSUED:          0 USEFUL:          0 USELESS:          0
cpu3_STLB AVERAGE MISS LATENCY: 602.6 cycles
cpu3_STLB TOTAL        ACCESS:          0 HIT:          0 MISS:          0
cpu3_STLB LOAD         ACCESS:          0 HIT:          0 MISS:          0
cpu3_STLB RFO          ACCESS:          0 HIT:          0 MISS:          0
cpu3_STLB PREFETCH     ACCESS:          0 HIT:          0 MISS:          0
cpu3_STLB WRITE        ACCESS:          0 HIT:          0 MISS:          0
cpu3_STLB TRANSLATION  ACCESS:          0 HIT:          0 MISS:          0
cpu3_STLB PREFETCH REQUESTED:          0 ISSUED:          0 USEFUL:          0 USELESS:          0
cpu3_STLB AVERAGE MISS LATENCY: 602.6 cycles
cpu3_STLB TOTAL        ACCESS:          0 HIT:          0 MISS:          0
cpu3_STLB LOAD         ACCESS:          0 HIT:          0 MISS:          0
cpu3_STLB RFO          ACCESS:          0 HIT:          0 MISS:          0
cpu3_STLB PREFETCH     ACCESS:          0 HIT:          0 MISS:          0
cpu3_STLB WRITE        ACCESS:          0 HIT:          0 MISS:          0
cpu3_STLB TRANSLATION  ACCESS:          0 HIT:          0 MISS:          0
cpu3_STLB PREFETCH REQUESTED:          0 ISSUED:          0 USEFUL:          0 USELESS:          0
cpu3_STLB AVERAGE MISS LATENCY: 602.6 cycles
cpu3_STLB TOTAL        ACCESS:       9905 HIT:       9737 MISS:        168
cpu3_STLB LOAD         ACCESS:       9905 HIT:       9737 MISS:        168
cpu3_STLB RFO          ACCESS:          0 HIT:          0 MISS:          0
cpu3_STLB PREFETCH     ACCESS:          0 HIT:          0 MISS:          0
cpu3_STLB WRITE        ACCESS:          0 HIT:          0 MISS:          0
cpu3_STLB TRANSLATION  ACCESS:          0 HIT:          0 MISS:          0
cpu3_STLB PREFETCH REQUESTED:          0 ISSUED:          0 USEFUL:          0 USELESS:          0
cpu3_STLB AVERAGE MISS LATENCY: 602.6 cycles

DRAM Statistics

Channel 0 RQ ROW_BUFFER_HIT:    1156308
  ROW_BUFFER_MISS:    6231106
 AVG DBUS CONGESTED CYCLE: 3.987
WQ ROW_BUFFER_HIT: Channel 0 
  ROW_BUFFER_MISS:     145788
  FULL:    4645612

Channel 1 RQ ROW_BUFFER_HIT:    1152625
  ROW_BUFFER_MISS:    6224109
 AVG DBUS CONGESTED CYCLE: 3.987
WQ ROW_BUFFER_HIT: Channel 1 
  ROW_BUFFER_MISS:     147701
  FULL:    4643387
BERTI TO_L1: 48666981 TO_L2: 214614862 TO_L2_BC_MSHR: 78534857
BERTI AVG_LAT: 282.335 NUM_TRACK_LATENCY: 39376008 NUM_CANT_TRACK_LATENCY: 1199544
BERTI CROSS_PAGE 61563360 NO_CROSS_PAGE: 201718483
BERTI FOUND_BERTI: 58261219 NO_FOUND_BERTI: 182404580
BERTI AVERAGE_ISSUED: 3.30382
BERTI TO_L1: 48666981 TO_L2: 214614862 TO_L2_BC_MSHR: 78534857
BERTI AVG_LAT: 282.335 NUM_TRACK_LATENCY: 39376008 NUM_CANT_TRACK_LATENCY: 1199544
BERTI CROSS_PAGE 61563360 NO_CROSS_PAGE: 201718483
BERTI FOUND_BERTI: 58261219 NO_FOUND_BERTI: 182404580
BERTI AVERAGE_ISSUED: 3.30382
BERTI TO_L1: 48666981 TO_L2: 214614862 TO_L2_BC_MSHR: 78534857
BERTI AVG_LAT: 282.335 NUM_TRACK_LATENCY: 39376008 NUM_CANT_TRACK_LATENCY: 1199544
BERTI CROSS_PAGE 61563360 NO_CROSS_PAGE: 201718483
BERTI FOUND_BERTI: 58261219 NO_FOUND_BERTI: 182404580
BERTI AVERAGE_ISSUED: 3.30382
BERTI TO_L1: 48666981 TO_L2: 214614862 TO_L2_BC_MSHR: 78534857
BERTI AVG_LAT: 282.335 NUM_TRACK_LATENCY: 39376008 NUM_CANT_TRACK_LATENCY: 1199544
BERTI CROSS_PAGE 61563360 NO_CROSS_PAGE: 201718483
BERTI FOUND_BERTI: 58261219 NO_FOUND_BERTI: 182404580
BERTI AVERAGE_ISSUED: 3.30382
