Original cmd-> /home/grads/r/rdas40/ECEN676/ChampSim/bin/multi_core/berti_2ch --warmup_instructions=50000000 --simulation_instructions=150000000  /home/grads/r/rdas40/dpc3_traces/620.omnetpp_s-874B.champsimtrace.xz /home/grads/r/rdas40/dpc3_traces/603.bwaves_s-3699B.champsimtrace.xz /home/grads/r/rdas40/dpc3_traces/607.cactuBSSN_s-2421B.champsimtrace.xz /home/grads/r/rdas40/dpc3_traces/619.lbm_s-4268B.champsimtrace.xz
WARNING: physical memory size is smaller than virtual memory size.
WARNING: option --warmup_instructions is deprecated. Use --warmup-instructions instead.
WARNING: option --simulation_instructions is deprecated. Use --simulation-instructions instead.

*** ChampSim Multicore Out-of-Order Simulator ***
Warmup Instructions: 50000000
Simulation Instructions: 150000000
Number of CPUs: 4
Page size: 4096

Berti Prefetcher
BERTI HASH ORIGINAL
BERTI IP MASK ffff
Berti Prefetcher
BERTI HASH ORIGINAL
BERTI IP MASK ffff
Berti Prefetcher
BERTI HASH ORIGINAL
BERTI IP MASK ffff
Berti Prefetcher
BERTI HASH ORIGINAL
BERTI IP MASK ffff
Off-chip DRAM Size: 8 GiB Channels: 2 Width: 64-bit Data Race: 3200 MT/s
Heartbeat CPU 1 instructions: 10000003 cycles: 2521875 heartbeat IPC: 3.965 cumulative IPC: 3.965 (Simulation time: 00 hr 03 min 16 sec)
Heartbeat CPU 3 instructions: 10000002 cycles: 3382035 heartbeat IPC: 2.957 cumulative IPC: 2.957 (Simulation time: 00 hr 04 min 23 sec)
Heartbeat CPU 2 instructions: 10000001 cycles: 3769168 heartbeat IPC: 2.653 cumulative IPC: 2.653 (Simulation time: 00 hr 04 min 54 sec)
Heartbeat CPU 0 instructions: 10000002 cycles: 4174402 heartbeat IPC: 2.396 cumulative IPC: 2.396 (Simulation time: 00 hr 05 min 26 sec)
Heartbeat CPU 1 instructions: 20000001 cycles: 5038237 heartbeat IPC: 3.974 cumulative IPC: 3.97 (Simulation time: 00 hr 06 min 34 sec)
Heartbeat CPU 3 instructions: 20000001 cycles: 6755951 heartbeat IPC: 2.964 cumulative IPC: 2.96 (Simulation time: 00 hr 08 min 50 sec)
Heartbeat CPU 2 instructions: 20000000 cycles: 7533946 heartbeat IPC: 2.656 cumulative IPC: 2.655 (Simulation time: 00 hr 09 min 52 sec)
Heartbeat CPU 1 instructions: 30000000 cycles: 7553266 heartbeat IPC: 3.976 cumulative IPC: 3.972 (Simulation time: 00 hr 09 min 53 sec)
Heartbeat CPU 0 instructions: 20000004 cycles: 8346403 heartbeat IPC: 2.397 cumulative IPC: 2.396 (Simulation time: 00 hr 10 min 56 sec)
Heartbeat CPU 1 instructions: 40000003 cycles: 10077277 heartbeat IPC: 3.962 cumulative IPC: 3.969 (Simulation time: 00 hr 13 min 12 sec)
Heartbeat CPU 3 instructions: 30000002 cycles: 10114416 heartbeat IPC: 2.978 cumulative IPC: 2.966 (Simulation time: 00 hr 13 min 15 sec)
Heartbeat CPU 2 instructions: 30000002 cycles: 11303305 heartbeat IPC: 2.653 cumulative IPC: 2.654 (Simulation time: 00 hr 14 min 49 sec)
Heartbeat CPU 0 instructions: 30000001 cycles: 12519705 heartbeat IPC: 2.396 cumulative IPC: 2.396 (Simulation time: 00 hr 16 min 25 sec)
Heartbeat CPU 1 instructions: 50000000 cycles: 12599099 heartbeat IPC: 3.965 cumulative IPC: 3.969 (Simulation time: 00 hr 16 min 31 sec)
Warmup finished CPU 1 instructions: 50000000 cycles: 12599100 cumulative IPC: 3.969 (Simulation time: 00 hr 16 min 31 sec)
Heartbeat CPU 3 instructions: 40000000 cycles: 13504355 heartbeat IPC: 2.95 cumulative IPC: 2.962 (Simulation time: 00 hr 17 min 43 sec)
Heartbeat CPU 2 instructions: 40000000 cycles: 15069868 heartbeat IPC: 2.655 cumulative IPC: 2.654 (Simulation time: 00 hr 19 min 47 sec)
Heartbeat CPU 1 instructions: 60000002 cycles: 15124094 heartbeat IPC: 3.96 cumulative IPC: 3.967 (Simulation time: 00 hr 19 min 51 sec)
Heartbeat CPU 0 instructions: 40000004 cycles: 16705588 heartbeat IPC: 2.389 cumulative IPC: 2.394 (Simulation time: 00 hr 21 min 56 sec)
Heartbeat CPU 3 instructions: 50000002 cycles: 16901920 heartbeat IPC: 2.943 cumulative IPC: 2.958 (Simulation time: 00 hr 22 min 12 sec)
Warmup finished CPU 3 instructions: 50000002 cycles: 16901921 cumulative IPC: 2.958 (Simulation time: 00 hr 22 min 12 sec)
Heartbeat CPU 1 instructions: 70000000 cycles: 17648868 heartbeat IPC: 3.961 cumulative IPC: 3.966 (Simulation time: 00 hr 23 min 11 sec)
Heartbeat CPU 2 instructions: 50000002 cycles: 18837542 heartbeat IPC: 2.654 cumulative IPC: 2.654 (Simulation time: 00 hr 24 min 45 sec)
Warmup finished CPU 2 instructions: 50000002 cycles: 18837543 cumulative IPC: 2.654 (Simulation time: 00 hr 24 min 45 sec)
Heartbeat CPU 1 instructions: 80000001 cycles: 20174084 heartbeat IPC: 3.96 cumulative IPC: 3.965 (Simulation time: 00 hr 26 min 30 sec)
Heartbeat CPU 3 instructions: 60000001 cycles: 20320986 heartbeat IPC: 2.925 cumulative IPC: 2.953 (Simulation time: 00 hr 26 min 42 sec)
Heartbeat CPU 0 instructions: 50000003 cycles: 20871896 heartbeat IPC: 2.4 cumulative IPC: 2.396 (Simulation time: 00 hr 27 min 25 sec)
Warmup finished CPU 0 instructions: 50000003 cycles: 20871897 cumulative IPC: 2.396 (Simulation time: 00 hr 27 min 25 sec)
Warmup complete CPU 0 instructions: 50000003 cycles: 20871897 cumulative IPC: 2.396 (Simulation time: 00 hr 27 min 25 sec)
Warmup complete CPU 1 instructions: 82762655 cycles: 20871897 cumulative IPC: 3.965 (Simulation time: 00 hr 27 min 25 sec)
Warmup complete CPU 2 instructions: 55213193 cycles: 20871897 cumulative IPC: 2.645 (Simulation time: 00 hr 27 min 25 sec)
Warmup complete CPU 3 instructions: 61632859 cycles: 20871897 cumulative IPC: 2.953 (Simulation time: 00 hr 27 min 25 sec)
Heartbeat CPU 1 instructions: 90000002 cycles: 24027774 heartbeat IPC: 2.595 cumulative IPC: 2.293 (Simulation time: 00 hr 29 min 41 sec)
Heartbeat CPU 1 instructions: 100000002 cycles: 28383004 heartbeat IPC: 2.296 cumulative IPC: 2.295 (Simulation time: 00 hr 32 min 47 sec)
Heartbeat CPU 2 instructions: 60000004 cycles: 30526869 heartbeat IPC: 0.8555 cumulative IPC: 0.4958 (Simulation time: 00 hr 34 min 19 sec)
Heartbeat CPU 1 instructions: 110000002 cycles: 32799035 heartbeat IPC: 2.264 cumulative IPC: 2.284 (Simulation time: 00 hr 35 min 55 sec)
Heartbeat CPU 1 instructions: 120000001 cycles: 37111863 heartbeat IPC: 2.319 cumulative IPC: 2.293 (Simulation time: 00 hr 38 min 59 sec)
Heartbeat CPU 1 instructions: 130000000 cycles: 41526911 heartbeat IPC: 2.265 cumulative IPC: 2.287 (Simulation time: 00 hr 42 min 03 sec)
Heartbeat CPU 1 instructions: 140000002 cycles: 45967465 heartbeat IPC: 2.252 cumulative IPC: 2.281 (Simulation time: 00 hr 45 min 09 sec)
Heartbeat CPU 3 instructions: 70000000 cycles: 50083804 heartbeat IPC: 0.336 cumulative IPC: 0.2864 (Simulation time: 00 hr 47 min 58 sec)
Heartbeat CPU 1 instructions: 150000002 cycles: 50389585 heartbeat IPC: 2.261 cumulative IPC: 2.278 (Simulation time: 00 hr 48 min 10 sec)
Heartbeat CPU 2 instructions: 70000001 cycles: 50563391 heartbeat IPC: 0.4991 cumulative IPC: 0.498 (Simulation time: 00 hr 48 min 17 sec)
Heartbeat CPU 1 instructions: 160000001 cycles: 54805127 heartbeat IPC: 2.265 cumulative IPC: 2.276 (Simulation time: 00 hr 51 min 13 sec)
Heartbeat CPU 1 instructions: 170000000 cycles: 59203166 heartbeat IPC: 2.274 cumulative IPC: 2.276 (Simulation time: 00 hr 54 min 14 sec)
Heartbeat CPU 1 instructions: 180000000 cycles: 63688395 heartbeat IPC: 2.23 cumulative IPC: 2.271 (Simulation time: 00 hr 57 min 20 sec)
Heartbeat CPU 1 instructions: 190000000 cycles: 68125261 heartbeat IPC: 2.254 cumulative IPC: 2.269 (Simulation time: 01 hr 00 min 27 sec)
Heartbeat CPU 2 instructions: 80000000 cycles: 70711204 heartbeat IPC: 0.4963 cumulative IPC: 0.4973 (Simulation time: 01 hr 02 min 18 sec)
Heartbeat CPU 1 instructions: 200000004 cycles: 72509096 heartbeat IPC: 2.281 cumulative IPC: 2.27 (Simulation time: 01 hr 03 min 32 sec)
Heartbeat CPU 1 instructions: 210000001 cycles: 76981132 heartbeat IPC: 2.236 cumulative IPC: 2.268 (Simulation time: 01 hr 06 min 36 sec)
Heartbeat CPU 1 instructions: 220000002 cycles: 81523315 heartbeat IPC: 2.202 cumulative IPC: 2.263 (Simulation time: 01 hr 09 min 45 sec)
Heartbeat CPU 3 instructions: 80000003 cycles: 83870985 heartbeat IPC: 0.296 cumulative IPC: 0.2915 (Simulation time: 01 hr 11 min 23 sec)
Heartbeat CPU 1 instructions: 230000000 cycles: 85931521 heartbeat IPC: 2.268 cumulative IPC: 2.263 (Simulation time: 01 hr 12 min 47 sec)
Simulation finished CPU 1 instructions: 150000004 cycles: 66296744 cumulative IPC: 2.263 (Simulation time: 01 hr 13 min 38 sec)
Heartbeat CPU 1 instructions: 240000001 cycles: 90408712 heartbeat IPC: 2.234 cumulative IPC: 2.261 (Simulation time: 01 hr 15 min 53 sec)
Heartbeat CPU 2 instructions: 90000004 cycles: 91135805 heartbeat IPC: 0.4896 cumulative IPC: 0.4951 (Simulation time: 01 hr 16 min 24 sec)
Heartbeat CPU 1 instructions: 250000001 cycles: 94831285 heartbeat IPC: 2.261 cumulative IPC: 2.261 (Simulation time: 01 hr 18 min 56 sec)
Heartbeat CPU 1 instructions: 260000000 cycles: 99245575 heartbeat IPC: 2.265 cumulative IPC: 2.261 (Simulation time: 01 hr 21 min 59 sec)
Heartbeat CPU 1 instructions: 270000003 cycles: 103692055 heartbeat IPC: 2.249 cumulative IPC: 2.261 (Simulation time: 01 hr 25 min 02 sec)
Heartbeat CPU 1 instructions: 280000003 cycles: 108078033 heartbeat IPC: 2.28 cumulative IPC: 2.262 (Simulation time: 01 hr 28 min 04 sec)
Heartbeat CPU 2 instructions: 100000000 cycles: 111000295 heartbeat IPC: 0.5034 cumulative IPC: 0.4969 (Simulation time: 01 hr 30 min 07 sec)
Heartbeat CPU 1 instructions: 290000001 cycles: 112469875 heartbeat IPC: 2.277 cumulative IPC: 2.262 (Simulation time: 01 hr 31 min 07 sec)
Heartbeat CPU 1 instructions: 300000001 cycles: 116875278 heartbeat IPC: 2.27 cumulative IPC: 2.263 (Simulation time: 01 hr 34 min 09 sec)
Heartbeat CPU 3 instructions: 90000003 cycles: 117669185 heartbeat IPC: 0.2959 cumulative IPC: 0.2931 (Simulation time: 01 hr 34 min 42 sec)
Heartbeat CPU 1 instructions: 310000003 cycles: 121256460 heartbeat IPC: 2.282 cumulative IPC: 2.264 (Simulation time: 01 hr 37 min 12 sec)
Heartbeat CPU 1 instructions: 320000002 cycles: 125716312 heartbeat IPC: 2.242 cumulative IPC: 2.263 (Simulation time: 01 hr 40 min 16 sec)
Heartbeat CPU 1 instructions: 330000004 cycles: 130209671 heartbeat IPC: 2.226 cumulative IPC: 2.261 (Simulation time: 01 hr 43 min 22 sec)
Heartbeat CPU 2 instructions: 110000003 cycles: 131144860 heartbeat IPC: 0.4964 cumulative IPC: 0.4968 (Simulation time: 01 hr 44 min 01 sec)
Heartbeat CPU 1 instructions: 340000001 cycles: 134633256 heartbeat IPC: 2.261 cumulative IPC: 2.261 (Simulation time: 01 hr 46 min 25 sec)
Heartbeat CPU 0 instructions: 60000000 cycles: 136448164 heartbeat IPC: 0.08652 cumulative IPC: 0.08652 (Simulation time: 01 hr 47 min 41 sec)
Heartbeat CPU 1 instructions: 350000001 cycles: 139125374 heartbeat IPC: 2.226 cumulative IPC: 2.26 (Simulation time: 01 hr 49 min 32 sec)
Heartbeat CPU 1 instructions: 360000004 cycles: 143653862 heartbeat IPC: 2.208 cumulative IPC: 2.258 (Simulation time: 01 hr 52 min 38 sec)
Heartbeat CPU 1 instructions: 370000000 cycles: 148068055 heartbeat IPC: 2.265 cumulative IPC: 2.258 (Simulation time: 01 hr 55 min 42 sec)
Heartbeat CPU 3 instructions: 100000003 cycles: 151032768 heartbeat IPC: 0.2997 cumulative IPC: 0.2948 (Simulation time: 01 hr 57 min 45 sec)
Heartbeat CPU 2 instructions: 120000001 cycles: 151236687 heartbeat IPC: 0.4977 cumulative IPC: 0.497 (Simulation time: 01 hr 57 min 54 sec)
Heartbeat CPU 1 instructions: 380000000 cycles: 152525834 heartbeat IPC: 2.243 cumulative IPC: 2.258 (Simulation time: 01 hr 58 min 47 sec)
Heartbeat CPU 1 instructions: 390000000 cycles: 156989157 heartbeat IPC: 2.24 cumulative IPC: 2.257 (Simulation time: 02 hr 01 min 50 sec)
Heartbeat CPU 1 instructions: 400000000 cycles: 161495075 heartbeat IPC: 2.219 cumulative IPC: 2.256 (Simulation time: 02 hr 04 min 55 sec)
Heartbeat CPU 1 instructions: 410000000 cycles: 165913609 heartbeat IPC: 2.263 cumulative IPC: 2.256 (Simulation time: 02 hr 07 min 57 sec)
Heartbeat CPU 1 instructions: 420000004 cycles: 170395561 heartbeat IPC: 2.231 cumulative IPC: 2.255 (Simulation time: 02 hr 11 min 03 sec)
Heartbeat CPU 2 instructions: 130000004 cycles: 171467830 heartbeat IPC: 0.4943 cumulative IPC: 0.4966 (Simulation time: 02 hr 11 min 47 sec)
Heartbeat CPU 1 instructions: 430000002 cycles: 174888646 heartbeat IPC: 2.226 cumulative IPC: 2.255 (Simulation time: 02 hr 14 min 08 sec)
Heartbeat CPU 1 instructions: 440000003 cycles: 179369647 heartbeat IPC: 2.232 cumulative IPC: 2.254 (Simulation time: 02 hr 17 min 13 sec)
Heartbeat CPU 1 instructions: 450000003 cycles: 183779493 heartbeat IPC: 2.268 cumulative IPC: 2.254 (Simulation time: 02 hr 20 min 16 sec)
Heartbeat CPU 3 instructions: 110000002 cycles: 184583410 heartbeat IPC: 0.2981 cumulative IPC: 0.2954 (Simulation time: 02 hr 20 min 50 sec)
Heartbeat CPU 1 instructions: 460000003 cycles: 188277838 heartbeat IPC: 2.223 cumulative IPC: 2.253 (Simulation time: 02 hr 23 min 22 sec)
Heartbeat CPU 2 instructions: 140000002 cycles: 191496389 heartbeat IPC: 0.4993 cumulative IPC: 0.4969 (Simulation time: 02 hr 25 min 35 sec)
Heartbeat CPU 1 instructions: 470000002 cycles: 192624802 heartbeat IPC: 2.3 cumulative IPC: 2.255 (Simulation time: 02 hr 26 min 22 sec)
Heartbeat CPU 1 instructions: 480000000 cycles: 197006300 heartbeat IPC: 2.282 cumulative IPC: 2.255 (Simulation time: 02 hr 29 min 25 sec)
Heartbeat CPU 1 instructions: 490000002 cycles: 201314036 heartbeat IPC: 2.321 cumulative IPC: 2.257 (Simulation time: 02 hr 32 min 24 sec)
Heartbeat CPU 1 instructions: 500000000 cycles: 205657093 heartbeat IPC: 2.303 cumulative IPC: 2.258 (Simulation time: 02 hr 35 min 24 sec)
Heartbeat CPU 1 instructions: 510000004 cycles: 209967121 heartbeat IPC: 2.32 cumulative IPC: 2.259 (Simulation time: 02 hr 38 min 22 sec)
Heartbeat CPU 2 instructions: 150000002 cycles: 211872956 heartbeat IPC: 0.4908 cumulative IPC: 0.4963 (Simulation time: 02 hr 39 min 41 sec)
Heartbeat CPU 1 instructions: 520000000 cycles: 214328793 heartbeat IPC: 2.293 cumulative IPC: 2.26 (Simulation time: 02 hr 41 min 24 sec)
Heartbeat CPU 3 instructions: 120000003 cycles: 219492847 heartbeat IPC: 0.2865 cumulative IPC: 0.2939 (Simulation time: 02 hr 44 min 54 sec)
Heartbeat CPU 1 instructions: 530000002 cycles: 220527076 heartbeat IPC: 1.613 cumulative IPC: 2.24 (Simulation time: 02 hr 45 min 35 sec)
Heartbeat CPU 1 instructions: 540000003 cycles: 226068345 heartbeat IPC: 1.805 cumulative IPC: 2.228 (Simulation time: 02 hr 49 min 22 sec)
Heartbeat CPU 1 instructions: 550000002 cycles: 230399008 heartbeat IPC: 2.309 cumulative IPC: 2.23 (Simulation time: 02 hr 52 min 24 sec)
Heartbeat CPU 2 instructions: 160000004 cycles: 234219756 heartbeat IPC: 0.4475 cumulative IPC: 0.4912 (Simulation time: 02 hr 55 min 03 sec)
Heartbeat CPU 1 instructions: 560000002 cycles: 234771177 heartbeat IPC: 2.287 cumulative IPC: 2.231 (Simulation time: 02 hr 55 min 26 sec)
Heartbeat CPU 1 instructions: 570000001 cycles: 239116581 heartbeat IPC: 2.301 cumulative IPC: 2.233 (Simulation time: 02 hr 58 min 28 sec)
Heartbeat CPU 1 instructions: 580000002 cycles: 243431305 heartbeat IPC: 2.318 cumulative IPC: 2.234 (Simulation time: 03 hr 01 min 28 sec)
Heartbeat CPU 1 instructions: 590000002 cycles: 247711131 heartbeat IPC: 2.337 cumulative IPC: 2.236 (Simulation time: 03 hr 04 min 29 sec)
Heartbeat CPU 1 instructions: 600000000 cycles: 251984588 heartbeat IPC: 2.34 cumulative IPC: 2.238 (Simulation time: 03 hr 07 min 28 sec)
Heartbeat CPU 0 instructions: 70000002 cycles: 252053567 heartbeat IPC: 0.0865 cumulative IPC: 0.08651 (Simulation time: 03 hr 07 min 31 sec)
Heartbeat CPU 3 instructions: 130000000 cycles: 253856935 heartbeat IPC: 0.291 cumulative IPC: 0.2934 (Simulation time: 03 hr 08 min 47 sec)
Heartbeat CPU 2 instructions: 170000000 cycles: 254311244 heartbeat IPC: 0.4977 cumulative IPC: 0.4917 (Simulation time: 03 hr 09 min 06 sec)
Heartbeat CPU 1 instructions: 610000000 cycles: 256296467 heartbeat IPC: 2.319 cumulative IPC: 2.24 (Simulation time: 03 hr 10 min 29 sec)
Heartbeat CPU 1 instructions: 620000001 cycles: 260668442 heartbeat IPC: 2.287 cumulative IPC: 2.24 (Simulation time: 03 hr 13 min 34 sec)
Heartbeat CPU 1 instructions: 630000001 cycles: 265054930 heartbeat IPC: 2.28 cumulative IPC: 2.241 (Simulation time: 03 hr 16 min 36 sec)
Heartbeat CPU 1 instructions: 640000001 cycles: 269404692 heartbeat IPC: 2.299 cumulative IPC: 2.242 (Simulation time: 03 hr 19 min 37 sec)
Heartbeat CPU 1 instructions: 650000000 cycles: 273759083 heartbeat IPC: 2.297 cumulative IPC: 2.243 (Simulation time: 03 hr 22 min 40 sec)
Heartbeat CPU 2 instructions: 180000001 cycles: 274554682 heartbeat IPC: 0.494 cumulative IPC: 0.4919 (Simulation time: 03 hr 23 min 13 sec)
Heartbeat CPU 1 instructions: 660000002 cycles: 278144323 heartbeat IPC: 2.28 cumulative IPC: 2.244 (Simulation time: 03 hr 25 min 44 sec)
Heartbeat CPU 1 instructions: 670000001 cycles: 282576986 heartbeat IPC: 2.256 cumulative IPC: 2.244 (Simulation time: 03 hr 28 min 49 sec)
Heartbeat CPU 3 instructions: 140000003 cycles: 286914576 heartbeat IPC: 0.3025 cumulative IPC: 0.2946 (Simulation time: 03 hr 31 min 51 sec)
Heartbeat CPU 1 instructions: 680000004 cycles: 287051110 heartbeat IPC: 2.235 cumulative IPC: 2.244 (Simulation time: 03 hr 31 min 57 sec)
Heartbeat CPU 1 instructions: 690000001 cycles: 291487296 heartbeat IPC: 2.254 cumulative IPC: 2.244 (Simulation time: 03 hr 35 min 01 sec)
Heartbeat CPU 2 instructions: 190000002 cycles: 294918200 heartbeat IPC: 0.4911 cumulative IPC: 0.4918 (Simulation time: 03 hr 37 min 24 sec)
Heartbeat CPU 1 instructions: 700000000 cycles: 295939344 heartbeat IPC: 2.246 cumulative IPC: 2.244 (Simulation time: 03 hr 38 min 07 sec)
Heartbeat CPU 1 instructions: 710000002 cycles: 300410216 heartbeat IPC: 2.237 cumulative IPC: 2.244 (Simulation time: 03 hr 41 min 14 sec)
Heartbeat CPU 1 instructions: 720000004 cycles: 304904435 heartbeat IPC: 2.225 cumulative IPC: 2.244 (Simulation time: 03 hr 44 min 20 sec)
Heartbeat CPU 1 instructions: 730000002 cycles: 309348283 heartbeat IPC: 2.25 cumulative IPC: 2.244 (Simulation time: 03 hr 47 min 27 sec)
Heartbeat CPU 1 instructions: 740000004 cycles: 313776299 heartbeat IPC: 2.258 cumulative IPC: 2.244 (Simulation time: 03 hr 50 min 30 sec)
Heartbeat CPU 2 instructions: 200000002 cycles: 314994870 heartbeat IPC: 0.4981 cumulative IPC: 0.4923 (Simulation time: 03 hr 51 min 19 sec)
Heartbeat CPU 1 instructions: 750000001 cycles: 318283326 heartbeat IPC: 2.219 cumulative IPC: 2.243 (Simulation time: 03 hr 53 min 31 sec)
Heartbeat CPU 3 instructions: 150000000 cycles: 320893131 heartbeat IPC: 0.2943 cumulative IPC: 0.2945 (Simulation time: 03 hr 55 min 16 sec)
Heartbeat CPU 1 instructions: 760000000 cycles: 322738426 heartbeat IPC: 2.245 cumulative IPC: 2.243 (Simulation time: 03 hr 56 min 30 sec)
Simulation finished CPU 2 instructions: 150000004 cycles: 304693552 cumulative IPC: 0.4923 (Simulation time: 03 hr 58 min 25 sec)
Heartbeat CPU 1 instructions: 770000002 cycles: 327140161 heartbeat IPC: 2.272 cumulative IPC: 2.244 (Simulation time: 03 hr 59 min 28 sec)
Heartbeat CPU 1 instructions: 780000002 cycles: 331528235 heartbeat IPC: 2.279 cumulative IPC: 2.244 (Simulation time: 04 hr 02 min 26 sec)
Heartbeat CPU 2 instructions: 210000000 cycles: 335220293 heartbeat IPC: 0.4944 cumulative IPC: 0.4924 (Simulation time: 04 hr 04 min 55 sec)
Heartbeat CPU 1 instructions: 790000002 cycles: 335924973 heartbeat IPC: 2.274 cumulative IPC: 2.245 (Simulation time: 04 hr 05 min 24 sec)
Heartbeat CPU 1 instructions: 800000001 cycles: 340300772 heartbeat IPC: 2.285 cumulative IPC: 2.245 (Simulation time: 04 hr 08 min 22 sec)
Heartbeat CPU 1 instructions: 810000000 cycles: 344726951 heartbeat IPC: 2.259 cumulative IPC: 2.246 (Simulation time: 04 hr 11 min 20 sec)
Heartbeat CPU 1 instructions: 820000000 cycles: 349126141 heartbeat IPC: 2.273 cumulative IPC: 2.246 (Simulation time: 04 hr 14 min 19 sec)
Heartbeat CPU 1 instructions: 830000004 cycles: 353548939 heartbeat IPC: 2.261 cumulative IPC: 2.246 (Simulation time: 04 hr 17 min 18 sec)
Heartbeat CPU 3 instructions: 160000001 cycles: 355036690 heartbeat IPC: 0.2929 cumulative IPC: 0.2944 (Simulation time: 04 hr 18 min 18 sec)
Heartbeat CPU 2 instructions: 220000000 cycles: 355694628 heartbeat IPC: 0.4884 cumulative IPC: 0.4922 (Simulation time: 04 hr 18 min 44 sec)
Heartbeat CPU 1 instructions: 840000003 cycles: 357957407 heartbeat IPC: 2.268 cumulative IPC: 2.246 (Simulation time: 04 hr 20 min 19 sec)
Heartbeat CPU 1 instructions: 850000001 cycles: 362335561 heartbeat IPC: 2.284 cumulative IPC: 2.247 (Simulation time: 04 hr 23 min 15 sec)
Heartbeat CPU 1 instructions: 860000003 cycles: 366760286 heartbeat IPC: 2.26 cumulative IPC: 2.247 (Simulation time: 04 hr 26 min 16 sec)
Heartbeat CPU 0 instructions: 80000002 cycles: 368623056 heartbeat IPC: 0.08579 cumulative IPC: 0.08627 (Simulation time: 04 hr 27 min 31 sec)
Heartbeat CPU 1 instructions: 870000003 cycles: 371177501 heartbeat IPC: 2.264 cumulative IPC: 2.247 (Simulation time: 04 hr 29 min 14 sec)
Heartbeat CPU 1 instructions: 880000000 cycles: 375626690 heartbeat IPC: 2.248 cumulative IPC: 2.247 (Simulation time: 04 hr 32 min 15 sec)
Heartbeat CPU 2 instructions: 230000002 cycles: 376116291 heartbeat IPC: 0.4897 cumulative IPC: 0.492 (Simulation time: 04 hr 32 min 34 sec)
Heartbeat CPU 1 instructions: 890000004 cycles: 380052132 heartbeat IPC: 2.26 cumulative IPC: 2.247 (Simulation time: 04 hr 35 min 14 sec)
Heartbeat CPU 1 instructions: 900000000 cycles: 384446169 heartbeat IPC: 2.276 cumulative IPC: 2.248 (Simulation time: 04 hr 38 min 11 sec)
Heartbeat CPU 1 instructions: 910000003 cycles: 388897425 heartbeat IPC: 2.247 cumulative IPC: 2.248 (Simulation time: 04 hr 41 min 10 sec)
Heartbeat CPU 3 instructions: 170000003 cycles: 389127771 heartbeat IPC: 0.2933 cumulative IPC: 0.2943 (Simulation time: 04 hr 41 min 20 sec)
Heartbeat CPU 1 instructions: 920000001 cycles: 393285249 heartbeat IPC: 2.279 cumulative IPC: 2.248 (Simulation time: 04 hr 44 min 08 sec)
Heartbeat CPU 2 instructions: 240000003 cycles: 397083397 heartbeat IPC: 0.4769 cumulative IPC: 0.4912 (Simulation time: 04 hr 46 min 40 sec)
Heartbeat CPU 1 instructions: 930000001 cycles: 397702505 heartbeat IPC: 2.264 cumulative IPC: 2.248 (Simulation time: 04 hr 47 min 06 sec)
Heartbeat CPU 1 instructions: 940000000 cycles: 402176938 heartbeat IPC: 2.235 cumulative IPC: 2.248 (Simulation time: 04 hr 50 min 10 sec)
Heartbeat CPU 1 instructions: 950000000 cycles: 406633980 heartbeat IPC: 2.244 cumulative IPC: 2.248 (Simulation time: 04 hr 53 min 11 sec)
Heartbeat CPU 1 instructions: 960000003 cycles: 411142466 heartbeat IPC: 2.218 cumulative IPC: 2.248 (Simulation time: 04 hr 56 min 15 sec)
Heartbeat CPU 1 instructions: 970000001 cycles: 415604671 heartbeat IPC: 2.241 cumulative IPC: 2.248 (Simulation time: 04 hr 59 min 16 sec)
Heartbeat CPU 2 instructions: 250000003 cycles: 417583505 heartbeat IPC: 0.4878 cumulative IPC: 0.491 (Simulation time: 05 hr 00 min 35 sec)
Heartbeat CPU 1 instructions: 980000000 cycles: 420085056 heartbeat IPC: 2.232 cumulative IPC: 2.248 (Simulation time: 05 hr 02 min 16 sec)
Heartbeat CPU 3 instructions: 180000002 cycles: 422584733 heartbeat IPC: 0.2989 cumulative IPC: 0.2947 (Simulation time: 05 hr 03 min 59 sec)
Heartbeat CPU 1 instructions: 990000004 cycles: 424526130 heartbeat IPC: 2.252 cumulative IPC: 2.248 (Simulation time: 05 hr 05 min 19 sec)
Heartbeat CPU 1 instructions: 1000000004 cycles: 429023456 heartbeat IPC: 2.224 cumulative IPC: 2.247 (Simulation time: 05 hr 08 min 21 sec)
Heartbeat CPU 1 instructions: 1010000000 cycles: 433492638 heartbeat IPC: 2.238 cumulative IPC: 2.247 (Simulation time: 05 hr 11 min 21 sec)
Heartbeat CPU 1 instructions: 1020000002 cycles: 437898511 heartbeat IPC: 2.27 cumulative IPC: 2.247 (Simulation time: 05 hr 14 min 21 sec)
Heartbeat CPU 2 instructions: 260000001 cycles: 437946097 heartbeat IPC: 0.4911 cumulative IPC: 0.491 (Simulation time: 05 hr 14 min 23 sec)
Heartbeat CPU 1 instructions: 1030000004 cycles: 442307656 heartbeat IPC: 2.268 cumulative IPC: 2.248 (Simulation time: 05 hr 17 min 19 sec)
Heartbeat CPU 1 instructions: 1040000001 cycles: 446656648 heartbeat IPC: 2.299 cumulative IPC: 2.248 (Simulation time: 05 hr 20 min 14 sec)
Heartbeat CPU 1 instructions: 1050000004 cycles: 450943014 heartbeat IPC: 2.333 cumulative IPC: 2.249 (Simulation time: 05 hr 23 min 09 sec)
Heartbeat CPU 1 instructions: 1060000001 cycles: 455284899 heartbeat IPC: 2.303 cumulative IPC: 2.25 (Simulation time: 05 hr 26 min 04 sec)
Heartbeat CPU 3 instructions: 190000002 cycles: 456280161 heartbeat IPC: 0.2968 cumulative IPC: 0.2948 (Simulation time: 05 hr 26 min 45 sec)
Heartbeat CPU 2 instructions: 270000004 cycles: 458208448 heartbeat IPC: 0.4935 cumulative IPC: 0.4911 (Simulation time: 05 hr 28 min 04 sec)
Heartbeat CPU 1 instructions: 1070000000 cycles: 459611232 heartbeat IPC: 2.311 cumulative IPC: 2.25 (Simulation time: 05 hr 29 min 02 sec)
Heartbeat CPU 1 instructions: 1080000000 cycles: 463953685 heartbeat IPC: 2.303 cumulative IPC: 2.251 (Simulation time: 05 hr 31 min 57 sec)
Heartbeat CPU 1 instructions: 1090000003 cycles: 468255916 heartbeat IPC: 2.324 cumulative IPC: 2.251 (Simulation time: 05 hr 34 min 52 sec)
Heartbeat CPU 1 instructions: 1100000000 cycles: 472537756 heartbeat IPC: 2.335 cumulative IPC: 2.252 (Simulation time: 05 hr 37 min 45 sec)
Heartbeat CPU 1 instructions: 1110000001 cycles: 476894898 heartbeat IPC: 2.295 cumulative IPC: 2.253 (Simulation time: 05 hr 40 min 40 sec)
Heartbeat CPU 2 instructions: 280000000 cycles: 478183463 heartbeat IPC: 0.5006 cumulative IPC: 0.4915 (Simulation time: 05 hr 41 min 32 sec)
Heartbeat CPU 1 instructions: 1120000004 cycles: 481204894 heartbeat IPC: 2.32 cumulative IPC: 2.253 (Simulation time: 05 hr 43 min 34 sec)
Heartbeat CPU 0 instructions: 90000001 cycles: 481616443 heartbeat IPC: 0.0885 cumulative IPC: 0.08682 (Simulation time: 05 hr 43 min 50 sec)
Heartbeat CPU 1 instructions: 1130000000 cycles: 485605455 heartbeat IPC: 2.272 cumulative IPC: 2.253 (Simulation time: 05 hr 46 min 32 sec)
Heartbeat CPU 3 instructions: 200000001 cycles: 489646948 heartbeat IPC: 0.2997 cumulative IPC: 0.2952 (Simulation time: 05 hr 49 min 16 sec)
Heartbeat CPU 1 instructions: 1140000002 cycles: 489941569 heartbeat IPC: 2.306 cumulative IPC: 2.254 (Simulation time: 05 hr 49 min 28 sec)
Heartbeat CPU 1 instructions: 1150000000 cycles: 494208898 heartbeat IPC: 2.343 cumulative IPC: 2.255 (Simulation time: 05 hr 52 min 21 sec)
Heartbeat CPU 2 instructions: 290000001 cycles: 500598914 heartbeat IPC: 0.4461 cumulative IPC: 0.4894 (Simulation time: 05 hr 56 min 27 sec)
Heartbeat CPU 1 instructions: 1160000001 cycles: 501583042 heartbeat IPC: 1.356 cumulative IPC: 2.241 (Simulation time: 05 hr 57 min 07 sec)
Heartbeat CPU 1 instructions: 1170000004 cycles: 505957802 heartbeat IPC: 2.286 cumulative IPC: 2.241 (Simulation time: 06 hr 00 min 03 sec)
Heartbeat CPU 1 instructions: 1180000001 cycles: 510267718 heartbeat IPC: 2.32 cumulative IPC: 2.242 (Simulation time: 06 hr 03 min 01 sec)
Heartbeat CPU 1 instructions: 1190000001 cycles: 514618257 heartbeat IPC: 2.299 cumulative IPC: 2.243 (Simulation time: 06 hr 06 min 02 sec)
Heartbeat CPU 1 instructions: 1200000001 cycles: 518909084 heartbeat IPC: 2.331 cumulative IPC: 2.243 (Simulation time: 06 hr 08 min 59 sec)
Heartbeat CPU 2 instructions: 300000003 cycles: 521141611 heartbeat IPC: 0.4868 cumulative IPC: 0.4893 (Simulation time: 06 hr 10 min 30 sec)
Heartbeat CPU 1 instructions: 1210000002 cycles: 523204757 heartbeat IPC: 2.328 cumulative IPC: 2.244 (Simulation time: 06 hr 11 min 54 sec)
Heartbeat CPU 3 instructions: 210000000 cycles: 526509927 heartbeat IPC: 0.2713 cumulative IPC: 0.2934 (Simulation time: 06 hr 14 min 07 sec)
Heartbeat CPU 1 instructions: 1220000003 cycles: 527532623 heartbeat IPC: 2.311 cumulative IPC: 2.245 (Simulation time: 06 hr 14 min 47 sec)
Heartbeat CPU 1 instructions: 1230000002 cycles: 531823922 heartbeat IPC: 2.33 cumulative IPC: 2.245 (Simulation time: 06 hr 17 min 40 sec)
Simulation finished CPU 3 instructions: 150000004 cycles: 511364282 cumulative IPC: 0.2933 (Simulation time: 06 hr 17 min 57 sec)
Heartbeat CPU 1 instructions: 1240000002 cycles: 536147455 heartbeat IPC: 2.313 cumulative IPC: 2.246 (Simulation time: 06 hr 20 min 37 sec)
Heartbeat CPU 1 instructions: 1250000003 cycles: 540503109 heartbeat IPC: 2.296 cumulative IPC: 2.246 (Simulation time: 06 hr 23 min 32 sec)
Heartbeat CPU 2 instructions: 310000000 cycles: 541383012 heartbeat IPC: 0.494 cumulative IPC: 0.4895 (Simulation time: 06 hr 24 min 07 sec)
Heartbeat CPU 1 instructions: 1260000000 cycles: 544792194 heartbeat IPC: 2.331 cumulative IPC: 2.247 (Simulation time: 06 hr 26 min 24 sec)
Heartbeat CPU 1 instructions: 1270000000 cycles: 549084115 heartbeat IPC: 2.33 cumulative IPC: 2.248 (Simulation time: 06 hr 29 min 16 sec)
Heartbeat CPU 1 instructions: 1280000001 cycles: 553360731 heartbeat IPC: 2.338 cumulative IPC: 2.248 (Simulation time: 06 hr 32 min 10 sec)
Heartbeat CPU 1 instructions: 1290000003 cycles: 557723950 heartbeat IPC: 2.292 cumulative IPC: 2.249 (Simulation time: 06 hr 35 min 05 sec)
Heartbeat CPU 3 instructions: 220000000 cycles: 560664414 heartbeat IPC: 0.2928 cumulative IPC: 0.2934 (Simulation time: 06 hr 37 min 04 sec)
Heartbeat CPU 2 instructions: 320000001 cycles: 561503797 heartbeat IPC: 0.497 cumulative IPC: 0.4898 (Simulation time: 06 hr 37 min 38 sec)
Heartbeat CPU 1 instructions: 1300000001 cycles: 562052316 heartbeat IPC: 2.31 cumulative IPC: 2.249 (Simulation time: 06 hr 38 min 00 sec)
Heartbeat CPU 1 instructions: 1310000003 cycles: 566398188 heartbeat IPC: 2.301 cumulative IPC: 2.25 (Simulation time: 06 hr 40 min 58 sec)
Heartbeat CPU 1 instructions: 1320000000 cycles: 570775063 heartbeat IPC: 2.285 cumulative IPC: 2.25 (Simulation time: 06 hr 43 min 52 sec)
Heartbeat CPU 1 instructions: 1330000004 cycles: 575163161 heartbeat IPC: 2.279 cumulative IPC: 2.25 (Simulation time: 06 hr 46 min 48 sec)
Heartbeat CPU 1 instructions: 1340000000 cycles: 579567720 heartbeat IPC: 2.27 cumulative IPC: 2.25 (Simulation time: 06 hr 49 min 46 sec)
Heartbeat CPU 2 instructions: 330000001 cycles: 581799720 heartbeat IPC: 0.4927 cumulative IPC: 0.4899 (Simulation time: 06 hr 51 min 15 sec)
Heartbeat CPU 1 instructions: 1350000001 cycles: 583988377 heartbeat IPC: 2.262 cumulative IPC: 2.25 (Simulation time: 06 hr 52 min 42 sec)
Heartbeat CPU 1 instructions: 1360000003 cycles: 588401349 heartbeat IPC: 2.266 cumulative IPC: 2.251 (Simulation time: 06 hr 55 min 28 sec)
Heartbeat CPU 1 instructions: 1370000003 cycles: 592872192 heartbeat IPC: 2.237 cumulative IPC: 2.25 (Simulation time: 06 hr 58 min 20 sec)
Heartbeat CPU 3 instructions: 230000000 cycles: 594121962 heartbeat IPC: 0.2989 cumulative IPC: 0.2937 (Simulation time: 06 hr 59 min 10 sec)
Heartbeat CPU 1 instructions: 1380000002 cycles: 597313121 heartbeat IPC: 2.252 cumulative IPC: 2.25 (Simulation time: 07 hr 01 min 13 sec)
Heartbeat CPU 1 instructions: 1390000000 cycles: 601838416 heartbeat IPC: 2.21 cumulative IPC: 2.25 (Simulation time: 07 hr 04 min 05 sec)
Heartbeat CPU 2 instructions: 340000003 cycles: 602347059 heartbeat IPC: 0.4867 cumulative IPC: 0.4898 (Simulation time: 07 hr 04 min 24 sec)
Heartbeat CPU 0 instructions: 100000000 cycles: 603915605 heartbeat IPC: 0.08177 cumulative IPC: 0.08576 (Simulation time: 07 hr 05 min 25 sec)
Heartbeat CPU 1 instructions: 1400000003 cycles: 606280928 heartbeat IPC: 2.251 cumulative IPC: 2.25 (Simulation time: 07 hr 06 min 58 sec)
Heartbeat CPU 1 instructions: 1410000002 cycles: 610668664 heartbeat IPC: 2.279 cumulative IPC: 2.25 (Simulation time: 07 hr 09 min 47 sec)
Heartbeat CPU 1 instructions: 1420000001 cycles: 615155733 heartbeat IPC: 2.229 cumulative IPC: 2.25 (Simulation time: 07 hr 12 min 41 sec)
Heartbeat CPU 1 instructions: 1430000000 cycles: 619561022 heartbeat IPC: 2.27 cumulative IPC: 2.25 (Simulation time: 07 hr 15 min 28 sec)
Heartbeat CPU 2 instructions: 350000002 cycles: 622536247 heartbeat IPC: 0.4953 cumulative IPC: 0.49 (Simulation time: 07 hr 17 min 23 sec)
Heartbeat CPU 1 instructions: 1440000000 cycles: 623986304 heartbeat IPC: 2.26 cumulative IPC: 2.25 (Simulation time: 07 hr 18 min 17 sec)
Heartbeat CPU 3 instructions: 240000004 cycles: 628030648 heartbeat IPC: 0.2949 cumulative IPC: 0.2938 (Simulation time: 07 hr 20 min 52 sec)
Heartbeat CPU 1 instructions: 1450000001 cycles: 628467573 heartbeat IPC: 2.232 cumulative IPC: 2.25 (Simulation time: 07 hr 21 min 09 sec)
Heartbeat CPU 1 instructions: 1460000004 cycles: 632920820 heartbeat IPC: 2.246 cumulative IPC: 2.25 (Simulation time: 07 hr 23 min 59 sec)
Heartbeat CPU 1 instructions: 1470000004 cycles: 637364007 heartbeat IPC: 2.251 cumulative IPC: 2.25 (Simulation time: 07 hr 26 min 49 sec)
Heartbeat CPU 1 instructions: 1480000001 cycles: 641803912 heartbeat IPC: 2.252 cumulative IPC: 2.25 (Simulation time: 07 hr 29 min 41 sec)
Heartbeat CPU 2 instructions: 360000002 cycles: 642671276 heartbeat IPC: 0.4966 cumulative IPC: 0.4902 (Simulation time: 07 hr 30 min 14 sec)
Heartbeat CPU 1 instructions: 1490000000 cycles: 646243825 heartbeat IPC: 2.252 cumulative IPC: 2.25 (Simulation time: 07 hr 32 min 31 sec)
Heartbeat CPU 1 instructions: 1500000003 cycles: 650687976 heartbeat IPC: 2.25 cumulative IPC: 2.25 (Simulation time: 07 hr 35 min 25 sec)
Heartbeat CPU 1 instructions: 1510000002 cycles: 655101190 heartbeat IPC: 2.266 cumulative IPC: 2.25 (Simulation time: 07 hr 38 min 14 sec)
Heartbeat CPU 1 instructions: 1520000003 cycles: 659533966 heartbeat IPC: 2.256 cumulative IPC: 2.25 (Simulation time: 07 hr 41 min 05 sec)
Heartbeat CPU 3 instructions: 250000000 cycles: 661220158 heartbeat IPC: 0.3013 cumulative IPC: 0.2942 (Simulation time: 07 hr 42 min 12 sec)
Heartbeat CPU 2 instructions: 370000001 cycles: 662965561 heartbeat IPC: 0.4927 cumulative IPC: 0.4903 (Simulation time: 07 hr 43 min 18 sec)
Heartbeat CPU 1 instructions: 1530000002 cycles: 663969339 heartbeat IPC: 2.255 cumulative IPC: 2.25 (Simulation time: 07 hr 43 min 57 sec)
Heartbeat CPU 1 instructions: 1540000002 cycles: 668381784 heartbeat IPC: 2.266 cumulative IPC: 2.251 (Simulation time: 07 hr 46 min 47 sec)
Heartbeat CPU 1 instructions: 1550000003 cycles: 672802281 heartbeat IPC: 2.262 cumulative IPC: 2.251 (Simulation time: 07 hr 49 min 37 sec)
Heartbeat CPU 1 instructions: 1560000002 cycles: 677165313 heartbeat IPC: 2.292 cumulative IPC: 2.251 (Simulation time: 07 hr 52 min 29 sec)
Heartbeat CPU 1 instructions: 1570000000 cycles: 681515050 heartbeat IPC: 2.299 cumulative IPC: 2.251 (Simulation time: 07 hr 55 min 14 sec)
Heartbeat CPU 2 instructions: 380000002 cycles: 683311380 heartbeat IPC: 0.4915 cumulative IPC: 0.4903 (Simulation time: 07 hr 56 min 20 sec)
Heartbeat CPU 1 instructions: 1580000000 cycles: 685887116 heartbeat IPC: 2.287 cumulative IPC: 2.251 (Simulation time: 07 hr 57 min 57 sec)
Heartbeat CPU 1 instructions: 1590000000 cycles: 690299937 heartbeat IPC: 2.266 cumulative IPC: 2.252 (Simulation time: 08 hr 00 min 46 sec)
Heartbeat CPU 3 instructions: 260000003 cycles: 694205649 heartbeat IPC: 0.3032 cumulative IPC: 0.2946 (Simulation time: 08 hr 03 min 15 sec)
Heartbeat CPU 1 instructions: 1600000003 cycles: 694701120 heartbeat IPC: 2.272 cumulative IPC: 2.252 (Simulation time: 08 hr 03 min 34 sec)
Heartbeat CPU 1 instructions: 1610000001 cycles: 699155062 heartbeat IPC: 2.245 cumulative IPC: 2.252 (Simulation time: 08 hr 06 min 26 sec)
Heartbeat CPU 1 instructions: 1620000004 cycles: 703537740 heartbeat IPC: 2.282 cumulative IPC: 2.252 (Simulation time: 08 hr 09 min 16 sec)
Heartbeat CPU 2 instructions: 390000000 cycles: 703653322 heartbeat IPC: 0.4916 cumulative IPC: 0.4903 (Simulation time: 08 hr 09 min 20 sec)
Heartbeat CPU 1 instructions: 1630000000 cycles: 707969794 heartbeat IPC: 2.256 cumulative IPC: 2.252 (Simulation time: 08 hr 12 min 06 sec)
Heartbeat CPU 1 instructions: 1640000001 cycles: 712349839 heartbeat IPC: 2.283 cumulative IPC: 2.252 (Simulation time: 08 hr 14 min 54 sec)
Heartbeat CPU 1 instructions: 1650000001 cycles: 716779542 heartbeat IPC: 2.257 cumulative IPC: 2.252 (Simulation time: 08 hr 17 min 42 sec)
Heartbeat CPU 0 instructions: 110000004 cycles: 720752119 heartbeat IPC: 0.08559 cumulative IPC: 0.08573 (Simulation time: 08 hr 20 min 15 sec)
Heartbeat CPU 1 instructions: 1660000004 cycles: 721181438 heartbeat IPC: 2.272 cumulative IPC: 2.252 (Simulation time: 08 hr 20 min 32 sec)
Heartbeat CPU 2 instructions: 400000003 cycles: 723806780 heartbeat IPC: 0.4962 cumulative IPC: 0.4905 (Simulation time: 08 hr 22 min 12 sec)
Heartbeat CPU 1 instructions: 1670000004 cycles: 725570270 heartbeat IPC: 2.279 cumulative IPC: 2.252 (Simulation time: 08 hr 23 min 19 sec)
Heartbeat CPU 3 instructions: 270000002 cycles: 727253370 heartbeat IPC: 0.3026 cumulative IPC: 0.295 (Simulation time: 08 hr 24 min 23 sec)
Heartbeat CPU 1 instructions: 1680000000 cycles: 730054276 heartbeat IPC: 2.23 cumulative IPC: 2.252 (Simulation time: 08 hr 26 min 09 sec)
Heartbeat CPU 1 instructions: 1690000003 cycles: 734460125 heartbeat IPC: 2.27 cumulative IPC: 2.252 (Simulation time: 08 hr 28 min 58 sec)
Heartbeat CPU 1 instructions: 1700000002 cycles: 738885392 heartbeat IPC: 2.26 cumulative IPC: 2.252 (Simulation time: 08 hr 31 min 48 sec)
Heartbeat CPU 1 instructions: 1710000000 cycles: 743317515 heartbeat IPC: 2.256 cumulative IPC: 2.252 (Simulation time: 08 hr 34 min 36 sec)
Heartbeat CPU 2 instructions: 410000002 cycles: 743980960 heartbeat IPC: 0.4957 cumulative IPC: 0.4906 (Simulation time: 08 hr 35 min 01 sec)
Heartbeat CPU 1 instructions: 1720000002 cycles: 747759781 heartbeat IPC: 2.251 cumulative IPC: 2.252 (Simulation time: 08 hr 37 min 25 sec)
Heartbeat CPU 1 instructions: 1730000001 cycles: 752099651 heartbeat IPC: 2.304 cumulative IPC: 2.253 (Simulation time: 08 hr 40 min 10 sec)
Heartbeat CPU 1 instructions: 1740000002 cycles: 756462144 heartbeat IPC: 2.292 cumulative IPC: 2.253 (Simulation time: 08 hr 42 min 56 sec)
Heartbeat CPU 3 instructions: 280000002 cycles: 759785740 heartbeat IPC: 0.3074 cumulative IPC: 0.2955 (Simulation time: 08 hr 45 min 05 sec)
Heartbeat CPU 1 instructions: 1750000001 cycles: 760695829 heartbeat IPC: 2.362 cumulative IPC: 2.254 (Simulation time: 08 hr 45 min 40 sec)
Heartbeat CPU 2 instructions: 420000000 cycles: 764262823 heartbeat IPC: 0.4931 cumulative IPC: 0.4907 (Simulation time: 08 hr 47 min 58 sec)
Heartbeat CPU 1 instructions: 1760000003 cycles: 764933977 heartbeat IPC: 2.36 cumulative IPC: 2.254 (Simulation time: 08 hr 48 min 24 sec)
Heartbeat CPU 1 instructions: 1770000001 cycles: 769216343 heartbeat IPC: 2.335 cumulative IPC: 2.255 (Simulation time: 08 hr 51 min 09 sec)
Heartbeat CPU 1 instructions: 1780000001 cycles: 773412481 heartbeat IPC: 2.383 cumulative IPC: 2.255 (Simulation time: 08 hr 53 min 52 sec)
Heartbeat CPU 1 instructions: 1790000004 cycles: 777656661 heartbeat IPC: 2.356 cumulative IPC: 2.256 (Simulation time: 08 hr 56 min 33 sec)
Heartbeat CPU 1 instructions: 1800000003 cycles: 781949113 heartbeat IPC: 2.33 cumulative IPC: 2.256 (Simulation time: 08 hr 59 min 16 sec)
Heartbeat CPU 2 instructions: 430000002 cycles: 784991136 heartbeat IPC: 0.4824 cumulative IPC: 0.4905 (Simulation time: 09 hr 01 min 12 sec)
Heartbeat CPU 1 instructions: 1810000002 cycles: 786253672 heartbeat IPC: 2.323 cumulative IPC: 2.257 (Simulation time: 09 hr 02 min 01 sec)
Heartbeat CPU 1 instructions: 1820000002 cycles: 790461262 heartbeat IPC: 2.377 cumulative IPC: 2.257 (Simulation time: 09 hr 04 min 44 sec)
Heartbeat CPU 3 instructions: 290000001 cycles: 792393690 heartbeat IPC: 0.3067 cumulative IPC: 0.296 (Simulation time: 09 hr 05 min 58 sec)
Heartbeat CPU 1 instructions: 1830000001 cycles: 794738936 heartbeat IPC: 2.338 cumulative IPC: 2.258 (Simulation time: 09 hr 07 min 28 sec)
Heartbeat CPU 1 instructions: 1840000001 cycles: 798991253 heartbeat IPC: 2.352 cumulative IPC: 2.258 (Simulation time: 09 hr 10 min 12 sec)
Heartbeat CPU 1 instructions: 1850000001 cycles: 803235761 heartbeat IPC: 2.356 cumulative IPC: 2.259 (Simulation time: 09 hr 12 min 53 sec)
Heartbeat CPU 2 instructions: 440000003 cycles: 805400919 heartbeat IPC: 0.49 cumulative IPC: 0.4905 (Simulation time: 09 hr 14 min 16 sec)
Heartbeat CPU 1 instructions: 1860000001 cycles: 807478182 heartbeat IPC: 2.357 cumulative IPC: 2.259 (Simulation time: 09 hr 15 min 36 sec)
Heartbeat CPU 1 instructions: 1870000002 cycles: 811792690 heartbeat IPC: 2.318 cumulative IPC: 2.26 (Simulation time: 09 hr 18 min 20 sec)
Heartbeat CPU 1 instructions: 1880000003 cycles: 816034137 heartbeat IPC: 2.358 cumulative IPC: 2.26 (Simulation time: 09 hr 21 min 04 sec)
Heartbeat CPU 1 instructions: 1890000000 cycles: 820466494 heartbeat IPC: 2.256 cumulative IPC: 2.26 (Simulation time: 09 hr 23 min 52 sec)
Heartbeat CPU 1 instructions: 1900000000 cycles: 824797140 heartbeat IPC: 2.309 cumulative IPC: 2.26 (Simulation time: 09 hr 26 min 37 sec)
Heartbeat CPU 3 instructions: 300000000 cycles: 825948235 heartbeat IPC: 0.298 cumulative IPC: 0.2961 (Simulation time: 09 hr 27 min 18 sec)
Heartbeat CPU 2 instructions: 450000003 cycles: 826179203 heartbeat IPC: 0.4813 cumulative IPC: 0.4902 (Simulation time: 09 hr 27 min 26 sec)
Heartbeat CPU 1 instructions: 1910000002 cycles: 832319908 heartbeat IPC: 1.329 cumulative IPC: 2.252 (Simulation time: 09 hr 31 min 11 sec)
Heartbeat CPU 1 instructions: 1920000001 cycles: 836661715 heartbeat IPC: 2.303 cumulative IPC: 2.252 (Simulation time: 09 hr 33 min 55 sec)
Heartbeat CPU 0 instructions: 120000004 cycles: 839552372 heartbeat IPC: 0.08417 cumulative IPC: 0.0855 (Simulation time: 09 hr 35 min 45 sec)
Heartbeat CPU 1 instructions: 1930000002 cycles: 840956162 heartbeat IPC: 2.329 cumulative IPC: 2.252 (Simulation time: 09 hr 36 min 39 sec)
Heartbeat CPU 1 instructions: 1940000002 cycles: 845335572 heartbeat IPC: 2.283 cumulative IPC: 2.253 (Simulation time: 09 hr 39 min 25 sec)
Heartbeat CPU 2 instructions: 460000001 cycles: 848205398 heartbeat IPC: 0.454 cumulative IPC: 0.4893 (Simulation time: 09 hr 41 min 14 sec)
Heartbeat CPU 1 instructions: 1950000004 cycles: 849588600 heartbeat IPC: 2.351 cumulative IPC: 2.253 (Simulation time: 09 hr 42 min 07 sec)
Heartbeat CPU 1 instructions: 1960000000 cycles: 853815631 heartbeat IPC: 2.366 cumulative IPC: 2.254 (Simulation time: 09 hr 44 min 47 sec)
Heartbeat CPU 1 instructions: 1970000004 cycles: 858086860 heartbeat IPC: 2.341 cumulative IPC: 2.254 (Simulation time: 09 hr 47 min 29 sec)
Heartbeat CPU 3 instructions: 310000002 cycles: 861418550 heartbeat IPC: 0.2819 cumulative IPC: 0.2955 (Simulation time: 09 hr 49 min 36 sec)
Heartbeat CPU 1 instructions: 1980000000 cycles: 862333580 heartbeat IPC: 2.355 cumulative IPC: 2.255 (Simulation time: 09 hr 50 min 11 sec)
Heartbeat CPU 1 instructions: 1990000002 cycles: 866581364 heartbeat IPC: 2.354 cumulative IPC: 2.255 (Simulation time: 09 hr 52 min 55 sec)
Heartbeat CPU 2 instructions: 470000001 cycles: 868429083 heartbeat IPC: 0.4945 cumulative IPC: 0.4894 (Simulation time: 09 hr 54 min 05 sec)
*** Reached end of trace: (1, "/home/grads/r/rdas40/dpc3_traces/603.bwaves_s-3699B.champsimtrace.xz")
Heartbeat CPU 1 instructions: 2000000001 cycles: 870860231 heartbeat IPC: 2.337 cumulative IPC: 2.256 (Simulation time: 09 hr 55 min 38 sec)
Heartbeat CPU 1 instructions: 2010000004 cycles: 875173782 heartbeat IPC: 2.318 cumulative IPC: 2.256 (Simulation time: 09 hr 58 min 22 sec)
Heartbeat CPU 1 instructions: 2020000004 cycles: 881036423 heartbeat IPC: 1.706 cumulative IPC: 2.252 (Simulation time: 10 hr 01 min 58 sec)
Heartbeat CPU 1 instructions: 2030000000 cycles: 887086381 heartbeat IPC: 1.653 cumulative IPC: 2.248 (Simulation time: 10 hr 05 min 40 sec)
Heartbeat CPU 2 instructions: 480000002 cycles: 891260625 heartbeat IPC: 0.438 cumulative IPC: 0.488 (Simulation time: 10 hr 08 min 17 sec)
Heartbeat CPU 1 instructions: 2040000001 cycles: 891415412 heartbeat IPC: 2.31 cumulative IPC: 2.248 (Simulation time: 10 hr 08 min 23 sec)
Heartbeat CPU 1 instructions: 2050000003 cycles: 895743644 heartbeat IPC: 2.31 cumulative IPC: 2.249 (Simulation time: 10 hr 11 min 07 sec)
Heartbeat CPU 3 instructions: 320000000 cycles: 897146325 heartbeat IPC: 0.2799 cumulative IPC: 0.2948 (Simulation time: 10 hr 12 min 00 sec)
Heartbeat CPU 1 instructions: 2060000001 cycles: 900024197 heartbeat IPC: 2.336 cumulative IPC: 2.249 (Simulation time: 10 hr 13 min 50 sec)
Heartbeat CPU 1 instructions: 2070000003 cycles: 904298832 heartbeat IPC: 2.339 cumulative IPC: 2.249 (Simulation time: 10 hr 16 min 34 sec)
Heartbeat CPU 1 instructions: 2080000002 cycles: 908549075 heartbeat IPC: 2.353 cumulative IPC: 2.25 (Simulation time: 10 hr 19 min 17 sec)
Heartbeat CPU 2 instructions: 490000001 cycles: 911491522 heartbeat IPC: 0.4943 cumulative IPC: 0.4882 (Simulation time: 10 hr 21 min 09 sec)
Heartbeat CPU 1 instructions: 2090000003 cycles: 912831060 heartbeat IPC: 2.335 cumulative IPC: 2.25 (Simulation time: 10 hr 22 min 00 sec)
Heartbeat CPU 1 instructions: 2100000003 cycles: 917197639 heartbeat IPC: 2.29 cumulative IPC: 2.251 (Simulation time: 10 hr 24 min 47 sec)
Heartbeat CPU 1 instructions: 2110000001 cycles: 921639423 heartbeat IPC: 2.251 cumulative IPC: 2.251 (Simulation time: 10 hr 27 min 37 sec)
Heartbeat CPU 1 instructions: 2120000000 cycles: 926028582 heartbeat IPC: 2.278 cumulative IPC: 2.251 (Simulation time: 10 hr 30 min 25 sec)
Heartbeat CPU 3 instructions: 330000004 cycles: 929895949 heartbeat IPC: 0.3053 cumulative IPC: 0.2952 (Simulation time: 10 hr 32 min 53 sec)
Heartbeat CPU 1 instructions: 2130000004 cycles: 930511510 heartbeat IPC: 2.231 cumulative IPC: 2.251 (Simulation time: 10 hr 33 min 17 sec)
Heartbeat CPU 2 instructions: 500000004 cycles: 931845957 heartbeat IPC: 0.4913 cumulative IPC: 0.4883 (Simulation time: 10 hr 34 min 08 sec)
Heartbeat CPU 1 instructions: 2140000001 cycles: 934939071 heartbeat IPC: 2.259 cumulative IPC: 2.251 (Simulation time: 10 hr 36 min 05 sec)
Heartbeat CPU 1 instructions: 2150000001 cycles: 939347345 heartbeat IPC: 2.268 cumulative IPC: 2.251 (Simulation time: 10 hr 38 min 52 sec)
Heartbeat CPU 1 instructions: 2160000000 cycles: 943731383 heartbeat IPC: 2.281 cumulative IPC: 2.251 (Simulation time: 10 hr 41 min 37 sec)
Heartbeat CPU 1 instructions: 2170000000 cycles: 948147092 heartbeat IPC: 2.265 cumulative IPC: 2.251 (Simulation time: 10 hr 44 min 25 sec)
Heartbeat CPU 2 instructions: 510000004 cycles: 952331410 heartbeat IPC: 0.4882 cumulative IPC: 0.4883 (Simulation time: 10 hr 47 min 03 sec)
Heartbeat CPU 1 instructions: 2180000001 cycles: 952626221 heartbeat IPC: 2.233 cumulative IPC: 2.251 (Simulation time: 10 hr 47 min 14 sec)
Heartbeat CPU 1 instructions: 2190000000 cycles: 957088513 heartbeat IPC: 2.241 cumulative IPC: 2.251 (Simulation time: 10 hr 50 min 03 sec)
Heartbeat CPU 0 instructions: 130000002 cycles: 959841000 heartbeat IPC: 0.08313 cumulative IPC: 0.0852 (Simulation time: 10 hr 51 min 50 sec)
Heartbeat CPU 1 instructions: 2200000003 cycles: 961517156 heartbeat IPC: 2.258 cumulative IPC: 2.251 (Simulation time: 10 hr 52 min 53 sec)
Heartbeat CPU 3 instructions: 340000002 cycles: 962278317 heartbeat IPC: 0.3088 cumulative IPC: 0.2957 (Simulation time: 10 hr 53 min 21 sec)
Heartbeat CPU 1 instructions: 2210000000 cycles: 966038683 heartbeat IPC: 2.212 cumulative IPC: 2.251 (Simulation time: 10 hr 55 min 44 sec)
Heartbeat CPU 1 instructions: 2220000001 cycles: 970625986 heartbeat IPC: 2.18 cumulative IPC: 2.25 (Simulation time: 10 hr 58 min 38 sec)
Heartbeat CPU 2 instructions: 520000001 cycles: 973101120 heartbeat IPC: 0.4815 cumulative IPC: 0.4881 (Simulation time: 11 hr 00 min 10 sec)
Heartbeat CPU 1 instructions: 2230000004 cycles: 975115469 heartbeat IPC: 2.227 cumulative IPC: 2.25 (Simulation time: 11 hr 01 min 27 sec)
Heartbeat CPU 1 instructions: 2240000000 cycles: 979650255 heartbeat IPC: 2.205 cumulative IPC: 2.25 (Simulation time: 11 hr 04 min 18 sec)
Heartbeat CPU 1 instructions: 2250000004 cycles: 984119970 heartbeat IPC: 2.237 cumulative IPC: 2.25 (Simulation time: 11 hr 07 min 08 sec)
Heartbeat CPU 1 instructions: 2260000000 cycles: 988544937 heartbeat IPC: 2.26 cumulative IPC: 2.25 (Simulation time: 11 hr 09 min 56 sec)
Heartbeat CPU 1 instructions: 2270000002 cycles: 993061769 heartbeat IPC: 2.214 cumulative IPC: 2.25 (Simulation time: 11 hr 12 min 47 sec)
Heartbeat CPU 2 instructions: 530000001 cycles: 993243042 heartbeat IPC: 0.4965 cumulative IPC: 0.4883 (Simulation time: 11 hr 12 min 54 sec)
Heartbeat CPU 3 instructions: 350000001 cycles: 994540511 heartbeat IPC: 0.31 cumulative IPC: 0.2962 (Simulation time: 11 hr 13 min 43 sec)
Heartbeat CPU 1 instructions: 2280000002 cycles: 997520086 heartbeat IPC: 2.243 cumulative IPC: 2.25 (Simulation time: 11 hr 15 min 35 sec)
Heartbeat CPU 1 instructions: 2290000000 cycles: 1001952095 heartbeat IPC: 2.256 cumulative IPC: 2.25 (Simulation time: 11 hr 18 min 24 sec)
Heartbeat CPU 1 instructions: 2300000001 cycles: 1006454818 heartbeat IPC: 2.221 cumulative IPC: 2.25 (Simulation time: 11 hr 21 min 16 sec)
Heartbeat CPU 1 instructions: 2310000002 cycles: 1010873432 heartbeat IPC: 2.263 cumulative IPC: 2.25 (Simulation time: 11 hr 24 min 05 sec)
Heartbeat CPU 2 instructions: 540000002 cycles: 1013577356 heartbeat IPC: 0.4918 cumulative IPC: 0.4883 (Simulation time: 11 hr 25 min 47 sec)
Heartbeat CPU 1 instructions: 2320000001 cycles: 1015294029 heartbeat IPC: 2.262 cumulative IPC: 2.25 (Simulation time: 11 hr 26 min 53 sec)
Heartbeat CPU 1 instructions: 2330000003 cycles: 1019769097 heartbeat IPC: 2.235 cumulative IPC: 2.25 (Simulation time: 11 hr 29 min 43 sec)
Heartbeat CPU 1 instructions: 2340000000 cycles: 1024254506 heartbeat IPC: 2.229 cumulative IPC: 2.25 (Simulation time: 11 hr 32 min 36 sec)
Heartbeat CPU 3 instructions: 360000000 cycles: 1027461501 heartbeat IPC: 0.3038 cumulative IPC: 0.2964 (Simulation time: 11 hr 34 min 37 sec)
Heartbeat CPU 1 instructions: 2350000000 cycles: 1028736599 heartbeat IPC: 2.231 cumulative IPC: 2.25 (Simulation time: 11 hr 35 min 25 sec)
Heartbeat CPU 1 instructions: 2360000003 cycles: 1033248480 heartbeat IPC: 2.216 cumulative IPC: 2.249 (Simulation time: 11 hr 38 min 16 sec)
Heartbeat CPU 2 instructions: 550000000 cycles: 1034351528 heartbeat IPC: 0.4814 cumulative IPC: 0.4882 (Simulation time: 11 hr 38 min 59 sec)
Heartbeat CPU 1 instructions: 2370000001 cycles: 1037731656 heartbeat IPC: 2.231 cumulative IPC: 2.249 (Simulation time: 11 hr 41 min 07 sec)
Heartbeat CPU 1 instructions: 2380000001 cycles: 1042210807 heartbeat IPC: 2.233 cumulative IPC: 2.249 (Simulation time: 11 hr 43 min 56 sec)
Heartbeat CPU 1 instructions: 2390000004 cycles: 1046675215 heartbeat IPC: 2.24 cumulative IPC: 2.249 (Simulation time: 11 hr 46 min 46 sec)
Heartbeat CPU 1 instructions: 2400000000 cycles: 1051148666 heartbeat IPC: 2.235 cumulative IPC: 2.249 (Simulation time: 11 hr 49 min 36 sec)
Heartbeat CPU 2 instructions: 560000002 cycles: 1054631059 heartbeat IPC: 0.4931 cumulative IPC: 0.4883 (Simulation time: 11 hr 51 min 48 sec)
Heartbeat CPU 1 instructions: 2410000000 cycles: 1055582181 heartbeat IPC: 2.256 cumulative IPC: 2.249 (Simulation time: 11 hr 52 min 23 sec)
Heartbeat CPU 3 instructions: 370000002 cycles: 1059787880 heartbeat IPC: 0.3093 cumulative IPC: 0.2968 (Simulation time: 11 hr 55 min 03 sec)
Heartbeat CPU 1 instructions: 2420000003 cycles: 1059974869 heartbeat IPC: 2.277 cumulative IPC: 2.249 (Simulation time: 11 hr 55 min 10 sec)
Heartbeat CPU 1 instructions: 2430000003 cycles: 1064430441 heartbeat IPC: 2.244 cumulative IPC: 2.249 (Simulation time: 11 hr 57 min 59 sec)
Heartbeat CPU 1 instructions: 2440000004 cycles: 1068851111 heartbeat IPC: 2.262 cumulative IPC: 2.249 (Simulation time: 12 hr 00 min 45 sec)
Heartbeat CPU 1 instructions: 2450000002 cycles: 1073272110 heartbeat IPC: 2.262 cumulative IPC: 2.249 (Simulation time: 12 hr 03 min 36 sec)
Heartbeat CPU 2 instructions: 570000003 cycles: 1074769305 heartbeat IPC: 0.4966 cumulative IPC: 0.4885 (Simulation time: 12 hr 04 min 34 sec)
Heartbeat CPU 0 instructions: 140000001 cycles: 1075828676 heartbeat IPC: 0.08622 cumulative IPC: 0.08531 (Simulation time: 12 hr 05 min 15 sec)
Heartbeat CPU 1 instructions: 2460000001 cycles: 1077696188 heartbeat IPC: 2.26 cumulative IPC: 2.249 (Simulation time: 12 hr 06 min 26 sec)
Heartbeat CPU 1 instructions: 2470000001 cycles: 1081941789 heartbeat IPC: 2.355 cumulative IPC: 2.25 (Simulation time: 12 hr 09 min 08 sec)
Heartbeat CPU 1 instructions: 2480000004 cycles: 1086290914 heartbeat IPC: 2.299 cumulative IPC: 2.25 (Simulation time: 12 hr 11 min 52 sec)
Heartbeat CPU 1 instructions: 2490000001 cycles: 1090540419 heartbeat IPC: 2.353 cumulative IPC: 2.25 (Simulation time: 12 hr 14 min 36 sec)
Heartbeat CPU 3 instructions: 380000001 cycles: 1092009307 heartbeat IPC: 0.3104 cumulative IPC: 0.2972 (Simulation time: 12 hr 15 min 32 sec)
Heartbeat CPU 1 instructions: 2500000000 cycles: 1094861728 heartbeat IPC: 2.314 cumulative IPC: 2.251 (Simulation time: 12 hr 17 min 22 sec)
Heartbeat CPU 2 instructions: 580000000 cycles: 1095023027 heartbeat IPC: 0.4937 cumulative IPC: 0.4886 (Simulation time: 12 hr 17 min 28 sec)
Heartbeat CPU 1 instructions: 2510000003 cycles: 1099184143 heartbeat IPC: 2.314 cumulative IPC: 2.251 (Simulation time: 12 hr 20 min 07 sec)
Heartbeat CPU 1 instructions: 2520000004 cycles: 1103517723 heartbeat IPC: 2.308 cumulative IPC: 2.251 (Simulation time: 12 hr 22 min 52 sec)
Heartbeat CPU 1 instructions: 2530000001 cycles: 1109851236 heartbeat IPC: 1.579 cumulative IPC: 2.247 (Simulation time: 12 hr 26 min 46 sec)
Heartbeat CPU 1 instructions: 2540000003 cycles: 1115509089 heartbeat IPC: 1.767 cumulative IPC: 2.245 (Simulation time: 12 hr 30 min 14 sec)
Heartbeat CPU 2 instructions: 590000003 cycles: 1117588375 heartbeat IPC: 0.4432 cumulative IPC: 0.4876 (Simulation time: 12 hr 31 min 34 sec)
Heartbeat CPU 1 instructions: 2550000001 cycles: 1119802838 heartbeat IPC: 2.329 cumulative IPC: 2.245 (Simulation time: 12 hr 32 min 59 sec)
Heartbeat CPU 1 instructions: 2560000001 cycles: 1124155294 heartbeat IPC: 2.298 cumulative IPC: 2.245 (Simulation time: 12 hr 35 min 47 sec)
Heartbeat CPU 3 instructions: 390000002 cycles: 1127175180 heartbeat IPC: 0.2844 cumulative IPC: 0.2968 (Simulation time: 12 hr 37 min 45 sec)
Heartbeat CPU 1 instructions: 2570000000 cycles: 1128445234 heartbeat IPC: 2.331 cumulative IPC: 2.246 (Simulation time: 12 hr 38 min 36 sec)
Heartbeat CPU 1 instructions: 2580000001 cycles: 1132813263 heartbeat IPC: 2.289 cumulative IPC: 2.246 (Simulation time: 12 hr 41 min 26 sec)
Heartbeat CPU 1 instructions: 2590000001 cycles: 1137087419 heartbeat IPC: 2.34 cumulative IPC: 2.246 (Simulation time: 12 hr 44 min 14 sec)
Heartbeat CPU 2 instructions: 600000004 cycles: 1137961657 heartbeat IPC: 0.4908 cumulative IPC: 0.4877 (Simulation time: 12 hr 44 min 48 sec)
Heartbeat CPU 1 instructions: 2600000004 cycles: 1141361525 heartbeat IPC: 2.34 cumulative IPC: 2.247 (Simulation time: 12 hr 46 min 58 sec)
Heartbeat CPU 1 instructions: 2610000004 cycles: 1145688864 heartbeat IPC: 2.311 cumulative IPC: 2.247 (Simulation time: 12 hr 49 min 45 sec)
Heartbeat CPU 1 instructions: 2620000000 cycles: 1150015786 heartbeat IPC: 2.311 cumulative IPC: 2.247 (Simulation time: 12 hr 52 min 32 sec)
Heartbeat CPU 1 instructions: 2630000000 cycles: 1154358162 heartbeat IPC: 2.303 cumulative IPC: 2.247 (Simulation time: 12 hr 55 min 19 sec)
Heartbeat CPU 2 instructions: 610000001 cycles: 1158455928 heartbeat IPC: 0.4879 cumulative IPC: 0.4877 (Simulation time: 12 hr 57 min 56 sec)
Heartbeat CPU 3 instructions: 400000003 cycles: 1158571488 heartbeat IPC: 0.3185 cumulative IPC: 0.2974 (Simulation time: 12 hr 58 min 00 sec)
Heartbeat CPU 1 instructions: 2640000000 cycles: 1158673324 heartbeat IPC: 2.317 cumulative IPC: 2.248 (Simulation time: 12 hr 58 min 04 sec)
Heartbeat CPU 1 instructions: 2650000004 cycles: 1163045844 heartbeat IPC: 2.287 cumulative IPC: 2.248 (Simulation time: 13 hr 00 min 51 sec)
Heartbeat CPU 1 instructions: 2660000000 cycles: 1167495253 heartbeat IPC: 2.247 cumulative IPC: 2.248 (Simulation time: 13 hr 03 min 39 sec)
Heartbeat CPU 1 instructions: 2670000000 cycles: 1171893526 heartbeat IPC: 2.274 cumulative IPC: 2.248 (Simulation time: 13 hr 06 min 28 sec)
Heartbeat CPU 1 instructions: 2680000001 cycles: 1176352822 heartbeat IPC: 2.243 cumulative IPC: 2.248 (Simulation time: 13 hr 09 min 19 sec)
Heartbeat CPU 2 instructions: 620000001 cycles: 1179291763 heartbeat IPC: 0.4799 cumulative IPC: 0.4875 (Simulation time: 13 hr 11 min 12 sec)
Heartbeat CPU 1 instructions: 2690000000 cycles: 1180760590 heartbeat IPC: 2.269 cumulative IPC: 2.248 (Simulation time: 13 hr 12 min 07 sec)
Heartbeat CPU 1 instructions: 2700000004 cycles: 1185216600 heartbeat IPC: 2.244 cumulative IPC: 2.248 (Simulation time: 13 hr 14 min 58 sec)
Heartbeat CPU 1 instructions: 2710000001 cycles: 1189684532 heartbeat IPC: 2.238 cumulative IPC: 2.248 (Simulation time: 13 hr 17 min 49 sec)
Heartbeat CPU 3 instructions: 410000002 cycles: 1190865175 heartbeat IPC: 0.3097 cumulative IPC: 0.2978 (Simulation time: 13 hr 18 min 35 sec)
Heartbeat CPU 1 instructions: 2720000003 cycles: 1194121595 heartbeat IPC: 2.254 cumulative IPC: 2.248 (Simulation time: 13 hr 20 min 38 sec)
Heartbeat CPU 0 instructions: 150000003 cycles: 1195807354 heartbeat IPC: 0.08335 cumulative IPC: 0.08511 (Simulation time: 13 hr 21 min 44 sec)
Heartbeat CPU 1 instructions: 2730000001 cycles: 1198541607 heartbeat IPC: 2.262 cumulative IPC: 2.248 (Simulation time: 13 hr 23 min 28 sec)
Heartbeat CPU 2 instructions: 630000003 cycles: 1199644644 heartbeat IPC: 0.4913 cumulative IPC: 0.4876 (Simulation time: 13 hr 24 min 11 sec)
Heartbeat CPU 1 instructions: 2740000003 cycles: 1202944618 heartbeat IPC: 2.271 cumulative IPC: 2.248 (Simulation time: 13 hr 26 min 17 sec)
Heartbeat CPU 1 instructions: 2750000000 cycles: 1207387433 heartbeat IPC: 2.251 cumulative IPC: 2.248 (Simulation time: 13 hr 29 min 08 sec)
Heartbeat CPU 1 instructions: 2760000000 cycles: 1211775064 heartbeat IPC: 2.279 cumulative IPC: 2.248 (Simulation time: 13 hr 31 min 58 sec)
Heartbeat CPU 1 instructions: 2770000001 cycles: 1216201642 heartbeat IPC: 2.259 cumulative IPC: 2.248 (Simulation time: 13 hr 34 min 52 sec)
Heartbeat CPU 2 instructions: 640000004 cycles: 1219822570 heartbeat IPC: 0.4956 cumulative IPC: 0.4877 (Simulation time: 13 hr 37 min 13 sec)
Heartbeat CPU 1 instructions: 2780000001 cycles: 1220590904 heartbeat IPC: 2.278 cumulative IPC: 2.248 (Simulation time: 13 hr 37 min 43 sec)
Heartbeat CPU 3 instructions: 420000003 cycles: 1223518448 heartbeat IPC: 0.3062 cumulative IPC: 0.298 (Simulation time: 13 hr 39 min 37 sec)
Heartbeat CPU 1 instructions: 2790000001 cycles: 1225014464 heartbeat IPC: 2.261 cumulative IPC: 2.248 (Simulation time: 13 hr 40 min 35 sec)
Heartbeat CPU 1 instructions: 2800000000 cycles: 1229399390 heartbeat IPC: 2.281 cumulative IPC: 2.248 (Simulation time: 13 hr 43 min 23 sec)
Heartbeat CPU 1 instructions: 2810000004 cycles: 1233855821 heartbeat IPC: 2.244 cumulative IPC: 2.248 (Simulation time: 13 hr 46 min 17 sec)
Heartbeat CPU 1 instructions: 2820000002 cycles: 1238320153 heartbeat IPC: 2.24 cumulative IPC: 2.248 (Simulation time: 13 hr 49 min 07 sec)
Heartbeat CPU 2 instructions: 650000000 cycles: 1240303481 heartbeat IPC: 0.4883 cumulative IPC: 0.4878 (Simulation time: 13 hr 50 min 25 sec)
Heartbeat CPU 1 instructions: 2830000003 cycles: 1242764677 heartbeat IPC: 2.25 cumulative IPC: 2.248 (Simulation time: 13 hr 52 min 00 sec)
Heartbeat CPU 1 instructions: 2840000002 cycles: 1247263963 heartbeat IPC: 2.223 cumulative IPC: 2.248 (Simulation time: 13 hr 54 min 50 sec)
Heartbeat CPU 1 instructions: 2850000000 cycles: 1251641324 heartbeat IPC: 2.284 cumulative IPC: 2.248 (Simulation time: 13 hr 57 min 37 sec)
Heartbeat CPU 1 instructions: 2860000002 cycles: 1256084773 heartbeat IPC: 2.251 cumulative IPC: 2.248 (Simulation time: 14 hr 00 min 25 sec)
Heartbeat CPU 3 instructions: 430000001 cycles: 1257029806 heartbeat IPC: 0.2984 cumulative IPC: 0.298 (Simulation time: 14 hr 01 min 01 sec)
Heartbeat CPU 1 instructions: 2870000002 cycles: 1260452733 heartbeat IPC: 2.289 cumulative IPC: 2.249 (Simulation time: 14 hr 03 min 12 sec)
Heartbeat CPU 2 instructions: 660000002 cycles: 1260802258 heartbeat IPC: 0.4878 cumulative IPC: 0.4878 (Simulation time: 14 hr 03 min 26 sec)
Heartbeat CPU 1 instructions: 2880000001 cycles: 1264843896 heartbeat IPC: 2.277 cumulative IPC: 2.249 (Simulation time: 14 hr 06 min 00 sec)
Heartbeat CPU 1 instructions: 2890000003 cycles: 1269243305 heartbeat IPC: 2.273 cumulative IPC: 2.249 (Simulation time: 14 hr 08 min 50 sec)
Heartbeat CPU 1 instructions: 2900000001 cycles: 1273673526 heartbeat IPC: 2.257 cumulative IPC: 2.249 (Simulation time: 14 hr 11 min 39 sec)
Heartbeat CPU 1 instructions: 2910000002 cycles: 1278118924 heartbeat IPC: 2.25 cumulative IPC: 2.249 (Simulation time: 14 hr 14 min 30 sec)
Heartbeat CPU 2 instructions: 670000004 cycles: 1281346134 heartbeat IPC: 0.4868 cumulative IPC: 0.4877 (Simulation time: 14 hr 16 min 32 sec)
Heartbeat CPU 1 instructions: 2920000000 cycles: 1282536543 heartbeat IPC: 2.264 cumulative IPC: 2.249 (Simulation time: 14 hr 17 min 18 sec)
Heartbeat CPU 1 instructions: 2930000000 cycles: 1287005236 heartbeat IPC: 2.238 cumulative IPC: 2.249 (Simulation time: 14 hr 20 min 12 sec)
Heartbeat CPU 3 instructions: 440000003 cycles: 1290341903 heartbeat IPC: 0.3002 cumulative IPC: 0.2981 (Simulation time: 14 hr 22 min 24 sec)
Heartbeat CPU 1 instructions: 2940000004 cycles: 1291507208 heartbeat IPC: 2.221 cumulative IPC: 2.249 (Simulation time: 14 hr 23 min 08 sec)
Heartbeat CPU 1 instructions: 2950000004 cycles: 1295927746 heartbeat IPC: 2.262 cumulative IPC: 2.249 (Simulation time: 14 hr 26 min 00 sec)
Heartbeat CPU 1 instructions: 2960000004 cycles: 1300365406 heartbeat IPC: 2.253 cumulative IPC: 2.249 (Simulation time: 14 hr 28 min 49 sec)
Heartbeat CPU 2 instructions: 680000002 cycles: 1301747696 heartbeat IPC: 0.4902 cumulative IPC: 0.4878 (Simulation time: 14 hr 29 min 42 sec)
Heartbeat CPU 1 instructions: 2970000000 cycles: 1304717367 heartbeat IPC: 2.298 cumulative IPC: 2.249 (Simulation time: 14 hr 31 min 34 sec)
Heartbeat CPU 1 instructions: 2980000004 cycles: 1309200583 heartbeat IPC: 2.231 cumulative IPC: 2.249 (Simulation time: 14 hr 34 min 24 sec)
Heartbeat CPU 1 instructions: 2990000003 cycles: 1313629796 heartbeat IPC: 2.258 cumulative IPC: 2.249 (Simulation time: 14 hr 37 min 15 sec)
Heartbeat CPU 0 instructions: 160000002 cycles: 1315266800 heartbeat IPC: 0.08371 cumulative IPC: 0.08498 (Simulation time: 14 hr 38 min 18 sec)
Heartbeat CPU 1 instructions: 3000000003 cycles: 1318080371 heartbeat IPC: 2.247 cumulative IPC: 2.249 (Simulation time: 14 hr 40 min 06 sec)
Heartbeat CPU 2 instructions: 690000004 cycles: 1322346178 heartbeat IPC: 0.4855 cumulative IPC: 0.4877 (Simulation time: 14 hr 42 min 45 sec)
Heartbeat CPU 1 instructions: 3010000001 cycles: 1322569137 heartbeat IPC: 2.228 cumulative IPC: 2.249 (Simulation time: 14 hr 42 min 54 sec)
Heartbeat CPU 3 instructions: 450000002 cycles: 1322683998 heartbeat IPC: 0.3092 cumulative IPC: 0.2983 (Simulation time: 14 hr 42 min 58 sec)
Heartbeat CPU 1 instructions: 3020000001 cycles: 1326988669 heartbeat IPC: 2.263 cumulative IPC: 2.249 (Simulation time: 14 hr 45 min 44 sec)
Heartbeat CPU 1 instructions: 3030000003 cycles: 1331341865 heartbeat IPC: 2.297 cumulative IPC: 2.249 (Simulation time: 14 hr 48 min 31 sec)
Heartbeat CPU 1 instructions: 3040000000 cycles: 1335738000 heartbeat IPC: 2.275 cumulative IPC: 2.249 (Simulation time: 14 hr 51 min 20 sec)
Heartbeat CPU 1 instructions: 3050000000 cycles: 1340027919 heartbeat IPC: 2.331 cumulative IPC: 2.249 (Simulation time: 14 hr 54 min 05 sec)
Heartbeat CPU 2 instructions: 700000002 cycles: 1343053765 heartbeat IPC: 0.4829 cumulative IPC: 0.4877 (Simulation time: 14 hr 56 min 00 sec)
Heartbeat CPU 1 instructions: 3060000000 cycles: 1344296997 heartbeat IPC: 2.342 cumulative IPC: 2.25 (Simulation time: 14 hr 56 min 48 sec)
Heartbeat CPU 1 instructions: 3070000004 cycles: 1348631013 heartbeat IPC: 2.307 cumulative IPC: 2.25 (Simulation time: 14 hr 59 min 33 sec)
Heartbeat CPU 1 instructions: 3080000002 cycles: 1352998498 heartbeat IPC: 2.29 cumulative IPC: 2.25 (Simulation time: 15 hr 02 min 22 sec)
Heartbeat CPU 3 instructions: 460000004 cycles: 1353451127 heartbeat IPC: 0.325 cumulative IPC: 0.2989 (Simulation time: 15 hr 02 min 40 sec)
Heartbeat CPU 1 instructions: 3090000004 cycles: 1357343786 heartbeat IPC: 2.301 cumulative IPC: 2.25 (Simulation time: 15 hr 05 min 06 sec)
Heartbeat CPU 1 instructions: 3100000004 cycles: 1361682919 heartbeat IPC: 2.305 cumulative IPC: 2.25 (Simulation time: 15 hr 07 min 52 sec)
Heartbeat CPU 2 instructions: 710000000 cycles: 1363633299 heartbeat IPC: 0.4859 cumulative IPC: 0.4876 (Simulation time: 15 hr 09 min 06 sec)
Heartbeat CPU 1 instructions: 3110000000 cycles: 1366049975 heartbeat IPC: 2.29 cumulative IPC: 2.25 (Simulation time: 15 hr 10 min 39 sec)
Heartbeat CPU 1 instructions: 3120000003 cycles: 1370313620 heartbeat IPC: 2.345 cumulative IPC: 2.251 (Simulation time: 15 hr 13 min 22 sec)
Heartbeat CPU 1 instructions: 3130000002 cycles: 1374653025 heartbeat IPC: 2.304 cumulative IPC: 2.251 (Simulation time: 15 hr 16 min 08 sec)
Heartbeat CPU 1 instructions: 3140000001 cycles: 1379012461 heartbeat IPC: 2.294 cumulative IPC: 2.251 (Simulation time: 15 hr 18 min 58 sec)
Heartbeat CPU 1 instructions: 3150000002 cycles: 1383251819 heartbeat IPC: 2.359 cumulative IPC: 2.251 (Simulation time: 15 hr 21 min 42 sec)
Heartbeat CPU 2 instructions: 720000001 cycles: 1384006929 heartbeat IPC: 0.4908 cumulative IPC: 0.4877 (Simulation time: 15 hr 22 min 10 sec)
Heartbeat CPU 3 instructions: 470000004 cycles: 1384891660 heartbeat IPC: 0.3181 cumulative IPC: 0.2994 (Simulation time: 15 hr 22 min 42 sec)
Heartbeat CPU 1 instructions: 3160000000 cycles: 1390681796 heartbeat IPC: 1.346 cumulative IPC: 2.246 (Simulation time: 15 hr 26 min 15 sec)
Heartbeat CPU 1 instructions: 3170000003 cycles: 1395062448 heartbeat IPC: 2.283 cumulative IPC: 2.247 (Simulation time: 15 hr 29 min 02 sec)
Heartbeat CPU 1 instructions: 3180000000 cycles: 1399318740 heartbeat IPC: 2.349 cumulative IPC: 2.247 (Simulation time: 15 hr 31 min 46 sec)
Heartbeat CPU 1 instructions: 3190000000 cycles: 1403658647 heartbeat IPC: 2.304 cumulative IPC: 2.247 (Simulation time: 15 hr 34 min 32 sec)
Heartbeat CPU 2 instructions: 730000003 cycles: 1406228110 heartbeat IPC: 0.45 cumulative IPC: 0.4871 (Simulation time: 15 hr 36 min 11 sec)
Heartbeat CPU 1 instructions: 3200000000 cycles: 1407949070 heartbeat IPC: 2.331 cumulative IPC: 2.247 (Simulation time: 15 hr 37 min 18 sec)
Heartbeat CPU 1 instructions: 3210000001 cycles: 1412233881 heartbeat IPC: 2.334 cumulative IPC: 2.248 (Simulation time: 15 hr 40 min 02 sec)
Heartbeat CPU 1 instructions: 3220000002 cycles: 1416521197 heartbeat IPC: 2.332 cumulative IPC: 2.248 (Simulation time: 15 hr 42 min 47 sec)
Heartbeat CPU 3 instructions: 480000003 cycles: 1416833454 heartbeat IPC: 0.3131 cumulative IPC: 0.2997 (Simulation time: 15 hr 42 min 59 sec)
Heartbeat CPU 1 instructions: 3230000001 cycles: 1420796860 heartbeat IPC: 2.339 cumulative IPC: 2.248 (Simulation time: 15 hr 45 min 30 sec)
Heartbeat CPU 1 instructions: 3240000001 cycles: 1425083052 heartbeat IPC: 2.333 cumulative IPC: 2.248 (Simulation time: 15 hr 48 min 15 sec)
Heartbeat CPU 2 instructions: 740000001 cycles: 1426411928 heartbeat IPC: 0.4954 cumulative IPC: 0.4872 (Simulation time: 15 hr 49 min 06 sec)
Heartbeat CPU 1 instructions: 3250000002 cycles: 1429389676 heartbeat IPC: 2.322 cumulative IPC: 2.249 (Simulation time: 15 hr 51 min 04 sec)
Heartbeat CPU 0 instructions: 170000001 cycles: 1433409123 heartbeat IPC: 0.08464 cumulative IPC: 0.08495 (Simulation time: 15 hr 53 min 38 sec)
Heartbeat CPU 1 instructions: 3260000004 cycles: 1433664727 heartbeat IPC: 2.339 cumulative IPC: 2.249 (Simulation time: 15 hr 53 min 48 sec)
Heartbeat CPU 1 instructions: 3270000004 cycles: 1437923878 heartbeat IPC: 2.348 cumulative IPC: 2.249 (Simulation time: 15 hr 56 min 33 sec)
Heartbeat CPU 1 instructions: 3280000000 cycles: 1442224153 heartbeat IPC: 2.325 cumulative IPC: 2.249 (Simulation time: 15 hr 59 min 17 sec)
Heartbeat CPU 3 instructions: 490000001 cycles: 1444675051 heartbeat IPC: 0.3592 cumulative IPC: 0.3009 (Simulation time: 16 hr 00 min 51 sec)
Heartbeat CPU 2 instructions: 750000001 cycles: 1446372934 heartbeat IPC: 0.501 cumulative IPC: 0.4874 (Simulation time: 16 hr 01 min 56 sec)
Heartbeat CPU 1 instructions: 3290000002 cycles: 1446617612 heartbeat IPC: 2.276 cumulative IPC: 2.25 (Simulation time: 16 hr 02 min 05 sec)
Heartbeat CPU 1 instructions: 3300000000 cycles: 1450943539 heartbeat IPC: 2.312 cumulative IPC: 2.25 (Simulation time: 16 hr 04 min 52 sec)
Heartbeat CPU 1 instructions: 3310000002 cycles: 1455330256 heartbeat IPC: 2.28 cumulative IPC: 2.25 (Simulation time: 16 hr 07 min 41 sec)
Heartbeat CPU 1 instructions: 3320000002 cycles: 1459745267 heartbeat IPC: 2.265 cumulative IPC: 2.25 (Simulation time: 16 hr 10 min 30 sec)
Heartbeat CPU 1 instructions: 3330000003 cycles: 1464146713 heartbeat IPC: 2.272 cumulative IPC: 2.25 (Simulation time: 16 hr 13 min 16 sec)
Heartbeat CPU 2 instructions: 760000000 cycles: 1466363603 heartbeat IPC: 0.5002 cumulative IPC: 0.4876 (Simulation time: 16 hr 14 min 42 sec)
Heartbeat CPU 1 instructions: 3340000004 cycles: 1468591534 heartbeat IPC: 2.25 cumulative IPC: 2.25 (Simulation time: 16 hr 16 min 07 sec)
Heartbeat CPU 3 instructions: 500000003 cycles: 1471344269 heartbeat IPC: 0.375 cumulative IPC: 0.3022 (Simulation time: 16 hr 17 min 52 sec)
Heartbeat CPU 1 instructions: 3350000000 cycles: 1473074126 heartbeat IPC: 2.231 cumulative IPC: 2.25 (Simulation time: 16 hr 18 min 59 sec)
Heartbeat CPU 1 instructions: 3360000002 cycles: 1477517027 heartbeat IPC: 2.251 cumulative IPC: 2.25 (Simulation time: 16 hr 21 min 51 sec)
Heartbeat CPU 1 instructions: 3370000002 cycles: 1482015342 heartbeat IPC: 2.223 cumulative IPC: 2.25 (Simulation time: 16 hr 24 min 45 sec)
Heartbeat CPU 1 instructions: 3380000001 cycles: 1486470007 heartbeat IPC: 2.245 cumulative IPC: 2.25 (Simulation time: 16 hr 27 min 38 sec)
Heartbeat CPU 2 instructions: 770000003 cycles: 1486607181 heartbeat IPC: 0.494 cumulative IPC: 0.4877 (Simulation time: 16 hr 27 min 43 sec)
Heartbeat CPU 1 instructions: 3390000004 cycles: 1490952846 heartbeat IPC: 2.231 cumulative IPC: 2.25 (Simulation time: 16 hr 30 min 28 sec)
Heartbeat CPU 1 instructions: 3400000002 cycles: 1495359216 heartbeat IPC: 2.269 cumulative IPC: 2.25 (Simulation time: 16 hr 33 min 18 sec)
Heartbeat CPU 3 instructions: 510000002 cycles: 1497275537 heartbeat IPC: 0.3856 cumulative IPC: 0.3037 (Simulation time: 16 hr 34 min 32 sec)
Heartbeat CPU 1 instructions: 3410000001 cycles: 1499761657 heartbeat IPC: 2.271 cumulative IPC: 2.25 (Simulation time: 16 hr 36 min 08 sec)
Heartbeat CPU 1 instructions: 3420000000 cycles: 1504213237 heartbeat IPC: 2.246 cumulative IPC: 2.25 (Simulation time: 16 hr 38 min 58 sec)
Heartbeat CPU 2 instructions: 780000002 cycles: 1506877738 heartbeat IPC: 0.4933 cumulative IPC: 0.4877 (Simulation time: 16 hr 40 min 40 sec)
Heartbeat CPU 1 instructions: 3430000001 cycles: 1508595444 heartbeat IPC: 2.282 cumulative IPC: 2.25 (Simulation time: 16 hr 41 min 46 sec)
Heartbeat CPU 1 instructions: 3440000001 cycles: 1513014017 heartbeat IPC: 2.263 cumulative IPC: 2.25 (Simulation time: 16 hr 44 min 37 sec)
Heartbeat CPU 1 instructions: 3450000000 cycles: 1517436872 heartbeat IPC: 2.261 cumulative IPC: 2.25 (Simulation time: 16 hr 47 min 27 sec)
Heartbeat CPU 3 instructions: 520000000 cycles: 1521319163 heartbeat IPC: 0.4159 cumulative IPC: 0.3055 (Simulation time: 16 hr 49 min 57 sec)
Heartbeat CPU 1 instructions: 3460000003 cycles: 1521800825 heartbeat IPC: 2.292 cumulative IPC: 2.25 (Simulation time: 16 hr 50 min 16 sec)
Heartbeat CPU 1 instructions: 3470000003 cycles: 1526212444 heartbeat IPC: 2.267 cumulative IPC: 2.25 (Simulation time: 16 hr 53 min 07 sec)
Heartbeat CPU 2 instructions: 790000002 cycles: 1527018896 heartbeat IPC: 0.4965 cumulative IPC: 0.4879 (Simulation time: 16 hr 53 min 38 sec)
Heartbeat CPU 1 instructions: 3480000000 cycles: 1530633274 heartbeat IPC: 2.262 cumulative IPC: 2.25 (Simulation time: 16 hr 56 min 00 sec)
Heartbeat CPU 1 instructions: 3490000003 cycles: 1535052078 heartbeat IPC: 2.263 cumulative IPC: 2.25 (Simulation time: 16 hr 58 min 49 sec)
Heartbeat CPU 1 instructions: 3500000002 cycles: 1539473214 heartbeat IPC: 2.262 cumulative IPC: 2.25 (Simulation time: 17 hr 01 min 40 sec)
Heartbeat CPU 1 instructions: 3510000001 cycles: 1543893503 heartbeat IPC: 2.262 cumulative IPC: 2.25 (Simulation time: 17 hr 04 min 32 sec)
Heartbeat CPU 3 instructions: 530000000 cycles: 1544272804 heartbeat IPC: 0.4357 cumulative IPC: 0.3074 (Simulation time: 17 hr 04 min 46 sec)
Heartbeat CPU 2 instructions: 800000003 cycles: 1547335553 heartbeat IPC: 0.4922 cumulative IPC: 0.4879 (Simulation time: 17 hr 06 min 43 sec)
Heartbeat CPU 1 instructions: 3520000002 cycles: 1548300064 heartbeat IPC: 2.269 cumulative IPC: 2.25 (Simulation time: 17 hr 07 min 21 sec)
Heartbeat CPU 0 instructions: 180000001 cycles: 1549248098 heartbeat IPC: 0.08633 cumulative IPC: 0.08506 (Simulation time: 17 hr 07 min 58 sec)
Heartbeat CPU 1 instructions: 3530000000 cycles: 1552741468 heartbeat IPC: 2.252 cumulative IPC: 2.25 (Simulation time: 17 hr 10 min 13 sec)
Heartbeat CPU 1 instructions: 3540000000 cycles: 1557125844 heartbeat IPC: 2.281 cumulative IPC: 2.25 (Simulation time: 17 hr 13 min 04 sec)
Heartbeat CPU 1 instructions: 3550000001 cycles: 1561578925 heartbeat IPC: 2.246 cumulative IPC: 2.25 (Simulation time: 17 hr 15 min 53 sec)
Heartbeat CPU 1 instructions: 3560000001 cycles: 1565994719 heartbeat IPC: 2.265 cumulative IPC: 2.25 (Simulation time: 17 hr 18 min 43 sec)
Heartbeat CPU 3 instructions: 540000001 cycles: 1566166569 heartbeat IPC: 0.4568 cumulative IPC: 0.3096 (Simulation time: 17 hr 18 min 50 sec)
Heartbeat CPU 2 instructions: 810000003 cycles: 1567753935 heartbeat IPC: 0.4898 cumulative IPC: 0.4879 (Simulation time: 17 hr 19 min 52 sec)
Heartbeat CPU 1 instructions: 3570000004 cycles: 1570378180 heartbeat IPC: 2.281 cumulative IPC: 2.251 (Simulation time: 17 hr 21 min 34 sec)
Heartbeat CPU 1 instructions: 3580000004 cycles: 1574720573 heartbeat IPC: 2.303 cumulative IPC: 2.251 (Simulation time: 17 hr 24 min 22 sec)
Heartbeat CPU 1 instructions: 3590000003 cycles: 1579116638 heartbeat IPC: 2.275 cumulative IPC: 2.251 (Simulation time: 17 hr 27 min 14 sec)
Heartbeat CPU 1 instructions: 3600000002 cycles: 1583543042 heartbeat IPC: 2.259 cumulative IPC: 2.251 (Simulation time: 17 hr 30 min 05 sec)
Heartbeat CPU 3 instructions: 550000003 cycles: 1586847422 heartbeat IPC: 0.4835 cumulative IPC: 0.3119 (Simulation time: 17 hr 32 min 12 sec)
Heartbeat CPU 2 instructions: 820000002 cycles: 1587716372 heartbeat IPC: 0.5009 cumulative IPC: 0.4881 (Simulation time: 17 hr 32 min 45 sec)
Heartbeat CPU 1 instructions: 3610000000 cycles: 1588025490 heartbeat IPC: 2.231 cumulative IPC: 2.251 (Simulation time: 17 hr 32 min 58 sec)
Heartbeat CPU 1 instructions: 3620000003 cycles: 1592436780 heartbeat IPC: 2.267 cumulative IPC: 2.251 (Simulation time: 17 hr 35 min 48 sec)
Heartbeat CPU 1 instructions: 3630000001 cycles: 1596874601 heartbeat IPC: 2.253 cumulative IPC: 2.251 (Simulation time: 17 hr 38 min 39 sec)
Heartbeat CPU 1 instructions: 3640000000 cycles: 1601240475 heartbeat IPC: 2.29 cumulative IPC: 2.251 (Simulation time: 17 hr 41 min 28 sec)
Heartbeat CPU 1 instructions: 3650000000 cycles: 1605667921 heartbeat IPC: 2.259 cumulative IPC: 2.251 (Simulation time: 17 hr 44 min 19 sec)
Heartbeat CPU 3 instructions: 560000002 cycles: 1607164180 heartbeat IPC: 0.4922 cumulative IPC: 0.3142 (Simulation time: 17 hr 45 min 17 sec)
Heartbeat CPU 2 instructions: 830000002 cycles: 1607591641 heartbeat IPC: 0.5031 cumulative IPC: 0.4883 (Simulation time: 17 hr 45 min 33 sec)
Heartbeat CPU 1 instructions: 3660000003 cycles: 1610081166 heartbeat IPC: 2.266 cumulative IPC: 2.251 (Simulation time: 17 hr 47 min 09 sec)
Heartbeat CPU 1 instructions: 3670000003 cycles: 1614523067 heartbeat IPC: 2.251 cumulative IPC: 2.251 (Simulation time: 17 hr 50 min 00 sec)
Heartbeat CPU 1 instructions: 3680000000 cycles: 1619012621 heartbeat IPC: 2.227 cumulative IPC: 2.251 (Simulation time: 17 hr 52 min 54 sec)
Heartbeat CPU 1 instructions: 3690000002 cycles: 1623429775 heartbeat IPC: 2.264 cumulative IPC: 2.251 (Simulation time: 17 hr 55 min 45 sec)
Heartbeat CPU 3 instructions: 570000000 cycles: 1626558530 heartbeat IPC: 0.5156 cumulative IPC: 0.3166 (Simulation time: 17 hr 57 min 47 sec)
Heartbeat CPU 2 instructions: 840000000 cycles: 1627770148 heartbeat IPC: 0.4956 cumulative IPC: 0.4884 (Simulation time: 17 hr 58 min 34 sec)
Heartbeat CPU 1 instructions: 3700000001 cycles: 1627817157 heartbeat IPC: 2.279 cumulative IPC: 2.251 (Simulation time: 17 hr 58 min 36 sec)
Heartbeat CPU 1 instructions: 3710000002 cycles: 1632233924 heartbeat IPC: 2.264 cumulative IPC: 2.251 (Simulation time: 18 hr 01 min 27 sec)
Heartbeat CPU 1 instructions: 3720000001 cycles: 1636680367 heartbeat IPC: 2.249 cumulative IPC: 2.251 (Simulation time: 18 hr 04 min 20 sec)
Heartbeat CPU 1 instructions: 3730000000 cycles: 1641017075 heartbeat IPC: 2.306 cumulative IPC: 2.251 (Simulation time: 18 hr 07 min 08 sec)
Heartbeat CPU 1 instructions: 3740000001 cycles: 1645362851 heartbeat IPC: 2.301 cumulative IPC: 2.251 (Simulation time: 18 hr 09 min 56 sec)
Heartbeat CPU 3 instructions: 580000004 cycles: 1645544504 heartbeat IPC: 0.5267 cumulative IPC: 0.3191 (Simulation time: 18 hr 10 min 03 sec)
Heartbeat CPU 2 instructions: 850000001 cycles: 1647854269 heartbeat IPC: 0.4979 cumulative IPC: 0.4885 (Simulation time: 18 hr 11 min 34 sec)
Heartbeat CPU 1 instructions: 3750000000 cycles: 1649589757 heartbeat IPC: 2.366 cumulative IPC: 2.252 (Simulation time: 18 hr 12 min 41 sec)
Heartbeat CPU 1 instructions: 3760000002 cycles: 1653898244 heartbeat IPC: 2.321 cumulative IPC: 2.252 (Simulation time: 18 hr 15 min 27 sec)
Heartbeat CPU 1 instructions: 3770000000 cycles: 1658249041 heartbeat IPC: 2.298 cumulative IPC: 2.252 (Simulation time: 18 hr 18 min 16 sec)
Heartbeat CPU 1 instructions: 3780000000 cycles: 1662525778 heartbeat IPC: 2.338 cumulative IPC: 2.252 (Simulation time: 18 hr 21 min 04 sec)
Heartbeat CPU 3 instructions: 590000001 cycles: 1663197166 heartbeat IPC: 0.5665 cumulative IPC: 0.3217 (Simulation time: 18 hr 21 min 30 sec)
Heartbeat CPU 0 instructions: 190000003 cycles: 1663948930 heartbeat IPC: 0.08718 cumulative IPC: 0.08521 (Simulation time: 18 hr 22 min 00 sec)
Heartbeat CPU 1 instructions: 3790000001 cycles: 1666816587 heartbeat IPC: 2.331 cumulative IPC: 2.252 (Simulation time: 18 hr 23 min 53 sec)
Heartbeat CPU 2 instructions: 860000002 cycles: 1668108151 heartbeat IPC: 0.4937 cumulative IPC: 0.4886 (Simulation time: 18 hr 24 min 44 sec)
Heartbeat CPU 1 instructions: 3800000002 cycles: 1671090368 heartbeat IPC: 2.34 cumulative IPC: 2.253 (Simulation time: 18 hr 26 min 40 sec)
Heartbeat CPU 1 instructions: 3810000001 cycles: 1675422858 heartbeat IPC: 2.308 cumulative IPC: 2.253 (Simulation time: 18 hr 29 min 29 sec)
Heartbeat CPU 1 instructions: 3820000001 cycles: 1679689305 heartbeat IPC: 2.344 cumulative IPC: 2.253 (Simulation time: 18 hr 32 min 16 sec)
Heartbeat CPU 3 instructions: 600000000 cycles: 1680571020 heartbeat IPC: 0.5756 cumulative IPC: 0.3244 (Simulation time: 18 hr 32 min 50 sec)
Heartbeat CPU 1 instructions: 3830000000 cycles: 1684011350 heartbeat IPC: 2.314 cumulative IPC: 2.253 (Simulation time: 18 hr 35 min 05 sec)
[...]
cpu2_L2C PREFETCH REQUESTED:          0 ISSUED:          0 USEFUL:          0 USELESS:          0
cpu2_L2C AVERAGE MISS LATENCY: 2298 cycles
cpu2_L2C TOTAL        ACCESS:          0 HIT:          0 MISS:          0
cpu2_L2C LOAD         ACCESS:          0 HIT:          0 MISS:          0
cpu2_L2C RFO          ACCESS:          0 HIT:          0 MISS:          0
cpu2_L2C PREFETCH     ACCESS:          0 HIT:          0 MISS:          0
cpu2_L2C WRITE        ACCESS:          0 HIT:          0 MISS:          0
cpu2_L2C TRANSLATION  ACCESS:          0 HIT:          0 MISS:          0
cpu2_L2C PREFETCH REQUESTED:          0 ISSUED:          0 USEFUL:          0 USELESS:          0
cpu2_L2C AVERAGE MISS LATENCY: 2298 cycles
cpu2_L2C TOTAL        ACCESS:   18322291 HIT:   16752800 MISS:    1569491
cpu2_L2C LOAD         ACCESS:   16326525 HIT:   14782145 MISS:    1544380
cpu2_L2C RFO          ACCESS:     674738 HIT:     672180 MISS:       2558
cpu2_L2C PREFETCH     ACCESS:          0 HIT:          0 MISS:          0
cpu2_L2C WRITE        ACCESS:    1292994 HIT:    1292994 MISS:          0
cpu2_L2C TRANSLATION  ACCESS:      28034 HIT:       5481 MISS:      22553
cpu2_L2C PREFETCH REQUESTED:          0 ISSUED:          0 USEFUL:          0 USELESS:          0
cpu2_L2C AVERAGE MISS LATENCY: 2298 cycles
cpu2_L2C TOTAL        ACCESS:          0 HIT:          0 MISS:          0
cpu2_L2C LOAD         ACCESS:          0 HIT:          0 MISS:          0
cpu2_L2C RFO          ACCESS:          0 HIT:          0 MISS:          0
cpu2_L2C PREFETCH     ACCESS:          0 HIT:          0 MISS:          0
cpu2_L2C WRITE        ACCESS:          0 HIT:          0 MISS:          0
cpu2_L2C TRANSLATION  ACCESS:          0 HIT:          0 MISS:          0
cpu2_L2C PREFETCH REQUESTED:          0 ISSUED:          0 USEFUL:          0 USELESS:          0
cpu2_L2C AVERAGE MISS LATENCY: 2298 cycles
cpu2_STLB TOTAL        ACCESS:          0 HIT:          0 MISS:          0
cpu2_STLB LOAD         ACCESS:          0 HIT:          0 MISS:          0
cpu2_STLB RFO          ACCESS:          0 HIT:          0 MISS:          0
cpu2_STLB PREFETCH     ACCESS:          0 HIT:          0 MISS:          0
cpu2_STLB WRITE        ACCESS:          0 HIT:          0 MISS:          0
cpu2_STLB TRANSLATION  ACCESS:          0 HIT:          0 MISS:          0
cpu2_STLB PREFETCH REQUESTED:          0 ISSUED:          0 USEFUL:          0 USELESS:          0
cpu2_STLB AVERAGE MISS LATENCY: 1841 cycles
cpu2_STLB TOTAL        ACCESS:          0 HIT:          0 MISS:          0
cpu2_STLB LOAD         ACCESS:          0 HIT:          0 MISS:          0
cpu2_STLB RFO          ACCESS:          0 HIT:          0 MISS:          0
cpu2_STLB PREFETCH     ACCESS:          0 HIT:          0 MISS:          0
cpu2_STLB WRITE        ACCESS:          0 HIT:          0 MISS:          0
cpu2_STLB TRANSLATION  ACCESS:          0 HIT:          0 MISS:          0
cpu2_STLB PREFETCH REQUESTED:          0 ISSUED:          0 USEFUL:          0 USELESS:          0
cpu2_STLB AVERAGE MISS LATENCY: 1841 cycles
cpu2_STLB TOTAL        ACCESS:   11317873 HIT:   11299723 MISS:      18150
cpu2_STLB LOAD         ACCESS:   11317873 HIT:   11299723 MISS:      18150
cpu2_STLB RFO          ACCESS:          0 HIT:          0 MISS:          0
cpu2_STLB PREFETCH     ACCESS:          0 HIT:          0 MISS:          0
cpu2_STLB WRITE        ACCESS:          0 HIT:          0 MISS:          0
cpu2_STLB TRANSLATION  ACCESS:          0 HIT:          0 MISS:          0
cpu2_STLB PREFETCH REQUESTED:          0 ISSUED:          0 USEFUL:          0 USELESS:          0
cpu2_STLB AVERAGE MISS LATENCY: 1841 cycles
cpu2_STLB TOTAL        ACCESS:          0 HIT:          0 MISS:          0
cpu2_STLB LOAD         ACCESS:          0 HIT:          0 MISS:          0
cpu2_STLB RFO          ACCESS:          0 HIT:          0 MISS:          0
cpu2_STLB PREFETCH     ACCESS:          0 HIT:          0 MISS:          0
cpu2_STLB WRITE        ACCESS:          0 HIT:          0 MISS:          0
cpu2_STLB TRANSLATION  ACCESS:          0 HIT:          0 MISS:          0
cpu2_STLB PREFETCH REQUESTED:          0 ISSUED:          0 USEFUL:          0 USELESS:          0
cpu2_STLB AVERAGE MISS LATENCY: 1841 cycles
cpu3_DTLB TOTAL        ACCESS:          0 HIT:          0 MISS:          0
cpu3_DTLB LOAD         ACCESS:          0 HIT:          0 MISS:          0
cpu3_DTLB RFO          ACCESS:          0 HIT:          0 MISS:          0
cpu3_DTLB PREFETCH     ACCESS:          0 HIT:          0 MISS:          0
cpu3_DTLB WRITE        ACCESS:          0 HIT:          0 MISS:          0
cpu3_DTLB TRANSLATION  ACCESS:          0 HIT:          0 MISS:          0
cpu3_DTLB PREFETCH REQUESTED:          0 ISSUED:          0 USEFUL:          0 USELESS:          0
cpu3_DTLB AVERAGE MISS LATENCY: 46.63 cycles
cpu3_DTLB TOTAL        ACCESS:          0 HIT:          0 MISS:          0
cpu3_DTLB LOAD         ACCESS:          0 HIT:          0 MISS:          0
cpu3_DTLB RFO          ACCESS:          0 HIT:          0 MISS:          0
cpu3_DTLB PREFETCH     ACCESS:          0 HIT:          0 MISS:          0
cpu3_DTLB WRITE        ACCESS:          0 HIT:          0 MISS:          0
cpu3_DTLB TRANSLATION  ACCESS:          0 HIT:          0 MISS:          0
cpu3_DTLB PREFETCH REQUESTED:          0 ISSUED:          0 USEFUL:          0 USELESS:          0
cpu3_DTLB AVERAGE MISS LATENCY: 46.63 cycles
cpu3_DTLB TOTAL        ACCESS:          0 HIT:          0 MISS:          0
cpu3_DTLB LOAD         ACCESS:          0 HIT:          0 MISS:          0
cpu3_DTLB RFO          ACCESS:          0 HIT:          0 MISS:          0
cpu3_DTLB PREFETCH     ACCESS:          0 HIT:          0 MISS:          0
cpu3_DTLB WRITE        ACCESS:          0 HIT:          0 MISS:          0
cpu3_DTLB TRANSLATION  ACCESS:          0 HIT:          0 MISS:          0
cpu3_DTLB PREFETCH REQUESTED:          0 ISSUED:          0 USEFUL:          0 USELESS:          0
cpu3_DTLB AVERAGE MISS LATENCY: 46.63 cycles
cpu3_DTLB TOTAL        ACCESS:   24189383 HIT:   23850492 MISS:     338891
cpu3_DTLB LOAD         ACCESS:   24189383 HIT:   23850492 MISS:     338891
cpu3_DTLB RFO          ACCESS:          0 HIT:          0 MISS:          0
cpu3_DTLB PREFETCH     ACCESS:          0 HIT:          0 MISS:          0
cpu3_DTLB WRITE        ACCESS:          0 HIT:          0 MISS:          0
cpu3_DTLB TRANSLATION  ACCESS:          0 HIT:          0 MISS:          0
cpu3_DTLB PREFETCH REQUESTED:          0 ISSUED:          0 USEFUL:          0 USELESS:          0
cpu3_DTLB AVERAGE MISS LATENCY: 46.63 cycles
cpu3_ITLB TOTAL        ACCESS:          0 HIT:          0 MISS:          0
cpu3_ITLB LOAD         ACCESS:          0 HIT:          0 MISS:          0
cpu3_ITLB RFO          ACCESS:          0 HIT:          0 MISS:          0
cpu3_ITLB PREFETCH     ACCESS:          0 HIT:          0 MISS:          0
cpu3_ITLB WRITE        ACCESS:          0 HIT:          0 MISS:          0
cpu3_ITLB TRANSLATION  ACCESS:          0 HIT:          0 MISS:          0
cpu3_ITLB PREFETCH REQUESTED:          0 ISSUED:          0 USEFUL:          0 USELESS:          0
cpu3_ITLB AVERAGE MISS LATENCY: -nan cycles
cpu3_ITLB TOTAL        ACCESS:          0 HIT:          0 MISS:          0
cpu3_ITLB LOAD         ACCESS:          0 HIT:          0 MISS:          0
cpu3_ITLB RFO          ACCESS:          0 HIT:          0 MISS:          0
cpu3_ITLB PREFETCH     ACCESS:          0 HIT:          0 MISS:          0
cpu3_ITLB WRITE        ACCESS:          0 HIT:          0 MISS:          0
cpu3_ITLB TRANSLATION  ACCESS:          0 HIT:          0 MISS:          0
cpu3_ITLB PREFETCH REQUESTED:          0 ISSUED:          0 USEFUL:          0 USELESS:          0
cpu3_ITLB AVERAGE MISS LATENCY: -nan cycles
cpu3_ITLB TOTAL        ACCESS:          0 HIT:          0 MISS:          0
cpu3_ITLB LOAD         ACCESS:          0 HIT:          0 MISS:          0
cpu3_ITLB RFO          ACCESS:          0 HIT:          0 MISS:          0
cpu3_ITLB PREFETCH     ACCESS:          0 HIT:          0 MISS:          0
cpu3_ITLB WRITE        ACCESS:          0 HIT:          0 MISS:          0
cpu3_ITLB TRANSLATION  ACCESS:          0 HIT:          0 MISS:          0
cpu3_ITLB PREFETCH REQUESTED:          0 ISSUED:          0 USEFUL:          0 USELESS:          0
cpu3_ITLB AVERAGE MISS LATENCY: -nan cycles
cpu3_ITLB TOTAL        ACCESS:          0 HIT:          0 MISS:          0
cpu3_ITLB LOAD         ACCESS:          0 HIT:          0 MISS:          0
cpu3_ITLB RFO          ACCESS:          0 HIT:          0 MISS:          0
cpu3_ITLB PREFETCH     ACCESS:          0 HIT:          0 MISS:          0
cpu3_ITLB WRITE        ACCESS:          0 HIT:          0 MISS:          0
cpu3_ITLB TRANSLATION  ACCESS:          0 HIT:          0 MISS:          0
cpu3_ITLB PREFETCH REQUESTED:          0 ISSUED:          0 USEFUL:          0 USELESS:          0
cpu3_ITLB AVERAGE MISS LATENCY: -nan cycles
cpu3_L1D TOTAL        ACCESS:          0 HIT:          0 MISS:          0
cpu3_L1D LOAD         ACCESS:          0 HIT:          0 MISS:          0
cpu3_L1D RFO          ACCESS:          0 HIT:          0 MISS:          0
cpu3_L1D PREFETCH     ACCESS:          0 HIT:          0 MISS:          0
cpu3_L1D WRITE        ACCESS:          0 HIT:          0 MISS:          0
cpu3_L1D TRANSLATION  ACCESS:          0 HIT:          0 MISS:          0
cpu3_L1D PREFETCH REQUESTED:  275355299 ISSUED:   23637593 USEFUL:    1791329 USELESS:     383419
cpu3_L1D AVERAGE MISS LATENCY: 501.6 cycles
cpu3_L1D TOTAL        ACCESS:          0 HIT:          0 MISS:          0
cpu3_L1D LOAD         ACCESS:          0 HIT:          0 MISS:          0
cpu3_L1D RFO          ACCESS:          0 HIT:          0 MISS:          0
cpu3_L1D PREFETCH     ACCESS:          0 HIT:          0 MISS:          0
cpu3_L1D WRITE        ACCESS:          0 HIT:          0 MISS:          0
cpu3_L1D TRANSLATION  ACCESS:          0 HIT:          0 MISS:          0
cpu3_L1D PREFETCH REQUESTED:  275355299 ISSUED:   23637593 USEFUL:    1791329 USELESS:     383419
cpu3_L1D AVERAGE MISS LATENCY: 501.6 cycles
cpu3_L1D TOTAL        ACCESS:          0 HIT:          0 MISS:          0
cpu3_L1D LOAD         ACCESS:          0 HIT:          0 MISS:          0
cpu3_L1D RFO          ACCESS:          0 HIT:          0 MISS:          0
cpu3_L1D PREFETCH     ACCESS:          0 HIT:          0 MISS:          0
cpu3_L1D WRITE        ACCESS:          0 HIT:          0 MISS:          0
cpu3_L1D TRANSLATION  ACCESS:          0 HIT:          0 MISS:          0
cpu3_L1D PREFETCH REQUESTED:  275355299 ISSUED:   23637593 USEFUL:    1791329 USELESS:     383419
cpu3_L1D AVERAGE MISS LATENCY: 501.6 cycles
cpu3_L1D TOTAL        ACCESS:   39577067 HIT:   21055970 MISS:   18521097
cpu3_L1D LOAD         ACCESS:    5263594 HIT:    3486037 MISS:    1777557
cpu3_L1D RFO          ACCESS:          0 HIT:          0 MISS:          0
cpu3_L1D PREFETCH     ACCESS:    6680178 HIT:    1208976 MISS:    5471202
cpu3_L1D WRITE        ACCESS:   27520838 HIT:   16360743 MISS:   11160095
cpu3_L1D TRANSLATION  ACCESS:     112457 HIT:        214 MISS:     112243
cpu3_L1D PREFETCH REQUESTED:  275355299 ISSUED:   23637593 USEFUL:    1791329 USELESS:     383419
cpu3_L1D AVERAGE MISS LATENCY: 501.6 cycles
cpu3_L1I TOTAL        ACCESS:          0 HIT:          0 MISS:          0
cpu3_L1I LOAD         ACCESS:          0 HIT:          0 MISS:          0
cpu3_L1I RFO          ACCESS:          0 HIT:          0 MISS:          0
cpu3_L1I PREFETCH     ACCESS:          0 HIT:          0 MISS:          0
cpu3_L1I WRITE        ACCESS:          0 HIT:          0 MISS:          0
cpu3_L1I TRANSLATION  ACCESS:          0 HIT:          0 MISS:          0
cpu3_L1I PREFETCH REQUESTED:          0 ISSUED:          0 USEFUL:          0 USELESS:          0
cpu3_L1I AVERAGE MISS LATENCY: -nan cycles
cpu3_L1I TOTAL        ACCESS:          0 HIT:          0 MISS:          0
cpu3_L1I LOAD         ACCESS:          0 HIT:          0 MISS:          0
cpu3_L1I RFO          ACCESS:          0 HIT:          0 MISS:          0
cpu3_L1I PREFETCH     ACCESS:          0 HIT:          0 MISS:          0
cpu3_L1I WRITE        ACCESS:          0 HIT:          0 MISS:          0
cpu3_L1I TRANSLATION  ACCESS:          0 HIT:          0 MISS:          0
cpu3_L1I PREFETCH REQUESTED:          0 ISSUED:          0 USEFUL:          0 USELESS:          0
cpu3_L1I AVERAGE MISS LATENCY: -nan cycles
cpu3_L1I TOTAL        ACCESS:          0 HIT:          0 MISS:          0
cpu3_L1I LOAD         ACCESS:          0 HIT:          0 MISS:          0
cpu3_L1I RFO          ACCESS:          0 HIT:          0 MISS:          0
cpu3_L1I PREFETCH     ACCESS:          0 HIT:          0 MISS:          0
cpu3_L1I WRITE        ACCESS:          0 HIT:          0 MISS:          0
cpu3_L1I TRANSLATION  ACCESS:          0 HIT:          0 MISS:          0
cpu3_L1I PREFETCH REQUESTED:          0 ISSUED:          0 USEFUL:          0 USELESS:          0
cpu3_L1I AVERAGE MISS LATENCY: -nan cycles
cpu3_L1I TOTAL        ACCESS:          0 HIT:          0 MISS:          0
cpu3_L1I LOAD         ACCESS:          0 HIT:          0 MISS:          0
cpu3_L1I RFO          ACCESS:          0 HIT:          0 MISS:          0
cpu3_L1I PREFETCH     ACCESS:          0 HIT:          0 MISS:          0
cpu3_L1I WRITE        ACCESS:          0 HIT:          0 MISS:          0
cpu3_L1I TRANSLATION  ACCESS:          0 HIT:          0 MISS:          0
cpu3_L1I PREFETCH REQUESTED:          0 ISSUED:          0 USEFUL:          0 USELESS:          0
cpu3_L1I AVERAGE MISS LATENCY: -nan cycles
cpu3_L2C TOTAL        ACCESS:          0 HIT:          0 MISS:          0
cpu3_L2C LOAD         ACCESS:          0 HIT:          0 MISS:          0
cpu3_L2C RFO          ACCESS:          0 HIT:          0 MISS:          0
cpu3_L2C PREFETCH     ACCESS:          0 HIT:          0 MISS:          0
cpu3_L2C WRITE        ACCESS:          0 HIT:          0 MISS:          0
cpu3_L2C TRANSLATION  ACCESS:          0 HIT:          0 MISS:          0
cpu3_L2C PREFETCH REQUESTED:          0 ISSUED:          0 USEFUL:          0 USELESS:          0
cpu3_L2C AVERAGE MISS LATENCY: 1422 cycles
cpu3_L2C TOTAL        ACCESS:          0 HIT:          0 MISS:          0
cpu3_L2C LOAD         ACCESS:          0 HIT:          0 MISS:          0
cpu3_L2C RFO          ACCESS:          0 HIT:          0 MISS:          0
cpu3_L2C PREFETCH     ACCESS:          0 HIT:          0 MISS:          0
cpu3_L2C WRITE        ACCESS:          0 HIT:          0 MISS:          0
cpu3_L2C TRANSLATION  ACCESS:          0 HIT:          0 MISS:          0
cpu3_L2C PREFETCH REQUESTED:          0 ISSUED:          0 USEFUL:          0 USELESS:          0
cpu3_L2C AVERAGE MISS LATENCY: 1422 cycles
cpu3_L2C TOTAL        ACCESS:          0 HIT:          0 MISS:          0
cpu3_L2C LOAD         ACCESS:          0 HIT:          0 MISS:          0
cpu3_L2C RFO          ACCESS:          0 HIT:          0 MISS:          0
cpu3_L2C PREFETCH     ACCESS:          0 HIT:          0 MISS:          0
cpu3_L2C WRITE        ACCESS:          0 HIT:          0 MISS:          0
cpu3_L2C TRANSLATION  ACCESS:          0 HIT:          0 MISS:          0
cpu3_L2C PREFETCH REQUESTED:          0 ISSUED:          0 USEFUL:          0 USELESS:          0
cpu3_L2C AVERAGE MISS LATENCY: 1422 cycles
cpu3_L2C TOTAL        ACCESS:   26853805 HIT:   17732940 MISS:    9120865
cpu3_L2C LOAD         ACCESS:    1341649 HIT:     838286 MISS:     503363
cpu3_L2C RFO          ACCESS:   10145901 HIT:    5109961 MISS:    5035940
cpu3_L2C PREFETCH     ACCESS:    5103051 HIT:    1522192 MISS:    3580859
cpu3_L2C WRITE        ACCESS:   10150961 HIT:   10150959 MISS:          2
cpu3_L2C TRANSLATION  ACCESS:     112243 HIT:     111542 MISS:        701
cpu3_L2C PREFETCH REQUESTED:          0 ISSUED:          0 USEFUL:          0 USELESS:          0
cpu3_L2C AVERAGE MISS LATENCY: 1422 cycles
cpu3_STLB TOTAL        ACCESS:          0 HIT:          0 MISS:          0
cpu3_STLB LOAD         ACCESS:          0 HIT:          0 MISS:          0
cpu3_STLB RFO          ACCESS:          0 HIT:          0 MISS:          0
cpu3_STLB PREFETCH     ACCESS:          0 HIT:          0 MISS:          0
cpu3_STLB WRITE        ACCESS:          0 HIT:          0 MISS:          0
cpu3_STLB TRANSLATION  ACCESS:          0 HIT:          0 MISS:          0
cpu3_STLB PREFETCH REQUESTED:          0 ISSUED:          0 USEFUL:          0 USELESS:          0
cpu3_STLB AVERAGE MISS LATENCY: 172.5 cycles
cpu3_STLB TOTAL        ACCESS:          0 HIT:          0 MISS:          0
cpu3_STLB LOAD         ACCESS:          0 HIT:          0 MISS:          0
cpu3_STLB RFO          ACCESS:          0 HIT:          0 MISS:          0
cpu3_STLB PREFETCH     ACCESS:          0 HIT:          0 MISS:          0
cpu3_STLB WRITE        ACCESS:          0 HIT:          0 MISS:          0
cpu3_STLB TRANSLATION  ACCESS:          0 HIT:          0 MISS:          0
cpu3_STLB PREFETCH REQUESTED:          0 ISSUED:          0 USEFUL:          0 USELESS:          0
cpu3_STLB AVERAGE MISS LATENCY: 172.5 cycles
cpu3_STLB TOTAL        ACCESS:          0 HIT:          0 MISS:          0
cpu3_STLB LOAD         ACCESS:          0 HIT:          0 MISS:          0
cpu3_STLB RFO          ACCESS:          0 HIT:          0 MISS:          0
cpu3_STLB PREFETCH     ACCESS:          0 HIT:          0 MISS:          0
cpu3_STLB WRITE        ACCESS:          0 HIT:          0 MISS:          0
cpu3_STLB TRANSLATION  ACCESS:          0 HIT:          0 MISS:          0
cpu3_STLB PREFETCH REQUESTED:          0 ISSUED:          0 USEFUL:          0 USELESS:          0
cpu3_STLB AVERAGE MISS LATENCY: 172.5 cycles
cpu3_STLB TOTAL        ACCESS:     207045 HIT:      94698 MISS:     112347
cpu3_STLB LOAD         ACCESS:     207045 HIT:      94698 MISS:     112347
cpu3_STLB RFO          ACCESS:          0 HIT:          0 MISS:          0
cpu3_STLB PREFETCH     ACCESS:          0 HIT:          0 MISS:          0
cpu3_STLB WRITE        ACCESS:          0 HIT:          0 MISS:          0
cpu3_STLB TRANSLATION  ACCESS:          0 HIT:          0 MISS:          0
cpu3_STLB PREFETCH REQUESTED:          0 ISSUED:          0 USEFUL:          0 USELESS:          0
cpu3_STLB AVERAGE MISS LATENCY: 172.5 cycles

DRAM Statistics

Channel 0 RQ ROW_BUFFER_HIT:    2950787
  ROW_BUFFER_MISS:   14551306
 AVG DBUS CONGESTED CYCLE: 3.982
WQ ROW_BUFFER_HIT: Channel 0 
  ROW_BUFFER_MISS:     282016
  FULL:   10231728

Channel 1 RQ ROW_BUFFER_HIT:    2943460
  ROW_BUFFER_MISS:   14534129
 AVG DBUS CONGESTED CYCLE: 3.982
WQ ROW_BUFFER_HIT: Channel 1 
  ROW_BUFFER_MISS:     282877
  FULL:   10229832
BERTI TO_L1: 6096148 TO_L2: 291199190 TO_L2_BC_MSHR: 91089378
BERTI AVG_LAT: 496.195 NUM_TRACK_LATENCY: 106188019 NUM_CANT_TRACK_LATENCY: 1893796
BERTI CROSS_PAGE 105037613 NO_CROSS_PAGE: 192257725
BERTI FOUND_BERTI: 126473626 NO_FOUND_BERTI: 763423122
BERTI AVERAGE_ISSUED: 3.45249
BERTI TO_L1: 6096148 TO_L2: 291199190 TO_L2_BC_MSHR: 91089378
BERTI AVG_LAT: 496.195 NUM_TRACK_LATENCY: 106188019 NUM_CANT_TRACK_LATENCY: 1893796
BERTI CROSS_PAGE 105037613 NO_CROSS_PAGE: 192257725
BERTI FOUND_BERTI: 126473626 NO_FOUND_BERTI: 763423122
BERTI AVERAGE_ISSUED: 3.45249
BERTI TO_L1: 6096148 TO_L2: 291199190 TO_L2_BC_MSHR: 91089378
BERTI AVG_LAT: 496.195 NUM_TRACK_LATENCY: 106188019 NUM_CANT_TRACK_LATENCY: 1893796
BERTI CROSS_PAGE 105037613 NO_CROSS_PAGE: 192257725
BERTI FOUND_BERTI: 126473626 NO_FOUND_BERTI: 763423122
BERTI AVERAGE_ISSUED: 3.45249
BERTI TO_L1: 6096148 TO_L2: 291199190 TO_L2_BC_MSHR: 91089378
BERTI AVG_LAT: 496.195 NUM_TRACK_LATENCY: 106188019 NUM_CANT_TRACK_LATENCY: 1893796
BERTI CROSS_PAGE 105037613 NO_CROSS_PAGE: 192257725
BERTI FOUND_BERTI: 126473626 NO_FOUND_BERTI: 763423122
BERTI AVERAGE_ISSUED: 3.45249
