Original cmd-> /home/grads/r/rdas40/ECEN676/ChampSim/bin/multi_core/berti_2ch --warmup_instructions=50000000 --simulation_instructions=150000000  /home/grads/r/rdas40/dpc3_traces/620.omnetpp_s-874B.champsimtrace.xz /home/grads/r/rdas40/dpc3_traces/607.cactuBSSN_s-2421B.champsimtrace.xz /home/grads/r/rdas40/dpc3_traces/605.mcf_s-665B.champsimtrace.xz /home/grads/r/rdas40/dpc3_traces/628.pop2_s-17B.champsimtrace.xz
WARNING: physical memory size is smaller than virtual memory size.
WARNING: option --warmup_instructions is deprecated. Use --warmup-instructions instead.
WARNING: option --simulation_instructions is deprecated. Use --simulation-instructions instead.

*** ChampSim Multicore Out-of-Order Simulator ***
Warmup Instructions: 50000000
Simulation Instructions: 150000000
Number of CPUs: 4
Page size: 4096

Berti Prefetcher
BERTI HASH ORIGINAL
BERTI IP MASK ffff
Berti Prefetcher
BERTI HASH ORIGINAL
BERTI IP MASK ffff
Berti Prefetcher
BERTI HASH ORIGINAL
BERTI IP MASK ffff
Berti Prefetcher
BERTI HASH ORIGINAL
BERTI IP MASK ffff
Off-chip DRAM Size: 8 GiB Channels: 2 Width: 64-bit Data Race: 3200 MT/s
Heartbeat CPU 3 instructions: 10000001 cycles: 2653516 heartbeat IPC: 3.769 cumulative IPC: 3.769 (Simulation time: 00 hr 03 min 34 sec)
Heartbeat CPU 2 instructions: 10000003 cycles: 3014763 heartbeat IPC: 3.317 cumulative IPC: 3.317 (Simulation time: 00 hr 04 min 03 sec)
Heartbeat CPU 1 instructions: 10000002 cycles: 3680826 heartbeat IPC: 2.717 cumulative IPC: 2.717 (Simulation time: 00 hr 04 min 57 sec)
Heartbeat CPU 0 instructions: 10000001 cycles: 4175342 heartbeat IPC: 2.395 cumulative IPC: 2.395 (Simulation time: 00 hr 05 min 38 sec)
Heartbeat CPU 3 instructions: 20000000 cycles: 5306796 heartbeat IPC: 3.769 cumulative IPC: 3.769 (Simulation time: 00 hr 07 min 10 sec)
Heartbeat CPU 2 instructions: 20000003 cycles: 6038857 heartbeat IPC: 3.307 cumulative IPC: 3.312 (Simulation time: 00 hr 08 min 09 sec)
Heartbeat CPU 1 instructions: 20000003 cycles: 7361729 heartbeat IPC: 2.717 cumulative IPC: 2.717 (Simulation time: 00 hr 09 min 58 sec)
Heartbeat CPU 3 instructions: 30000004 cycles: 7960091 heartbeat IPC: 3.769 cumulative IPC: 3.769 (Simulation time: 00 hr 10 min 46 sec)
Heartbeat CPU 0 instructions: 20000004 cycles: 8346846 heartbeat IPC: 2.397 cumulative IPC: 2.396 (Simulation time: 00 hr 11 min 18 sec)
Heartbeat CPU 2 instructions: 30000001 cycles: 9053929 heartbeat IPC: 3.317 cumulative IPC: 3.313 (Simulation time: 00 hr 12 min 16 sec)
Heartbeat CPU 3 instructions: 40000002 cycles: 10612803 heartbeat IPC: 3.77 cumulative IPC: 3.769 (Simulation time: 00 hr 14 min 24 sec)
Heartbeat CPU 1 instructions: 30000001 cycles: 11042632 heartbeat IPC: 2.717 cumulative IPC: 2.717 (Simulation time: 00 hr 14 min 59 sec)
Heartbeat CPU 2 instructions: 40000000 cycles: 12067768 heartbeat IPC: 3.318 cumulative IPC: 3.315 (Simulation time: 00 hr 16 min 23 sec)
Heartbeat CPU 0 instructions: 30000003 cycles: 12520484 heartbeat IPC: 2.396 cumulative IPC: 2.396 (Simulation time: 00 hr 17 min 00 sec)
Heartbeat CPU 3 instructions: 50000001 cycles: 13266246 heartbeat IPC: 3.769 cumulative IPC: 3.769 (Simulation time: 00 hr 18 min 01 sec)
Warmup finished CPU 3 instructions: 50000001 cycles: 13266247 cumulative IPC: 3.769 (Simulation time: 00 hr 18 min 01 sec)
Heartbeat CPU 1 instructions: 40000002 cycles: 14722541 heartbeat IPC: 2.717 cumulative IPC: 2.717 (Simulation time: 00 hr 20 min 01 sec)
Heartbeat CPU 2 instructions: 50000001 cycles: 15070673 heartbeat IPC: 3.33 cumulative IPC: 3.318 (Simulation time: 00 hr 20 min 30 sec)
Warmup finished CPU 2 instructions: 50000001 cycles: 15070674 cumulative IPC: 3.318 (Simulation time: 00 hr 20 min 30 sec)
Heartbeat CPU 3 instructions: 60000000 cycles: 15922511 heartbeat IPC: 3.765 cumulative IPC: 3.768 (Simulation time: 00 hr 21 min 39 sec)
Heartbeat CPU 0 instructions: 40000000 cycles: 16705838 heartbeat IPC: 2.389 cumulative IPC: 2.394 (Simulation time: 00 hr 22 min 44 sec)
Heartbeat CPU 2 instructions: 60000002 cycles: 18086383 heartbeat IPC: 3.316 cumulative IPC: 3.317 (Simulation time: 00 hr 24 min 37 sec)
Heartbeat CPU 1 instructions: 50000004 cycles: 18402341 heartbeat IPC: 2.718 cumulative IPC: 2.717 (Simulation time: 00 hr 25 min 03 sec)
Warmup finished CPU 1 instructions: 50000004 cycles: 18402342 cumulative IPC: 2.717 (Simulation time: 00 hr 25 min 03 sec)
Heartbeat CPU 3 instructions: 70000000 cycles: 18583698 heartbeat IPC: 3.758 cumulative IPC: 3.767 (Simulation time: 00 hr 25 min 17 sec)
Heartbeat CPU 0 instructions: 50000003 cycles: 20870576 heartbeat IPC: 2.401 cumulative IPC: 2.396 (Simulation time: 00 hr 28 min 24 sec)
Warmup finished CPU 0 instructions: 50000003 cycles: 20870577 cumulative IPC: 2.396 (Simulation time: 00 hr 28 min 24 sec)
Warmup complete CPU 0 instructions: 50000003 cycles: 20870577 cumulative IPC: 2.396 (Simulation time: 00 hr 28 min 24 sec)
Warmup complete CPU 1 instructions: 56460940 cycles: 20870577 cumulative IPC: 2.705 (Simulation time: 00 hr 28 min 24 sec)
Warmup complete CPU 2 instructions: 69230746 cycles: 20870577 cumulative IPC: 3.317 (Simulation time: 00 hr 28 min 24 sec)
Warmup complete CPU 3 instructions: 78818556 cycles: 20870577 cumulative IPC: 3.777 (Simulation time: 00 hr 28 min 24 sec)
Heartbeat CPU 3 instructions: 80000000 cycles: 21548687 heartbeat IPC: 3.373 cumulative IPC: 1.742 (Simulation time: 00 hr 28 min 55 sec)
Heartbeat CPU 2 instructions: 70000000 cycles: 22536215 heartbeat IPC: 2.247 cumulative IPC: 0.4618 (Simulation time: 00 hr 29 min 41 sec)
Heartbeat CPU 1 instructions: 60000004 cycles: 23982779 heartbeat IPC: 1.792 cumulative IPC: 1.137 (Simulation time: 00 hr 30 min 49 sec)
Heartbeat CPU 3 instructions: 90000000 cycles: 26130868 heartbeat IPC: 2.182 cumulative IPC: 2.126 (Simulation time: 00 hr 32 min 28 sec)
Heartbeat CPU 3 instructions: 100000004 cycles: 31002097 heartbeat IPC: 2.053 cumulative IPC: 2.091 (Simulation time: 00 hr 36 min 15 sec)
Heartbeat CPU 1 instructions: 70000004 cycles: 33705435 heartbeat IPC: 1.029 cumulative IPC: 1.055 (Simulation time: 00 hr 38 min 17 sec)
Heartbeat CPU 3 instructions: 110000001 cycles: 36169073 heartbeat IPC: 1.935 cumulative IPC: 2.038 (Simulation time: 00 hr 40 min 03 sec)
Heartbeat CPU 3 instructions: 120000003 cycles: 42224490 heartbeat IPC: 1.651 cumulative IPC: 1.929 (Simulation time: 00 hr 44 min 18 sec)
Heartbeat CPU 1 instructions: 80000004 cycles: 45720894 heartbeat IPC: 0.8323 cumulative IPC: 0.9472 (Simulation time: 00 hr 46 min 50 sec)
Heartbeat CPU 3 instructions: 130000004 cycles: 47162402 heartbeat IPC: 2.025 cumulative IPC: 1.947 (Simulation time: 00 hr 47 min 53 sec)
Heartbeat CPU 3 instructions: 140000003 cycles: 51563401 heartbeat IPC: 2.272 cumulative IPC: 1.993 (Simulation time: 00 hr 51 min 07 sec)
Heartbeat CPU 0 instructions: 60000000 cycles: 55494735 heartbeat IPC: 0.2888 cumulative IPC: 0.2888 (Simulation time: 00 hr 53 min 54 sec)
Heartbeat CPU 3 instructions: 150000000 cycles: 56038751 heartbeat IPC: 2.234 cumulative IPC: 2.024 (Simulation time: 00 hr 54 min 17 sec)
Heartbeat CPU 1 instructions: 90000000 cycles: 56140610 heartbeat IPC: 0.9597 cumulative IPC: 0.9509 (Simulation time: 00 hr 54 min 22 sec)
Heartbeat CPU 2 instructions: 80000000 cycles: 56337884 heartbeat IPC: 0.2958 cumulative IPC: 0.3036 (Simulation time: 00 hr 54 min 31 sec)
Heartbeat CPU 3 instructions: 160000000 cycles: 60997365 heartbeat IPC: 2.017 cumulative IPC: 2.023 (Simulation time: 00 hr 57 min 57 sec)
Heartbeat CPU 3 instructions: 170000000 cycles: 65259879 heartbeat IPC: 2.346 cumulative IPC: 2.054 (Simulation time: 01 hr 01 min 11 sec)
Heartbeat CPU 1 instructions: 100000001 cycles: 65351997 heartbeat IPC: 1.086 cumulative IPC: 0.9788 (Simulation time: 01 hr 01 min 16 sec)
Heartbeat CPU 3 instructions: 180000003 cycles: 71206147 heartbeat IPC: 1.682 cumulative IPC: 2.01 (Simulation time: 01 hr 05 min 39 sec)
Heartbeat CPU 1 instructions: 110000003 cycles: 74218495 heartbeat IPC: 1.128 cumulative IPC: 1.004 (Simulation time: 01 hr 08 min 02 sec)
Heartbeat CPU 3 instructions: 190000004 cycles: 76585726 heartbeat IPC: 1.859 cumulative IPC: 1.996 (Simulation time: 01 hr 09 min 51 sec)
Heartbeat CPU 3 instructions: 200000002 cycles: 82053535 heartbeat IPC: 1.829 cumulative IPC: 1.981 (Simulation time: 01 hr 14 min 10 sec)
Heartbeat CPU 1 instructions: 120000004 cycles: 82801399 heartbeat IPC: 1.165 cumulative IPC: 1.026 (Simulation time: 01 hr 14 min 44 sec)
Heartbeat CPU 0 instructions: 70000002 cycles: 83428693 heartbeat IPC: 0.358 cumulative IPC: 0.3197 (Simulation time: 01 hr 15 min 16 sec)
Heartbeat CPU 2 instructions: 90000004 cycles: 84511499 heartbeat IPC: 0.3549 cumulative IPC: 0.3264 (Simulation time: 01 hr 16 min 04 sec)
Heartbeat CPU 3 instructions: 210000003 cycles: 87546643 heartbeat IPC: 1.82 cumulative IPC: 1.967 (Simulation time: 01 hr 18 min 28 sec)
Heartbeat CPU 1 instructions: 130000000 cycles: 91396168 heartbeat IPC: 1.163 cumulative IPC: 1.043 (Simulation time: 01 hr 21 min 32 sec)
Heartbeat CPU 3 instructions: 220000003 cycles: 92895711 heartbeat IPC: 1.869 cumulative IPC: 1.96 (Simulation time: 01 hr 22 min 43 sec)
Simulation finished CPU 3 instructions: 150000003 cycles: 76814174 cumulative IPC: 1.953 (Simulation time: 01 hr 26 min 29 sec)
Heartbeat CPU 3 instructions: 230000004 cycles: 98298136 heartbeat IPC: 1.851 cumulative IPC: 1.953 (Simulation time: 01 hr 26 min 59 sec)
Heartbeat CPU 1 instructions: 140000002 cycles: 99923633 heartbeat IPC: 1.173 cumulative IPC: 1.057 (Simulation time: 01 hr 28 min 17 sec)
Heartbeat CPU 3 instructions: 240000000 cycles: 103632814 heartbeat IPC: 1.875 cumulative IPC: 1.948 (Simulation time: 01 hr 31 min 12 sec)
Heartbeat CPU 2 instructions: 100000000 cycles: 107129037 heartbeat IPC: 0.4421 cumulative IPC: 0.3567 (Simulation time: 01 hr 33 min 56 sec)
Heartbeat CPU 1 instructions: 150000004 cycles: 108596009 heartbeat IPC: 1.153 cumulative IPC: 1.066 (Simulation time: 01 hr 35 min 06 sec)
Heartbeat CPU 3 instructions: 250000003 cycles: 108766052 heartbeat IPC: 1.948 cumulative IPC: 1.948 (Simulation time: 01 hr 35 min 15 sec)
Heartbeat CPU 0 instructions: 80000002 cycles: 110455501 heartbeat IPC: 0.37 cumulative IPC: 0.3349 (Simulation time: 01 hr 36 min 39 sec)
Heartbeat CPU 3 instructions: 260000000 cycles: 113343810 heartbeat IPC: 2.184 cumulative IPC: 1.959 (Simulation time: 01 hr 38 min 49 sec)
Heartbeat CPU 1 instructions: 160000003 cycles: 117493741 heartbeat IPC: 1.124 cumulative IPC: 1.072 (Simulation time: 01 hr 42 min 06 sec)
Heartbeat CPU 3 instructions: 270000001 cycles: 117773352 heartbeat IPC: 2.258 cumulative IPC: 1.973 (Simulation time: 01 hr 42 min 18 sec)
Heartbeat CPU 3 instructions: 280000003 cycles: 122754966 heartbeat IPC: 2.007 cumulative IPC: 1.975 (Simulation time: 01 hr 46 min 12 sec)
Heartbeat CPU 1 instructions: 170000003 cycles: 127943783 heartbeat IPC: 0.9569 cumulative IPC: 1.06 (Simulation time: 01 hr 50 min 00 sec)
Heartbeat CPU 3 instructions: 290000004 cycles: 128002443 heartbeat IPC: 1.906 cumulative IPC: 1.971 (Simulation time: 01 hr 50 min 02 sec)
Heartbeat CPU 3 instructions: 300000000 cycles: 133899797 heartbeat IPC: 1.696 cumulative IPC: 1.957 (Simulation time: 01 hr 54 min 15 sec)
Heartbeat CPU 2 instructions: 110000000 cycles: 134215788 heartbeat IPC: 0.3692 cumulative IPC: 0.3597 (Simulation time: 01 hr 54 min 29 sec)
Heartbeat CPU 3 instructions: 310000002 cycles: 139122038 heartbeat IPC: 1.915 cumulative IPC: 1.955 (Simulation time: 01 hr 58 min 03 sec)
Heartbeat CPU 1 instructions: 180000001 cycles: 139285413 heartbeat IPC: 0.8817 cumulative IPC: 1.043 (Simulation time: 01 hr 58 min 11 sec)
Heartbeat CPU 0 instructions: 90000001 cycles: 143202262 heartbeat IPC: 0.3054 cumulative IPC: 0.327 (Simulation time: 02 hr 01 min 01 sec)
Heartbeat CPU 3 instructions: 320000003 cycles: 143694204 heartbeat IPC: 2.187 cumulative IPC: 1.964 (Simulation time: 02 hr 01 min 25 sec)
Heartbeat CPU 3 instructions: 330000002 cycles: 148459723 heartbeat IPC: 2.098 cumulative IPC: 1.969 (Simulation time: 02 hr 04 min 47 sec)
Heartbeat CPU 1 instructions: 190000004 cycles: 149704078 heartbeat IPC: 0.9598 cumulative IPC: 1.037 (Simulation time: 02 hr 05 min 44 sec)
Heartbeat CPU 3 instructions: 340000000 cycles: 153802160 heartbeat IPC: 1.872 cumulative IPC: 1.965 (Simulation time: 02 hr 08 min 39 sec)
Heartbeat CPU 3 instructions: 350000000 cycles: 158135903 heartbeat IPC: 2.307 cumulative IPC: 1.976 (Simulation time: 02 hr 12 min 00 sec)
Heartbeat CPU 1 instructions: 200000002 cycles: 159098911 heartbeat IPC: 1.064 cumulative IPC: 1.038 (Simulation time: 02 hr 12 min 46 sec)
Heartbeat CPU 2 instructions: 120000003 cycles: 160132002 heartbeat IPC: 0.3859 cumulative IPC: 0.3646 (Simulation time: 02 hr 13 min 33 sec)
Heartbeat CPU 3 instructions: 360000002 cycles: 163856917 heartbeat IPC: 1.748 cumulative IPC: 1.966 (Simulation time: 02 hr 16 min 21 sec)
Simulation finished CPU 1 instructions: 150000002 cycles: 144164580 cumulative IPC: 1.04 (Simulation time: 02 hr 17 min 15 sec)
Heartbeat CPU 1 instructions: 210000000 cycles: 167954680 heartbeat IPC: 1.129 cumulative IPC: 1.044 (Simulation time: 02 hr 19 min 35 sec)
Heartbeat CPU 3 instructions: 370000001 cycles: 169233553 heartbeat IPC: 1.86 cumulative IPC: 1.963 (Simulation time: 02 hr 20 min 34 sec)
Heartbeat CPU 0 instructions: 100000000 cycles: 173383057 heartbeat IPC: 0.3313 cumulative IPC: 0.3278 (Simulation time: 02 hr 23 min 52 sec)
Heartbeat CPU 3 instructions: 380000001 cycles: 174595046 heartbeat IPC: 1.865 cumulative IPC: 1.959 (Simulation time: 02 hr 24 min 51 sec)
Heartbeat CPU 1 instructions: 220000003 cycles: 176406623 heartbeat IPC: 1.183 cumulative IPC: 1.051 (Simulation time: 02 hr 26 min 16 sec)
Heartbeat CPU 3 instructions: 390000000 cycles: 179981618 heartbeat IPC: 1.856 cumulative IPC: 1.956 (Simulation time: 02 hr 29 min 07 sec)
Heartbeat CPU 2 instructions: 130000000 cycles: 182494552 heartbeat IPC: 0.4472 cumulative IPC: 0.376 (Simulation time: 02 hr 31 min 06 sec)
Heartbeat CPU 1 instructions: 230000000 cycles: 184849624 heartbeat IPC: 1.184 cumulative IPC: 1.058 (Simulation time: 02 hr 32 min 59 sec)
Heartbeat CPU 3 instructions: 400000000 cycles: 185453492 heartbeat IPC: 1.828 cumulative IPC: 1.951 (Simulation time: 02 hr 33 min 27 sec)
Heartbeat CPU 3 instructions: 410000003 cycles: 190897813 heartbeat IPC: 1.837 cumulative IPC: 1.948 (Simulation time: 02 hr 37 min 46 sec)
Heartbeat CPU 1 instructions: 240000003 cycles: 193561995 heartbeat IPC: 1.148 cumulative IPC: 1.063 (Simulation time: 02 hr 39 min 49 sec)
Heartbeat CPU 3 instructions: 420000001 cycles: 196317145 heartbeat IPC: 1.845 cumulative IPC: 1.945 (Simulation time: 02 hr 42 min 02 sec)
Heartbeat CPU 0 instructions: 110000004 cycles: 199577314 heartbeat IPC: 0.3818 cumulative IPC: 0.3357 (Simulation time: 02 hr 44 min 38 sec)
Heartbeat CPU 3 instructions: 430000000 cycles: 201595610 heartbeat IPC: 1.894 cumulative IPC: 1.943 (Simulation time: 02 hr 46 min 14 sec)
Heartbeat CPU 1 instructions: 250000003 cycles: 201960494 heartbeat IPC: 1.191 cumulative IPC: 1.069 (Simulation time: 02 hr 46 min 31 sec)
Heartbeat CPU 2 instructions: 140000002 cycles: 205793774 heartbeat IPC: 0.4292 cumulative IPC: 0.3827 (Simulation time: 02 hr 49 min 32 sec)
Heartbeat CPU 3 instructions: 440000002 cycles: 205913303 heartbeat IPC: 2.316 cumulative IPC: 1.952 (Simulation time: 02 hr 49 min 37 sec)
Heartbeat CPU 3 instructions: 450000001 cycles: 210642770 heartbeat IPC: 2.114 cumulative IPC: 1.956 (Simulation time: 02 hr 53 min 17 sec)
Heartbeat CPU 1 instructions: 260000000 cycles: 210946741 heartbeat IPC: 1.113 cumulative IPC: 1.071 (Simulation time: 02 hr 53 min 31 sec)
Heartbeat CPU 3 instructions: 460000002 cycles: 215033703 heartbeat IPC: 2.277 cumulative IPC: 1.963 (Simulation time: 02 hr 56 min 48 sec)
Heartbeat CPU 3 instructions: 470000001 cycles: 220262167 heartbeat IPC: 1.913 cumulative IPC: 1.962 (Simulation time: 03 hr 00 min 44 sec)
Heartbeat CPU 1 instructions: 270000002 cycles: 221377421 heartbeat IPC: 0.9587 cumulative IPC: 1.065 (Simulation time: 03 hr 01 min 32 sec)
Heartbeat CPU 3 instructions: 480000001 cycles: 226529494 heartbeat IPC: 1.596 cumulative IPC: 1.951 (Simulation time: 03 hr 05 min 08 sec)
Heartbeat CPU 3 instructions: 490000000 cycles: 231244112 heartbeat IPC: 2.121 cumulative IPC: 1.955 (Simulation time: 03 hr 08 min 36 sec)
Heartbeat CPU 0 instructions: 120000004 cycles: 232483876 heartbeat IPC: 0.3039 cumulative IPC: 0.3308 (Simulation time: 03 hr 09 min 27 sec)
Heartbeat CPU 1 instructions: 280000000 cycles: 232912553 heartbeat IPC: 0.8669 cumulative IPC: 1.054 (Simulation time: 03 hr 09 min 48 sec)
Heartbeat CPU 2 instructions: 150000000 cycles: 232916491 heartbeat IPC: 0.3687 cumulative IPC: 0.3809 (Simulation time: 03 hr 09 min 49 sec)
Heartbeat CPU 3 instructions: 500000003 cycles: 236553904 heartbeat IPC: 1.883 cumulative IPC: 1.953 (Simulation time: 03 hr 12 min 25 sec)
Heartbeat CPU 3 instructions: 510000000 cycles: 240846115 heartbeat IPC: 2.33 cumulative IPC: 1.96 (Simulation time: 03 hr 15 min 33 sec)
Heartbeat CPU 1 instructions: 290000001 cycles: 243323158 heartbeat IPC: 0.9606 cumulative IPC: 1.05 (Simulation time: 03 hr 17 min 21 sec)
Heartbeat CPU 3 instructions: 520000001 cycles: 246571943 heartbeat IPC: 1.746 cumulative IPC: 1.955 (Simulation time: 03 hr 19 min 39 sec)
Heartbeat CPU 3 instructions: 530000001 cycles: 250590730 heartbeat IPC: 2.488 cumulative IPC: 1.964 (Simulation time: 03 hr 22 min 45 sec)
Heartbeat CPU 1 instructions: 300000001 cycles: 252746870 heartbeat IPC: 1.061 cumulative IPC: 1.05 (Simulation time: 03 hr 24 min 27 sec)
Heartbeat CPU 3 instructions: 540000004 cycles: 256021222 heartbeat IPC: 1.841 cumulative IPC: 1.961 (Simulation time: 03 hr 26 min 52 sec)
Heartbeat CPU 2 instructions: 160000002 cycles: 257896440 heartbeat IPC: 0.4003 cumulative IPC: 0.383 (Simulation time: 03 hr 28 min 23 sec)
Heartbeat CPU 3 instructions: 550000004 cycles: 261348443 heartbeat IPC: 1.877 cumulative IPC: 1.959 (Simulation time: 03 hr 31 min 08 sec)
Heartbeat CPU 1 instructions: 310000000 cycles: 261629532 heartbeat IPC: 1.126 cumulative IPC: 1.053 (Simulation time: 03 hr 31 min 21 sec)
Heartbeat CPU 0 instructions: 130000002 cycles: 263049800 heartbeat IPC: 0.3272 cumulative IPC: 0.3303 (Simulation time: 03 hr 32 min 29 sec)
Heartbeat CPU 3 instructions: 560000003 cycles: 266664561 heartbeat IPC: 1.881 cumulative IPC: 1.958 (Simulation time: 03 hr 35 min 21 sec)
Heartbeat CPU 1 instructions: 320000003 cycles: 270033278 heartbeat IPC: 1.19 cumulative IPC: 1.058 (Simulation time: 03 hr 38 min 05 sec)
Heartbeat CPU 3 instructions: 570000000 cycles: 271832892 heartbeat IPC: 1.935 cumulative IPC: 1.957 (Simulation time: 03 hr 39 min 32 sec)
Heartbeat CPU 3 instructions: 580000003 cycles: 277109721 heartbeat IPC: 1.895 cumulative IPC: 1.956 (Simulation time: 03 hr 43 min 45 sec)
Heartbeat CPU 1 instructions: 330000001 cycles: 278445228 heartbeat IPC: 1.189 cumulative IPC: 1.062 (Simulation time: 03 hr 44 min 50 sec)
Heartbeat CPU 2 instructions: 170000000 cycles: 280929404 heartbeat IPC: 0.4342 cumulative IPC: 0.3875 (Simulation time: 03 hr 46 min 47 sec)
Heartbeat CPU 3 instructions: 590000001 cycles: 282422005 heartbeat IPC: 1.882 cumulative IPC: 1.954 (Simulation time: 03 hr 47 min 57 sec)
Heartbeat CPU 1 instructions: 340000000 cycles: 286966962 heartbeat IPC: 1.173 cumulative IPC: 1.066 (Simulation time: 03 hr 51 min 35 sec)
Heartbeat CPU 3 instructions: 600000001 cycles: 287620552 heartbeat IPC: 1.924 cumulative IPC: 1.954 (Simulation time: 03 hr 52 min 08 sec)
Heartbeat CPU 0 instructions: 140000001 cycles: 289026660 heartbeat IPC: 0.385 cumulative IPC: 0.3356 (Simulation time: 03 hr 53 min 16 sec)
Heartbeat CPU 3 instructions: 610000000 cycles: 293019863 heartbeat IPC: 1.852 cumulative IPC: 1.952 (Simulation time: 03 hr 56 min 26 sec)
Heartbeat CPU 1 instructions: 350000002 cycles: 295281364 heartbeat IPC: 1.203 cumulative IPC: 1.07 (Simulation time: 03 hr 58 min 15 sec)
Heartbeat CPU 3 instructions: 620000004 cycles: 297036494 heartbeat IPC: 2.49 cumulative IPC: 1.96 (Simulation time: 03 hr 59 min 41 sec)
Heartbeat CPU 3 instructions: 630000000 cycles: 302266445 heartbeat IPC: 1.912 cumulative IPC: 1.959 (Simulation time: 04 hr 03 min 42 sec)
Heartbeat CPU 2 instructions: 180000004 cycles: 303074058 heartbeat IPC: 0.4516 cumulative IPC: 0.3925 (Simulation time: 04 hr 04 min 21 sec)
Heartbeat CPU 1 instructions: 360000004 cycles: 304222766 heartbeat IPC: 1.118 cumulative IPC: 1.071 (Simulation time: 04 hr 05 min 14 sec)
Heartbeat CPU 3 instructions: 640000004 cycles: 306990529 heartbeat IPC: 2.117 cumulative IPC: 1.961 (Simulation time: 04 hr 07 min 23 sec)
Heartbeat CPU 3 instructions: 650000002 cycles: 311853134 heartbeat IPC: 2.057 cumulative IPC: 1.963 (Simulation time: 04 hr 11 min 07 sec)
Heartbeat CPU 1 instructions: 370000001 cycles: 315027969 heartbeat IPC: 0.9255 cumulative IPC: 1.066 (Simulation time: 04 hr 13 min 24 sec)
Heartbeat CPU 3 instructions: 660000002 cycles: 318258305 heartbeat IPC: 1.561 cumulative IPC: 1.954 (Simulation time: 04 hr 15 min 37 sec)
Heartbeat CPU 0 instructions: 150000003 cycles: 320796365 heartbeat IPC: 0.3148 cumulative IPC: 0.3334 (Simulation time: 04 hr 17 min 29 sec)
Heartbeat CPU 3 instructions: 670000004 cycles: 322954685 heartbeat IPC: 2.129 cumulative IPC: 1.957 (Simulation time: 04 hr 19 min 01 sec)
Heartbeat CPU 1 instructions: 380000001 cycles: 326164264 heartbeat IPC: 0.898 cumulative IPC: 1.06 (Simulation time: 04 hr 21 min 25 sec)
Heartbeat CPU 3 instructions: 680000000 cycles: 328680272 heartbeat IPC: 1.747 cumulative IPC: 1.953 (Simulation time: 04 hr 23 min 08 sec)
Heartbeat CPU 2 instructions: 190000003 cycles: 330805086 heartbeat IPC: 0.3606 cumulative IPC: 0.3897 (Simulation time: 04 hr 24 min 48 sec)
Heartbeat CPU 3 instructions: 690000000 cycles: 332157806 heartbeat IPC: 2.876 cumulative IPC: 1.963 (Simulation time: 04 hr 25 min 46 sec)
Heartbeat CPU 1 instructions: 390000004 cycles: 336420512 heartbeat IPC: 0.975 cumulative IPC: 1.057 (Simulation time: 04 hr 28 min 53 sec)
Heartbeat CPU 3 instructions: 700000000 cycles: 337074268 heartbeat IPC: 2.034 cumulative IPC: 1.964 (Simulation time: 04 hr 29 min 22 sec)
Heartbeat CPU 3 instructions: 710000000 cycles: 342468909 heartbeat IPC: 1.854 cumulative IPC: 1.963 (Simulation time: 04 hr 33 min 17 sec)
Heartbeat CPU 1 instructions: 400000003 cycles: 346223398 heartbeat IPC: 1.02 cumulative IPC: 1.056 (Simulation time: 04 hr 36 min 12 sec)
Heartbeat CPU 3 instructions: 720000001 cycles: 346883405 heartbeat IPC: 2.265 cumulative IPC: 1.967 (Simulation time: 04 hr 36 min 44 sec)
Heartbeat CPU 0 instructions: 160000002 cycles: 352359751 heartbeat IPC: 0.3168 cumulative IPC: 0.3318 (Simulation time: 04 hr 40 min 58 sec)
Heartbeat CPU 3 instructions: 730000001 cycles: 352871922 heartbeat IPC: 1.67 cumulative IPC: 1.961 (Simulation time: 04 hr 41 min 24 sec)
Heartbeat CPU 1 instructions: 410000002 cycles: 354997025 heartbeat IPC: 1.14 cumulative IPC: 1.058 (Simulation time: 04 hr 43 min 03 sec)
Heartbeat CPU 2 instructions: 200000000 cycles: 355609662 heartbeat IPC: 0.4032 cumulative IPC: 0.3907 (Simulation time: 04 hr 43 min 33 sec)
Heartbeat CPU 3 instructions: 740000004 cycles: 358106877 heartbeat IPC: 1.91 cumulative IPC: 1.961 (Simulation time: 04 hr 45 min 35 sec)
Heartbeat CPU 3 instructions: 750000004 cycles: 363401448 heartbeat IPC: 1.889 cumulative IPC: 1.959 (Simulation time: 04 hr 49 min 48 sec)
Heartbeat CPU 1 instructions: 420000000 cycles: 363532239 heartbeat IPC: 1.172 cumulative IPC: 1.061 (Simulation time: 04 hr 49 min 55 sec)
Heartbeat CPU 3 instructions: 760000003 cycles: 368610930 heartbeat IPC: 1.92 cumulative IPC: 1.959 (Simulation time: 04 hr 53 min 56 sec)
Heartbeat CPU 1 instructions: 430000002 cycles: 372080085 heartbeat IPC: 1.17 cumulative IPC: 1.064 (Simulation time: 04 hr 56 min 43 sec)
Heartbeat CPU 3 instructions: 770000000 cycles: 373877898 heartbeat IPC: 1.899 cumulative IPC: 1.958 (Simulation time: 04 hr 58 min 10 sec)
Heartbeat CPU 0 instructions: 170000001 cycles: 378108373 heartbeat IPC: 0.3884 cumulative IPC: 0.3359 (Simulation time: 05 hr 01 min 34 sec)
Heartbeat CPU 2 instructions: 210000000 cycles: 378127854 heartbeat IPC: 0.4441 cumulative IPC: 0.394 (Simulation time: 05 hr 01 min 35 sec)
Heartbeat CPU 3 instructions: 780000000 cycles: 379184481 heartbeat IPC: 1.884 cumulative IPC: 1.957 (Simulation time: 05 hr 02 min 26 sec)
Heartbeat CPU 1 instructions: 440000000 cycles: 380428519 heartbeat IPC: 1.198 cumulative IPC: 1.067 (Simulation time: 05 hr 03 min 26 sec)
Heartbeat CPU 3 instructions: 790000004 cycles: 384523650 heartbeat IPC: 1.873 cumulative IPC: 1.956 (Simulation time: 05 hr 06 min 42 sec)
Heartbeat CPU 1 instructions: 450000002 cycles: 388791007 heartbeat IPC: 1.196 cumulative IPC: 1.07 (Simulation time: 05 hr 10 min 07 sec)
Heartbeat CPU 3 instructions: 800000001 cycles: 389150556 heartbeat IPC: 2.161 cumulative IPC: 1.958 (Simulation time: 05 hr 10 min 26 sec)
Heartbeat CPU 3 instructions: 810000000 cycles: 394061892 heartbeat IPC: 2.036 cumulative IPC: 1.959 (Simulation time: 05 hr 14 min 15 sec)
Heartbeat CPU 1 instructions: 460000001 cycles: 397752619 heartbeat IPC: 1.116 cumulative IPC: 1.071 (Simulation time: 05 hr 17 min 08 sec)
Simulation finished CPU 2 instructions: 150000000 cycles: 377585539 cumulative IPC: 0.3973 (Simulation time: 05 hr 17 min 42 sec)
Heartbeat CPU 3 instructions: 820000001 cycles: 398522769 heartbeat IPC: 2.242 cumulative IPC: 1.963 (Simulation time: 05 hr 17 min 45 sec)
Heartbeat CPU 2 instructions: 220000004 cycles: 400080942 heartbeat IPC: 0.4555 cumulative IPC: 0.3976 (Simulation time: 05 hr 18 min 59 sec)
Heartbeat CPU 3 instructions: 830000001 cycles: 403194239 heartbeat IPC: 2.141 cumulative IPC: 1.965 (Simulation time: 05 hr 21 min 26 sec)
Heartbeat CPU 0 instructions: 180000001 cycles: 406211194 heartbeat IPC: 0.3558 cumulative IPC: 0.3374 (Simulation time: 05 hr 23 min 43 sec)
Heartbeat CPU 1 instructions: 470000001 cycles: 408255817 heartbeat IPC: 0.9521 cumulative IPC: 1.068 (Simulation time: 05 hr 25 min 10 sec)
Heartbeat CPU 3 instructions: 840000000 cycles: 408382525 heartbeat IPC: 1.927 cumulative IPC: 1.964 (Simulation time: 05 hr 25 min 16 sec)
Heartbeat CPU 3 instructions: 850000001 cycles: 414187079 heartbeat IPC: 1.723 cumulative IPC: 1.961 (Simulation time: 05 hr 29 min 20 sec)
Heartbeat CPU 3 instructions: 860000002 cycles: 419395149 heartbeat IPC: 1.92 cumulative IPC: 1.96 (Simulation time: 05 hr 33 min 13 sec)
Heartbeat CPU 1 instructions: 480000002 cycles: 419436890 heartbeat IPC: 0.8944 cumulative IPC: 1.063 (Simulation time: 05 hr 33 min 15 sec)
Heartbeat CPU 3 instructions: 870000000 cycles: 423989641 heartbeat IPC: 2.177 cumulative IPC: 1.963 (Simulation time: 05 hr 36 min 34 sec)
Heartbeat CPU 3 instructions: 880000004 cycles: 428786630 heartbeat IPC: 2.085 cumulative IPC: 1.964 (Simulation time: 05 hr 40 min 02 sec)
Heartbeat CPU 2 instructions: 230000000 cycles: 428839789 heartbeat IPC: 0.3477 cumulative IPC: 0.3941 (Simulation time: 05 hr 40 min 04 sec)
Heartbeat CPU 1 instructions: 490000001 cycles: 429957959 heartbeat IPC: 0.9505 cumulative IPC: 1.06 (Simulation time: 05 hr 40 min 55 sec)
Heartbeat CPU 3 instructions: 890000000 cycles: 434207823 heartbeat IPC: 1.845 cumulative IPC: 1.963 (Simulation time: 05 hr 43 min 57 sec)
Heartbeat CPU 3 instructions: 900000002 cycles: 438296500 heartbeat IPC: 2.446 cumulative IPC: 1.967 (Simulation time: 05 hr 47 min 10 sec)
Heartbeat CPU 1 instructions: 500000001 cycles: 439551530 heartbeat IPC: 1.042 cumulative IPC: 1.059 (Simulation time: 05 hr 48 min 09 sec)
Heartbeat CPU 0 instructions: 190000003 cycles: 440677457 heartbeat IPC: 0.2901 cumulative IPC: 0.3335 (Simulation time: 05 hr 49 min 02 sec)
Heartbeat CPU 3 instructions: 910000000 cycles: 443940346 heartbeat IPC: 1.772 cumulative IPC: 1.965 (Simulation time: 05 hr 51 min 29 sec)
Heartbeat CPU 1 instructions: 510000004 cycles: 448422454 heartbeat IPC: 1.127 cumulative IPC: 1.061 (Simulation time: 05 hr 55 min 06 sec)
Heartbeat CPU 3 instructions: 920000004 cycles: 449093670 heartbeat IPC: 1.94 cumulative IPC: 1.964 (Simulation time: 05 hr 55 min 37 sec)
Heartbeat CPU 2 instructions: 240000002 cycles: 450937257 heartbeat IPC: 0.4525 cumulative IPC: 0.3971 (Simulation time: 05 hr 57 min 09 sec)
Heartbeat CPU 3 instructions: 930000002 cycles: 454145974 heartbeat IPC: 1.979 cumulative IPC: 1.965 (Simulation time: 05 hr 59 min 45 sec)
Heartbeat CPU 1 instructions: 520000001 cycles: 456891395 heartbeat IPC: 1.181 cumulative IPC: 1.063 (Simulation time: 06 hr 01 min 56 sec)
Heartbeat CPU 3 instructions: 940000002 cycles: 459280633 heartbeat IPC: 1.948 cumulative IPC: 1.964 (Simulation time: 06 hr 03 min 52 sec)
Heartbeat CPU 3 instructions: 950000004 cycles: 464372074 heartbeat IPC: 1.964 cumulative IPC: 1.964 (Simulation time: 06 hr 07 min 58 sec)
Heartbeat CPU 1 instructions: 530000001 cycles: 465195550 heartbeat IPC: 1.204 cumulative IPC: 1.066 (Simulation time: 06 hr 08 min 40 sec)
Heartbeat CPU 0 instructions: 200000001 cycles: 466944892 heartbeat IPC: 0.3807 cumulative IPC: 0.3363 (Simulation time: 06 hr 10 min 05 sec)
Simulation finished CPU 0 instructions: 150000003 cycles: 446074317 cumulative IPC: 0.3363 (Simulation time: 06 hr 10 min 05 sec)
Simulation complete CPU 0 instructions: 150000003 cycles: 446074317 cumulative IPC: 0.3363 (Simulation time: 06 hr 10 min 05 sec)
Simulation complete CPU 1 instructions: 475660315 cycles: 446074317 cumulative IPC: 1.066 (Simulation time: 06 hr 10 min 05 sec)
Simulation complete CPU 2 instructions: 178141867 cycles: 446074317 cumulative IPC: 0.3994 (Simulation time: 06 hr 10 min 05 sec)
Simulation complete CPU 3 instructions: 876283197 cycles: 446074317 cumulative IPC: 1.964 (Simulation time: 06 hr 10 min 05 sec)

ChampSim completed all CPUs

=== Simulation ===
CPU 0 runs /home/grads/r/rdas40/dpc3_traces/620.omnetpp_s-874B.champsimtrace.xzCPU 1 runs /home/grads/r/rdas40/dpc3_traces/607.cactuBSSN_s-2421B.champsimtrace.xzCPU 2 runs /home/grads/r/rdas40/dpc3_traces/605.mcf_s-665B.champsimtrace.xzCPU 3 runs /home/grads/r/rdas40/dpc3_traces/628.pop2_s-17B.champsimtrace.xz
Total Simulation Statistics (not including warmup)

CPU 0 cumulative IPC: 0.3363 instructions: 150000003 cycles: 446074317
CPU 0 Branch Prediction Accuracy: 94.9% MPKI: 10.6 Average ROB Occupancy at Mispredict: 83.29
Branch type MPKI
BRANCH_DIRECT_JUMP: 0.923
BRANCH_INDIRECT: 0.128
BRANCH_CONDITIONAL: 8.42
BRANCH_DIRECT_CALL: 0.00016
BRANCH_INDIRECT_CALL: 0.734
BRANCH_RETURN: 0.399


CPU 1 cumulative IPC: 1.066 instructions: 475660315 cycles: 446074317
CPU 1 Branch Prediction Accuracy: 99.85% MPKI: 0.001808 Average ROB Occupancy at Mispredict: 348.2
Branch type MPKI
BRANCH_DIRECT_JUMP: 2.1e-06
BRANCH_INDIRECT: 1.05e-05
BRANCH_CONDITIONAL: 0.0018
BRANCH_DIRECT_CALL: 0
BRANCH_INDIRECT_CALL: 0
BRANCH_RETURN: 0


CPU 2 cumulative IPC: 0.3994 instructions: 178141867 cycles: 446074317
CPU 2 Branch Prediction Accuracy: 90.39% MPKI: 23.75 Average ROB Occupancy at Mispredict: 18.63
Branch type MPKI
BRANCH_DIRECT_JUMP: 0.259
BRANCH_INDIRECT: 0
BRANCH_CONDITIONAL: 23.5
BRANCH_DIRECT_CALL: 0
BRANCH_INDIRECT_CALL: 0.00055
BRANCH_RETURN: 0


CPU 3 cumulative IPC: 1.964 instructions: 876283197 cycles: 446074317
CPU 3 Branch Prediction Accuracy: 97.5% MPKI: 3.933 Average ROB Occupancy at Mispredict: 95.9
Branch type MPKI
BRANCH_DIRECT_JUMP: 0.0285
BRANCH_INDIRECT: 0.000673
BRANCH_CONDITIONAL: 3.83
BRANCH_DIRECT_CALL: 0.000264
BRANCH_INDIRECT_CALL: 0
BRANCH_RETURN: 0.0711

LLC TOTAL        ACCESS:    3528635 HIT:    1420813 MISS:    2107822
LLC LOAD         ACCESS:    1686398 HIT:     329765 MISS:    1356633
LLC RFO          ACCESS:     258159 HIT:      93434 MISS:     164725
LLC PREFETCH     ACCESS:      16040 HIT:       1338 MISS:      14702
LLC WRITE        ACCESS:     971634 HIT:     944045 MISS:      27589
LLC TRANSLATION  ACCESS:     596404 HIT:      52231 MISS:     544173
LLC PREFETCH REQUESTED:          0 ISSUED:          0 USEFUL:          0 USELESS:          0
LLC AVERAGE MISS LATENCY: 734.6 cycles
LLC TOTAL        ACCESS:    5529403 HIT:    1850825 MISS:    3678578
LLC LOAD         ACCESS:    4971537 HIT:    1336294 MISS:    3635243
LLC RFO          ACCESS:      11616 HIT:      11616 MISS:          0
LLC PREFETCH     ACCESS:          0 HIT:          0 MISS:          0
LLC WRITE        ACCESS:     474115 HIT:     474037 MISS:         78
LLC TRANSLATION  ACCESS:      72135 HIT:      28878 MISS:      43257
LLC PREFETCH REQUESTED:          0 ISSUED:          0 USEFUL:          0 USELESS:          0
LLC AVERAGE MISS LATENCY: 734.6 cycles
LLC TOTAL        ACCESS:    4922792 HIT:    2676328 MISS:    2246464
LLC LOAD         ACCESS:    2367329 HIT:    1718621 MISS:     648708
LLC RFO          ACCESS:     319747 HIT:     315604 MISS:       4143
LLC PREFETCH     ACCESS:    1724101 HIT:     152010 MISS:    1572091
LLC WRITE        ACCESS:     495453 HIT:     481163 MISS:      14290
LLC TRANSLATION  ACCESS:      16162 HIT:       8930 MISS:       7232
LLC PREFETCH REQUESTED:          0 ISSUED:          0 USEFUL:          0 USELESS:          0
LLC AVERAGE MISS LATENCY: 734.6 cycles
LLC TOTAL        ACCESS:    9195207 HIT:    6008289 MISS:    3186918
LLC LOAD         ACCESS:    2311256 HIT:    1634249 MISS:     677007
LLC RFO          ACCESS:    1880555 HIT:     752313 MISS:    1128242
LLC PREFETCH     ACCESS:    2271785 HIT:     930176 MISS:    1341609
LLC WRITE        ACCESS:    2706575 HIT:    2681210 MISS:      25365
LLC TRANSLATION  ACCESS:      25036 HIT:      10341 MISS:      14695
LLC PREFETCH REQUESTED:          0 ISSUED:          0 USEFUL:          0 USELESS:          0
LLC AVERAGE MISS LATENCY: 734.6 cycles
cpu0_DTLB TOTAL        ACCESS:   38239250 HIT:   34942857 MISS:    3296393
cpu0_DTLB LOAD         ACCESS:   38239250 HIT:   34942857 MISS:    3296393
cpu0_DTLB RFO          ACCESS:          0 HIT:          0 MISS:          0
cpu0_DTLB PREFETCH     ACCESS:          0 HIT:          0 MISS:          0
cpu0_DTLB WRITE        ACCESS:          0 HIT:          0 MISS:          0
cpu0_DTLB TRANSLATION  ACCESS:          0 HIT:          0 MISS:          0
cpu0_DTLB PREFETCH REQUESTED:          0 ISSUED:          0 USEFUL:          0 USELESS:          0
cpu0_DTLB AVERAGE MISS LATENCY: 82.2 cycles
cpu0_DTLB TOTAL        ACCESS:          0 HIT:          0 MISS:          0
cpu0_DTLB LOAD         ACCESS:          0 HIT:          0 MISS:          0
cpu0_DTLB RFO          ACCESS:          0 HIT:          0 MISS:          0
cpu0_DTLB PREFETCH     ACCESS:          0 HIT:          0 MISS:          0
cpu0_DTLB WRITE        ACCESS:          0 HIT:          0 MISS:          0
cpu0_DTLB TRANSLATION  ACCESS:          0 HIT:          0 MISS:          0
cpu0_DTLB PREFETCH REQUESTED:          0 ISSUED:          0 USEFUL:          0 USELESS:          0
cpu0_DTLB AVERAGE MISS LATENCY: 82.2 cycles
cpu0_DTLB TOTAL        ACCESS:          0 HIT:          0 MISS:          0
cpu0_DTLB LOAD         ACCESS:          0 HIT:          0 MISS:          0
cpu0_DTLB RFO          ACCESS:          0 HIT:          0 MISS:          0
cpu0_DTLB PREFETCH     ACCESS:          0 HIT:          0 MISS:          0
cpu0_DTLB WRITE        ACCESS:          0 HIT:          0 MISS:          0
cpu0_DTLB TRANSLATION  ACCESS:          0 HIT:          0 MISS:          0
cpu0_DTLB PREFETCH REQUESTED:          0 ISSUED:          0 USEFUL:          0 USELESS:          0
cpu0_DTLB AVERAGE MISS LATENCY: 82.2 cycles
cpu0_DTLB TOTAL        ACCESS:          0 HIT:          0 MISS:          0
cpu0_DTLB LOAD         ACCESS:          0 HIT:          0 MISS:          0
cpu0_DTLB RFO          ACCESS:          0 HIT:          0 MISS:          0
cpu0_DTLB PREFETCH     ACCESS:          0 HIT:          0 MISS:          0
cpu0_DTLB WRITE        ACCESS:          0 HIT:          0 MISS:          0
cpu0_DTLB TRANSLATION  ACCESS:          0 HIT:          0 MISS:          0
cpu0_DTLB PREFETCH REQUESTED:          0 ISSUED:          0 USEFUL:          0 USELESS:          0
cpu0_DTLB AVERAGE MISS LATENCY: 82.2 cycles
cpu0_ITLB TOTAL        ACCESS:   10781210 HIT:   10508898 MISS:     272312
cpu0_ITLB LOAD         ACCESS:   10781210 HIT:   10508898 MISS:     272312
cpu0_ITLB RFO          ACCESS:          0 HIT:          0 MISS:          0
cpu0_ITLB PREFETCH     ACCESS:          0 HIT:          0 MISS:          0
cpu0_ITLB WRITE        ACCESS:          0 HIT:          0 MISS:          0
cpu0_ITLB TRANSLATION  ACCESS:          0 HIT:          0 MISS:          0
cpu0_ITLB PREFETCH REQUESTED:          0 ISSUED:          0 USEFUL:          0 USELESS:          0
cpu0_ITLB AVERAGE MISS LATENCY: 7.76 cycles
cpu0_ITLB TOTAL        ACCESS:          0 HIT:          0 MISS:          0
cpu0_ITLB LOAD         ACCESS:          0 HIT:          0 MISS:          0
cpu0_ITLB RFO          ACCESS:          0 HIT:          0 MISS:          0
cpu0_ITLB PREFETCH     ACCESS:          0 HIT:          0 MISS:          0
cpu0_ITLB WRITE        ACCESS:          0 HIT:          0 MISS:          0
cpu0_ITLB TRANSLATION  ACCESS:          0 HIT:          0 MISS:          0
cpu0_ITLB PREFETCH REQUESTED:          0 ISSUED:          0 USEFUL:          0 USELESS:          0
cpu0_ITLB AVERAGE MISS LATENCY: 7.76 cycles
cpu0_ITLB TOTAL        ACCESS:          0 HIT:          0 MISS:          0
cpu0_ITLB LOAD         ACCESS:          0 HIT:          0 MISS:          0
cpu0_ITLB RFO          ACCESS:          0 HIT:          0 MISS:          0
cpu0_ITLB PREFETCH     ACCESS:          0 HIT:          0 MISS:          0
cpu0_ITLB WRITE        ACCESS:          0 HIT:          0 MISS:          0
cpu0_ITLB TRANSLATION  ACCESS:          0 HIT:          0 MISS:          0
cpu0_ITLB PREFETCH REQUESTED:          0 ISSUED:          0 USEFUL:          0 USELESS:          0
cpu0_ITLB AVERAGE MISS LATENCY: 7.76 cycles
cpu0_ITLB TOTAL        ACCESS:          0 HIT:          0 MISS:          0
cpu0_ITLB LOAD         ACCESS:          0 HIT:          0 MISS:          0
cpu0_ITLB RFO          ACCESS:          0 HIT:          0 MISS:          0
cpu0_ITLB PREFETCH     ACCESS:          0 HIT:          0 MISS:          0
cpu0_ITLB WRITE        ACCESS:          0 HIT:          0 MISS:          0
cpu0_ITLB TRANSLATION  ACCESS:          0 HIT:          0 MISS:          0
cpu0_ITLB PREFETCH REQUESTED:          0 ISSUED:          0 USEFUL:          0 USELESS:          0
cpu0_ITLB AVERAGE MISS LATENCY: 7.76 cycles
cpu0_L1D TOTAL        ACCESS:   49801796 HIT:   44853800 MISS:    4947996
cpu0_L1D LOAD         ACCESS:   22932537 HIT:   19864333 MISS:    3068204
cpu0_L1D RFO          ACCESS:          0 HIT:          0 MISS:          0
cpu0_L1D PREFETCH     ACCESS:      28410 HIT:       3893 MISS:      24517
cpu0_L1D WRITE        ACCESS:   25949664 HIT:   24840437 MISS:    1109227
cpu0_L1D TRANSLATION  ACCESS:     891185 HIT:     145137 MISS:     746048
cpu0_L1D PREFETCH REQUESTED:      28410 ISSUED:      28410 USEFUL:       1495 USELESS:       1139
cpu0_L1D AVERAGE MISS LATENCY: 188.8 cycles
cpu0_L1D TOTAL        ACCESS:          0 HIT:          0 MISS:          0
cpu0_L1D LOAD         ACCESS:          0 HIT:          0 MISS:          0
cpu0_L1D RFO          ACCESS:          0 HIT:          0 MISS:          0
cpu0_L1D PREFETCH     ACCESS:          0 HIT:          0 MISS:          0
cpu0_L1D WRITE        ACCESS:          0 HIT:          0 MISS:          0
cpu0_L1D TRANSLATION  ACCESS:          0 HIT:          0 MISS:          0
cpu0_L1D PREFETCH REQUESTED:      28410 ISSUED:      28410 USEFUL:       1495 USELESS:       1139
cpu0_L1D AVERAGE MISS LATENCY: 188.8 cycles
cpu0_L1D TOTAL        ACCESS:          0 HIT:          0 MISS:          0
cpu0_L1D LOAD         ACCESS:          0 HIT:          0 MISS:          0
cpu0_L1D RFO          ACCESS:          0 HIT:          0 MISS:          0
cpu0_L1D PREFETCH     ACCESS:          0 HIT:          0 MISS:          0
cpu0_L1D WRITE        ACCESS:          0 HIT:          0 MISS:          0
cpu0_L1D TRANSLATION  ACCESS:          0 HIT:          0 MISS:          0
cpu0_L1D PREFETCH REQUESTED:      28410 ISSUED:      28410 USEFUL:       1495 USELESS:       1139
cpu0_L1D AVERAGE MISS LATENCY: 188.8 cycles
cpu0_L1D TOTAL        ACCESS:          0 HIT:          0 MISS:          0
cpu0_L1D LOAD         ACCESS:          0 HIT:          0 MISS:          0
cpu0_L1D RFO          ACCESS:          0 HIT:          0 MISS:          0
cpu0_L1D PREFETCH     ACCESS:          0 HIT:          0 MISS:          0
cpu0_L1D WRITE        ACCESS:          0 HIT:          0 MISS:          0
cpu0_L1D TRANSLATION  ACCESS:          0 HIT:          0 MISS:          0
cpu0_L1D PREFETCH REQUESTED:      28410 ISSUED:      28410 USEFUL:       1495 USELESS:       1139
cpu0_L1D AVERAGE MISS LATENCY: 188.8 cycles
cpu0_L1I TOTAL        ACCESS:   12868192 HIT:   12793986 MISS:      74206
cpu0_L1I LOAD         ACCESS:   12868192 HIT:   12793986 MISS:      74206
cpu0_L1I RFO          ACCESS:          0 HIT:          0 MISS:          0
cpu0_L1I PREFETCH     ACCESS:          0 HIT:          0 MISS:          0
cpu0_L1I WRITE        ACCESS:          0 HIT:          0 MISS:          0
cpu0_L1I TRANSLATION  ACCESS:          0 HIT:          0 MISS:          0
cpu0_L1I PREFETCH REQUESTED:          0 ISSUED:          0 USEFUL:          0 USELESS:          0
cpu0_L1I AVERAGE MISS LATENCY: 36.59 cycles
cpu0_L1I TOTAL        ACCESS:          0 HIT:          0 MISS:          0
cpu0_L1I LOAD         ACCESS:          0 HIT:          0 MISS:          0
cpu0_L1I RFO          ACCESS:          0 HIT:          0 MISS:          0
cpu0_L1I PREFETCH     ACCESS:          0 HIT:          0 MISS:          0
cpu0_L1I WRITE        ACCESS:          0 HIT:          0 MISS:          0
cpu0_L1I TRANSLATION  ACCESS:          0 HIT:          0 MISS:          0
cpu0_L1I PREFETCH REQUESTED:          0 ISSUED:          0 USEFUL:          0 USELESS:          0
cpu0_L1I AVERAGE MISS LATENCY: 36.59 cycles
cpu0_L1I TOTAL        ACCESS:          0 HIT:          0 MISS:          0
cpu0_L1I LOAD         ACCESS:          0 HIT:          0 MISS:          0
cpu0_L1I RFO          ACCESS:          0 HIT:          0 MISS:          0
cpu0_L1I PREFETCH     ACCESS:          0 HIT:          0 MISS:          0
cpu0_L1I WRITE        ACCESS:          0 HIT:          0 MISS:          0
cpu0_L1I TRANSLATION  ACCESS:          0 HIT:          0 MISS:          0
cpu0_L1I PREFETCH REQUESTED:          0 ISSUED:          0 USEFUL:          0 USELESS:          0
cpu0_L1I AVERAGE MISS LATENCY: 36.59 cycles
cpu0_L1I TOTAL        ACCESS:          0 HIT:          0 MISS:          0
cpu0_L1I LOAD         ACCESS:          0 HIT:          0 MISS:          0
cpu0_L1I RFO          ACCESS:          0 HIT:          0 MISS:          0
cpu0_L1I PREFETCH     ACCESS:          0 HIT:          0 MISS:          0
cpu0_L1I WRITE        ACCESS:          0 HIT:          0 MISS:          0
cpu0_L1I TRANSLATION  ACCESS:          0 HIT:          0 MISS:          0
cpu0_L1I PREFETCH REQUESTED:          0 ISSUED:          0 USEFUL:          0 USELESS:          0
cpu0_L1I AVERAGE MISS LATENCY: 36.59 cycles
cpu0_L2C TOTAL        ACCESS:    5072274 HIT:    2512196 MISS:    2560078
cpu0_L2C LOAD         ACCESS:    2538083 HIT:     851117 MISS:    1686966
cpu0_L2C RFO          ACCESS:     365479 HIT:     107320 MISS:     258159
cpu0_L2C PREFETCH     ACCESS:      23714 HIT:       7424 MISS:      16290
cpu0_L2C WRITE        ACCESS:    1399745 HIT:    1397486 MISS:       2259
cpu0_L2C TRANSLATION  ACCESS:     745253 HIT:     148849 MISS:     596404
cpu0_L2C PREFETCH REQUESTED:          0 ISSUED:          0 USEFUL:          0 USELESS:          0
cpu0_L2C AVERAGE MISS LATENCY: 363.3 cycles
cpu0_L2C TOTAL        ACCESS:          0 HIT:          0 MISS:          0
cpu0_L2C LOAD         ACCESS:          0 HIT:          0 MISS:          0
cpu0_L2C RFO          ACCESS:          0 HIT:          0 MISS:          0
cpu0_L2C PREFETCH     ACCESS:          0 HIT:          0 MISS:          0
cpu0_L2C WRITE        ACCESS:          0 HIT:          0 MISS:          0
cpu0_L2C TRANSLATION  ACCESS:          0 HIT:          0 MISS:          0
cpu0_L2C PREFETCH REQUESTED:          0 ISSUED:          0 USEFUL:          0 USELESS:          0
cpu0_L2C AVERAGE MISS LATENCY: 363.3 cycles
cpu0_L2C TOTAL        ACCESS:          0 HIT:          0 MISS:          0
cpu0_L2C LOAD         ACCESS:          0 HIT:          0 MISS:          0
cpu0_L2C RFO          ACCESS:          0 HIT:          0 MISS:          0
cpu0_L2C PREFETCH     ACCESS:          0 HIT:          0 MISS:          0
cpu0_L2C WRITE        ACCESS:          0 HIT:          0 MISS:          0
cpu0_L2C TRANSLATION  ACCESS:          0 HIT:          0 MISS:          0
cpu0_L2C PREFETCH REQUESTED:          0 ISSUED:          0 USEFUL:          0 USELESS:          0
cpu0_L2C AVERAGE MISS LATENCY: 363.3 cycles
cpu0_L2C TOTAL        ACCESS:          0 HIT:          0 MISS:          0
cpu0_L2C LOAD         ACCESS:          0 HIT:          0 MISS:          0
cpu0_L2C RFO          ACCESS:          0 HIT:          0 MISS:          0
cpu0_L2C PREFETCH     ACCESS:          0 HIT:          0 MISS:          0
cpu0_L2C WRITE        ACCESS:          0 HIT:          0 MISS:          0
cpu0_L2C TRANSLATION  ACCESS:          0 HIT:          0 MISS:          0
cpu0_L2C PREFETCH REQUESTED:          0 ISSUED:          0 USEFUL:          0 USELESS:          0
cpu0_L2C AVERAGE MISS LATENCY: 363.3 cycles
cpu0_STLB TOTAL        ACCESS:    3014898 HIT:    2372462 MISS:     642436
cpu0_STLB LOAD         ACCESS:    3014898 HIT:    2372462 MISS:     642436
cpu0_STLB RFO          ACCESS:          0 HIT:          0 MISS:          0
cpu0_STLB PREFETCH     ACCESS:          0 HIT:          0 MISS:          0
cpu0_STLB WRITE        ACCESS:          0 HIT:          0 MISS:          0
cpu0_STLB TRANSLATION  ACCESS:          0 HIT:          0 MISS:          0
cpu0_STLB PREFETCH REQUESTED:          0 ISSUED:          0 USEFUL:          0 USELESS:          0
cpu0_STLB AVERAGE MISS LATENCY: 400.1 cycles
cpu0_STLB TOTAL        ACCESS:          0 HIT:          0 MISS:          0
cpu0_STLB LOAD         ACCESS:          0 HIT:          0 MISS:          0
cpu0_STLB RFO          ACCESS:          0 HIT:          0 MISS:          0
cpu0_STLB PREFETCH     ACCESS:          0 HIT:          0 MISS:          0
cpu0_STLB WRITE        ACCESS:          0 HIT:          0 MISS:          0
cpu0_STLB TRANSLATION  ACCESS:          0 HIT:          0 MISS:          0
cpu0_STLB PREFETCH REQUESTED:          0 ISSUED:          0 USEFUL:          0 USELESS:          0
cpu0_STLB AVERAGE MISS LATENCY: 400.1 cycles
cpu0_STLB TOTAL        ACCESS:          0 HIT:          0 MISS:          0
cpu0_STLB LOAD         ACCESS:          0 HIT:          0 MISS:          0
cpu0_STLB RFO          ACCESS:          0 HIT:          0 MISS:          0
cpu0_STLB PREFETCH     ACCESS:          0 HIT:          0 MISS:          0
cpu0_STLB WRITE        ACCESS:          0 HIT:          0 MISS:          0
cpu0_STLB TRANSLATION  ACCESS:          0 HIT:          0 MISS:          0
cpu0_STLB PREFETCH REQUESTED:          0 ISSUED:          0 USEFUL:          0 USELESS:          0
cpu0_STLB AVERAGE MISS LATENCY: 400.1 cycles
cpu0_STLB TOTAL        ACCESS:          0 HIT:          0 MISS:          0
cpu0_STLB LOAD         ACCESS:          0 HIT:          0 MISS:          0
cpu0_STLB RFO          ACCESS:          0 HIT:          0 MISS:          0
cpu0_STLB PREFETCH     ACCESS:          0 HIT:          0 MISS:          0
cpu0_STLB WRITE        ACCESS:          0 HIT:          0 MISS:          0
cpu0_STLB TRANSLATION  ACCESS:          0 HIT:          0 MISS:          0
cpu0_STLB PREFETCH REQUESTED:          0 ISSUED:          0 USEFUL:          0 USELESS:          0
cpu0_STLB AVERAGE MISS LATENCY: 400.1 cycles
cpu1_DTLB TOTAL        ACCESS:          0 HIT:          0 MISS:          0
cpu1_DTLB LOAD         ACCESS:          0 HIT:          0 MISS:          0
cpu1_DTLB RFO          ACCESS:          0 HIT:          0 MISS:          0
cpu1_DTLB PREFETCH     ACCESS:          0 HIT:          0 MISS:          0
cpu1_DTLB WRITE        ACCESS:          0 HIT:          0 MISS:          0
cpu1_DTLB TRANSLATION  ACCESS:          0 HIT:          0 MISS:          0
cpu1_DTLB PREFETCH REQUESTED:          0 ISSUED:          0 USEFUL:          0 USELESS:          0
cpu1_DTLB AVERAGE MISS LATENCY: 6.797 cycles
cpu1_DTLB TOTAL        ACCESS:  100852006 HIT:   59351944 MISS:   41500062
cpu1_DTLB LOAD         ACCESS:  100852006 HIT:   59351944 MISS:   41500062
cpu1_DTLB RFO          ACCESS:          0 HIT:          0 MISS:          0
cpu1_DTLB PREFETCH     ACCESS:          0 HIT:          0 MISS:          0
cpu1_DTLB WRITE        ACCESS:          0 HIT:          0 MISS:          0
cpu1_DTLB TRANSLATION  ACCESS:          0 HIT:          0 MISS:          0
cpu1_DTLB PREFETCH REQUESTED:          0 ISSUED:          0 USEFUL:          0 USELESS:          0
cpu1_DTLB AVERAGE MISS LATENCY: 6.797 cycles
cpu1_DTLB TOTAL        ACCESS:          0 HIT:          0 MISS:          0
cpu1_DTLB LOAD         ACCESS:          0 HIT:          0 MISS:          0
cpu1_DTLB RFO          ACCESS:          0 HIT:          0 MISS:          0
cpu1_DTLB PREFETCH     ACCESS:          0 HIT:          0 MISS:          0
cpu1_DTLB WRITE        ACCESS:          0 HIT:          0 MISS:          0
cpu1_DTLB TRANSLATION  ACCESS:          0 HIT:          0 MISS:          0
cpu1_DTLB PREFETCH REQUESTED:          0 ISSUED:          0 USEFUL:          0 USELESS:          0
cpu1_DTLB AVERAGE MISS LATENCY: 6.797 cycles
cpu1_DTLB TOTAL        ACCESS:          0 HIT:          0 MISS:          0
cpu1_DTLB LOAD         ACCESS:          0 HIT:          0 MISS:          0
cpu1_DTLB RFO          ACCESS:          0 HIT:          0 MISS:          0
cpu1_DTLB PREFETCH     ACCESS:          0 HIT:          0 MISS:          0
cpu1_DTLB WRITE        ACCESS:          0 HIT:          0 MISS:          0
cpu1_DTLB TRANSLATION  ACCESS:          0 HIT:          0 MISS:          0
cpu1_DTLB PREFETCH REQUESTED:          0 ISSUED:          0 USEFUL:          0 USELESS:          0
cpu1_DTLB AVERAGE MISS LATENCY: 6.797 cycles
cpu1_ITLB TOTAL        ACCESS:          0 HIT:          0 MISS:          0
cpu1_ITLB LOAD         ACCESS:          0 HIT:          0 MISS:          0
cpu1_ITLB RFO          ACCESS:          0 HIT:          0 MISS:          0
cpu1_ITLB PREFETCH     ACCESS:          0 HIT:          0 MISS:          0
cpu1_ITLB WRITE        ACCESS:          0 HIT:          0 MISS:          0
cpu1_ITLB TRANSLATION  ACCESS:          0 HIT:          0 MISS:          0
cpu1_ITLB PREFETCH REQUESTED:          0 ISSUED:          0 USEFUL:          0 USELESS:          0
cpu1_ITLB AVERAGE MISS LATENCY: -nan cycles
cpu1_ITLB TOTAL        ACCESS:   61632020 HIT:   61632020 MISS:          0
cpu1_ITLB LOAD         ACCESS:   61632020 HIT:   61632020 MISS:          0
cpu1_ITLB RFO          ACCESS:          0 HIT:          0 MISS:          0
cpu1_ITLB PREFETCH     ACCESS:          0 HIT:          0 MISS:          0
cpu1_ITLB WRITE        ACCESS:          0 HIT:          0 MISS:          0
cpu1_ITLB TRANSLATION  ACCESS:          0 HIT:          0 MISS:          0
cpu1_ITLB PREFETCH REQUESTED:          0 ISSUED:          0 USEFUL:          0 USELESS:          0
cpu1_ITLB AVERAGE MISS LATENCY: -nan cycles
cpu1_ITLB TOTAL        ACCESS:          0 HIT:          0 MISS:          0
cpu1_ITLB LOAD         ACCESS:          0 HIT:          0 MISS:          0
cpu1_ITLB RFO          ACCESS:          0 HIT:          0 MISS:          0
cpu1_ITLB PREFETCH     ACCESS:          0 HIT:          0 MISS:          0
cpu1_ITLB WRITE        ACCESS:          0 HIT:          0 MISS:          0
cpu1_ITLB TRANSLATION  ACCESS:          0 HIT:          0 MISS:          0
cpu1_ITLB PREFETCH REQUESTED:          0 ISSUED:          0 USEFUL:          0 USELESS:          0
cpu1_ITLB AVERAGE MISS LATENCY: -nan cycles
cpu1_ITLB TOTAL        ACCESS:          0 HIT:          0 MISS:          0
cpu1_ITLB LOAD         ACCESS:          0 HIT:          0 MISS:          0
cpu1_ITLB RFO          ACCESS:          0 HIT:          0 MISS:          0
cpu1_ITLB PREFETCH     ACCESS:          0 HIT:          0 MISS:          0
cpu1_ITLB WRITE        ACCESS:          0 HIT:          0 MISS:          0
cpu1_ITLB TRANSLATION  ACCESS:          0 HIT:          0 MISS:          0
cpu1_ITLB PREFETCH REQUESTED:          0 ISSUED:          0 USEFUL:          0 USELESS:          0
cpu1_ITLB AVERAGE MISS LATENCY: -nan cycles
cpu1_L1D TOTAL        ACCESS:          0 HIT:          0 MISS:          0
cpu1_L1D LOAD         ACCESS:          0 HIT:          0 MISS:          0
cpu1_L1D RFO          ACCESS:          0 HIT:          0 MISS:          0
cpu1_L1D PREFETCH     ACCESS:          0 HIT:          0 MISS:          0
cpu1_L1D WRITE        ACCESS:          0 HIT:          0 MISS:          0
cpu1_L1D TRANSLATION  ACCESS:          0 HIT:          0 MISS:          0
cpu1_L1D PREFETCH REQUESTED:          0 ISSUED:          0 USEFUL:          0 USELESS:          0
cpu1_L1D AVERAGE MISS LATENCY: 86.96 cycles
cpu1_L1D TOTAL        ACCESS:  124324963 HIT:   68952317 MISS:   55372646
cpu1_L1D LOAD         ACCESS:   69889751 HIT:   17441218 MISS:   52448533
cpu1_L1D RFO          ACCESS:          0 HIT:          0 MISS:          0
cpu1_L1D PREFETCH     ACCESS:          0 HIT:          0 MISS:          0
cpu1_L1D WRITE        ACCESS:   54344930 HIT:   51510317 MISS:    2834613
cpu1_L1D TRANSLATION  ACCESS:      90282 HIT:        782 MISS:      89500
cpu1_L1D PREFETCH REQUESTED:          0 ISSUED:          0 USEFUL:          0 USELESS:          0
cpu1_L1D AVERAGE MISS LATENCY: 86.96 cycles
cpu1_L1D TOTAL        ACCESS:          0 HIT:          0 MISS:          0
cpu1_L1D LOAD         ACCESS:          0 HIT:          0 MISS:          0
cpu1_L1D RFO          ACCESS:          0 HIT:          0 MISS:          0
cpu1_L1D PREFETCH     ACCESS:          0 HIT:          0 MISS:          0
cpu1_L1D WRITE        ACCESS:          0 HIT:          0 MISS:          0
cpu1_L1D TRANSLATION  ACCESS:          0 HIT:          0 MISS:          0
cpu1_L1D PREFETCH REQUESTED:          0 ISSUED:          0 USEFUL:          0 USELESS:          0
cpu1_L1D AVERAGE MISS LATENCY: 86.96 cycles
cpu1_L1D TOTAL        ACCESS:          0 HIT:          0 MISS:          0
cpu1_L1D LOAD         ACCESS:          0 HIT:          0 MISS:          0
cpu1_L1D RFO          ACCESS:          0 HIT:          0 MISS:          0
cpu1_L1D PREFETCH     ACCESS:          0 HIT:          0 MISS:          0
cpu1_L1D WRITE        ACCESS:          0 HIT:          0 MISS:          0
cpu1_L1D TRANSLATION  ACCESS:          0 HIT:          0 MISS:          0
cpu1_L1D PREFETCH REQUESTED:          0 ISSUED:          0 USEFUL:          0 USELESS:          0
cpu1_L1D AVERAGE MISS LATENCY: 86.96 cycles
cpu1_L1I TOTAL        ACCESS:          0 HIT:          0 MISS:          0
cpu1_L1I LOAD         ACCESS:          0 HIT:          0 MISS:          0
cpu1_L1I RFO          ACCESS:          0 HIT:          0 MISS:          0
cpu1_L1I PREFETCH     ACCESS:          0 HIT:          0 MISS:          0
cpu1_L1I WRITE        ACCESS:          0 HIT:          0 MISS:          0
cpu1_L1I TRANSLATION  ACCESS:          0 HIT:          0 MISS:          0
cpu1_L1I PREFETCH REQUESTED:          0 ISSUED:          0 USEFUL:          0 USELESS:          0
cpu1_L1I AVERAGE MISS LATENCY: -nan cycles
cpu1_L1I TOTAL        ACCESS:   81028844 HIT:   81028844 MISS:          0
cpu1_L1I LOAD         ACCESS:   81028844 HIT:   81028844 MISS:          0
cpu1_L1I RFO          ACCESS:          0 HIT:          0 MISS:          0
cpu1_L1I PREFETCH     ACCESS:          0 HIT:          0 MISS:          0
cpu1_L1I WRITE        ACCESS:          0 HIT:          0 MISS:          0
cpu1_L1I TRANSLATION  ACCESS:          0 HIT:          0 MISS:          0
cpu1_L1I PREFETCH REQUESTED:          0 ISSUED:          0 USEFUL:          0 USELESS:          0
cpu1_L1I AVERAGE MISS LATENCY: -nan cycles
cpu1_L1I TOTAL        ACCESS:          0 HIT:          0 MISS:          0
cpu1_L1I LOAD         ACCESS:          0 HIT:          0 MISS:          0
cpu1_L1I RFO          ACCESS:          0 HIT:          0 MISS:          0
cpu1_L1I PREFETCH     ACCESS:          0 HIT:          0 MISS:          0
cpu1_L1I WRITE        ACCESS:          0 HIT:          0 MISS:          0
cpu1_L1I TRANSLATION  ACCESS:          0 HIT:          0 MISS:          0
cpu1_L1I PREFETCH REQUESTED:          0 ISSUED:          0 USEFUL:          0 USELESS:          0
cpu1_L1I AVERAGE MISS LATENCY: -nan cycles
cpu1_L1I TOTAL        ACCESS:          0 HIT:          0 MISS:          0
cpu1_L1I LOAD         ACCESS:          0 HIT:          0 MISS:          0
cpu1_L1I RFO          ACCESS:          0 HIT:          0 MISS:          0
cpu1_L1I PREFETCH     ACCESS:          0 HIT:          0 MISS:          0
cpu1_L1I WRITE        ACCESS:          0 HIT:          0 MISS:          0
cpu1_L1I TRANSLATION  ACCESS:          0 HIT:          0 MISS:          0
cpu1_L1I PREFETCH REQUESTED:          0 ISSUED:          0 USEFUL:          0 USELESS:          0
cpu1_L1I AVERAGE MISS LATENCY: -nan cycles
cpu1_L2C TOTAL        ACCESS:          0 HIT:          0 MISS:          0
cpu1_L2C LOAD         ACCESS:          0 HIT:          0 MISS:          0
cpu1_L2C RFO          ACCESS:          0 HIT:          0 MISS:          0
cpu1_L2C PREFETCH     ACCESS:          0 HIT:          0 MISS:          0
cpu1_L2C WRITE        ACCESS:          0 HIT:          0 MISS:          0
cpu1_L2C TRANSLATION  ACCESS:          0 HIT:          0 MISS:          0
cpu1_L2C PREFETCH REQUESTED:          0 ISSUED:          0 USEFUL:          0 USELESS:          0
cpu1_L2C AVERAGE MISS LATENCY: 843.2 cycles
cpu1_L2C TOTAL        ACCESS:   58133755 HIT:   53078168 MISS:    5055587
cpu1_L2C LOAD         ACCESS:   51824215 HIT:   46852532 MISS:    4971683
cpu1_L2C RFO          ACCESS:    2090318 HIT:    2078549 MISS:      11769
cpu1_L2C PREFETCH     ACCESS:          0 HIT:          0 MISS:          0
cpu1_L2C WRITE        ACCESS:    4129779 HIT:    4129779 MISS:          0
cpu1_L2C TRANSLATION  ACCESS:      89443 HIT:      17308 MISS:      72135
cpu1_L2C PREFETCH REQUESTED:          0 ISSUED:          0 USEFUL:          0 USELESS:          0
cpu1_L2C AVERAGE MISS LATENCY: 843.2 cycles
cpu1_L2C TOTAL        ACCESS:          0 HIT:          0 MISS:          0
cpu1_L2C LOAD         ACCESS:          0 HIT:          0 MISS:          0
cpu1_L2C RFO          ACCESS:          0 HIT:          0 MISS:          0
cpu1_L2C PREFETCH     ACCESS:          0 HIT:          0 MISS:          0
cpu1_L2C WRITE        ACCESS:          0 HIT:          0 MISS:          0
cpu1_L2C TRANSLATION  ACCESS:          0 HIT:          0 MISS:          0
cpu1_L2C PREFETCH REQUESTED:          0 ISSUED:          0 USEFUL:          0 USELESS:          0
cpu1_L2C AVERAGE MISS LATENCY: 843.2 cycles
cpu1_L2C TOTAL        ACCESS:          0 HIT:          0 MISS:          0
cpu1_L2C LOAD         ACCESS:          0 HIT:          0 MISS:          0
cpu1_L2C RFO          ACCESS:          0 HIT:          0 MISS:          0
cpu1_L2C PREFETCH     ACCESS:          0 HIT:          0 MISS:          0
cpu1_L2C WRITE        ACCESS:          0 HIT:          0 MISS:          0
cpu1_L2C TRANSLATION  ACCESS:          0 HIT:          0 MISS:          0
cpu1_L2C PREFETCH REQUESTED:          0 ISSUED:          0 USEFUL:          0 USELESS:          0
cpu1_L2C AVERAGE MISS LATENCY: 843.2 cycles
cpu1_STLB TOTAL        ACCESS:          0 HIT:          0 MISS:          0
cpu1_STLB LOAD         ACCESS:          0 HIT:          0 MISS:          0
cpu1_STLB RFO          ACCESS:          0 HIT:          0 MISS:          0
cpu1_STLB PREFETCH     ACCESS:          0 HIT:          0 MISS:          0
cpu1_STLB WRITE        ACCESS:          0 HIT:          0 MISS:          0
cpu1_STLB TRANSLATION  ACCESS:          0 HIT:          0 MISS:          0
cpu1_STLB PREFETCH REQUESTED:          0 ISSUED:          0 USEFUL:          0 USELESS:          0
cpu1_STLB AVERAGE MISS LATENCY: 749 cycles
cpu1_STLB TOTAL        ACCESS:   35889592 HIT:   35831667 MISS:      57925
cpu1_STLB LOAD         ACCESS:   35889592 HIT:   35831667 MISS:      57925
cpu1_STLB RFO          ACCESS:          0 HIT:          0 MISS:          0
cpu1_STLB PREFETCH     ACCESS:          0 HIT:          0 MISS:          0
cpu1_STLB WRITE        ACCESS:          0 HIT:          0 MISS:          0
cpu1_STLB TRANSLATION  ACCESS:          0 HIT:          0 MISS:          0
cpu1_STLB PREFETCH REQUESTED:          0 ISSUED:          0 USEFUL:          0 USELESS:          0
cpu1_STLB AVERAGE MISS LATENCY: 749 cycles
cpu1_STLB TOTAL        ACCESS:          0 HIT:          0 MISS:          0
cpu1_STLB LOAD         ACCESS:          0 HIT:          0 MISS:          0
cpu1_STLB RFO          ACCESS:          0 HIT:          0 MISS:          0
cpu1_STLB PREFETCH     ACCESS:          0 HIT:          0 MISS:          0
cpu1_STLB WRITE        ACCESS:          0 HIT:          0 MISS:          0
cpu1_STLB TRANSLATION  ACCESS:          0 HIT:          0 MISS:          0
cpu1_STLB PREFETCH REQUESTED:          0 ISSUED:          0 USEFUL:          0 USELESS:          0
cpu1_STLB AVERAGE MISS LATENCY: 749 cycles
cpu1_STLB TOTAL        ACCESS:          0 HIT:          0 MISS:          0
cpu1_STLB LOAD         ACCESS:          0 HIT:          0 MISS:          0
cpu1_STLB RFO          ACCESS:          0 HIT:          0 MISS:          0
cpu1_STLB PREFETCH     ACCESS:          0 HIT:          0 MISS:          0
cpu1_STLB WRITE        ACCESS:          0 HIT:          0 MISS:          0
cpu1_STLB TRANSLATION  ACCESS:          0 HIT:          0 MISS:          0
cpu1_STLB PREFETCH REQUESTED:          0 ISSUED:          0 USEFUL:          0 USELESS:          0
cpu1_STLB AVERAGE MISS LATENCY: 749 cycles
cpu2_DTLB TOTAL        ACCESS:          0 HIT:          0 MISS:          0
cpu2_DTLB LOAD         ACCESS:          0 HIT:          0 MISS:          0
cpu2_DTLB RFO          ACCESS:          0 HIT:          0 MISS:          0
cpu2_DTLB PREFETCH     ACCESS:          0 HIT:          0 MISS:          0
cpu2_DTLB WRITE        ACCESS:          0 HIT:          0 MISS:          0
cpu2_DTLB TRANSLATION  ACCESS:          0 HIT:          0 MISS:          0
cpu2_DTLB PREFETCH REQUESTED:          0 ISSUED:          0 USEFUL:          0 USELESS:          0
cpu2_DTLB AVERAGE MISS LATENCY: 9.007 cycles
cpu2_DTLB TOTAL        ACCESS:          0 HIT:          0 MISS:          0
cpu2_DTLB LOAD         ACCESS:          0 HIT:          0 MISS:          0
cpu2_DTLB RFO          ACCESS:          0 HIT:          0 MISS:          0
cpu2_DTLB PREFETCH     ACCESS:          0 HIT:          0 MISS:          0
cpu2_DTLB WRITE        ACCESS:          0 HIT:          0 MISS:          0
cpu2_DTLB TRANSLATION  ACCESS:          0 HIT:          0 MISS:          0
cpu2_DTLB PREFETCH REQUESTED:          0 ISSUED:          0 USEFUL:          0 USELESS:          0
cpu2_DTLB AVERAGE MISS LATENCY: 9.007 cycles
cpu2_DTLB TOTAL        ACCESS:   49010357 HIT:   45968950 MISS:    3041407
cpu2_DTLB LOAD         ACCESS:   49010357 HIT:   45968950 MISS:    3041407
cpu2_DTLB RFO          ACCESS:          0 HIT:          0 MISS:          0
cpu2_DTLB PREFETCH     ACCESS:          0 HIT:          0 MISS:          0
cpu2_DTLB WRITE        ACCESS:          0 HIT:          0 MISS:          0
cpu2_DTLB TRANSLATION  ACCESS:          0 HIT:          0 MISS:          0
cpu2_DTLB PREFETCH REQUESTED:          0 ISSUED:          0 USEFUL:          0 USELESS:          0
cpu2_DTLB AVERAGE MISS LATENCY: 9.007 cycles
cpu2_DTLB TOTAL        ACCESS:          0 HIT:          0 MISS:          0
cpu2_DTLB LOAD         ACCESS:          0 HIT:          0 MISS:          0
cpu2_DTLB RFO          ACCESS:          0 HIT:          0 MISS:          0
cpu2_DTLB PREFETCH     ACCESS:          0 HIT:          0 MISS:          0
cpu2_DTLB WRITE        ACCESS:          0 HIT:          0 MISS:          0
cpu2_DTLB TRANSLATION  ACCESS:          0 HIT:          0 MISS:          0
cpu2_DTLB PREFETCH REQUESTED:          0 ISSUED:          0 USEFUL:          0 USELESS:          0
cpu2_DTLB AVERAGE MISS LATENCY: 9.007 cycles
cpu2_ITLB TOTAL        ACCESS:          0 HIT:          0 MISS:          0
cpu2_ITLB LOAD         ACCESS:          0 HIT:          0 MISS:          0
cpu2_ITLB RFO          ACCESS:          0 HIT:          0 MISS:          0
cpu2_ITLB PREFETCH     ACCESS:          0 HIT:          0 MISS:          0
cpu2_ITLB WRITE        ACCESS:          0 HIT:          0 MISS:          0
cpu2_ITLB TRANSLATION  ACCESS:          0 HIT:          0 MISS:          0
cpu2_ITLB PREFETCH REQUESTED:          0 ISSUED:          0 USEFUL:          0 USELESS:          0
cpu2_ITLB AVERAGE MISS LATENCY: -nan cycles
cpu2_ITLB TOTAL        ACCESS:          0 HIT:          0 MISS:          0
cpu2_ITLB LOAD         ACCESS:          0 HIT:          0 MISS:          0
cpu2_ITLB RFO          ACCESS:          0 HIT:          0 MISS:          0
cpu2_ITLB PREFETCH     ACCESS:          0 HIT:          0 MISS:          0
cpu2_ITLB WRITE        ACCESS:          0 HIT:          0 MISS:          0
cpu2_ITLB TRANSLATION  ACCESS:          0 HIT:          0 MISS:          0
cpu2_ITLB PREFETCH REQUESTED:          0 ISSUED:          0 USEFUL:          0 USELESS:          0
cpu2_ITLB AVERAGE MISS LATENCY: -nan cycles
cpu2_ITLB TOTAL        ACCESS:      55940 HIT:      55940 MISS:          0
cpu2_ITLB LOAD         ACCESS:      55940 HIT:      55940 MISS:          0
cpu2_ITLB RFO          ACCESS:          0 HIT:          0 MISS:          0
cpu2_ITLB PREFETCH     ACCESS:          0 HIT:          0 MISS:          0
cpu2_ITLB WRITE        ACCESS:          0 HIT:          0 MISS:          0
cpu2_ITLB TRANSLATION  ACCESS:          0 HIT:          0 MISS:          0
cpu2_ITLB PREFETCH REQUESTED:          0 ISSUED:          0 USEFUL:          0 USELESS:          0
cpu2_ITLB AVERAGE MISS LATENCY: -nan cycles
cpu2_ITLB TOTAL        ACCESS:          0 HIT:          0 MISS:          0
cpu2_ITLB LOAD         ACCESS:          0 HIT:          0 MISS:          0
cpu2_ITLB RFO          ACCESS:          0 HIT:          0 MISS:          0
cpu2_ITLB PREFETCH     ACCESS:          0 HIT:          0 MISS:          0
cpu2_ITLB WRITE        ACCESS:          0 HIT:          0 MISS:          0
cpu2_ITLB TRANSLATION  ACCESS:          0 HIT:          0 MISS:          0
cpu2_ITLB PREFETCH REQUESTED:          0 ISSUED:          0 USEFUL:          0 USELESS:          0
cpu2_ITLB AVERAGE MISS LATENCY: -nan cycles
cpu2_L1D TOTAL        ACCESS:          0 HIT:          0 MISS:          0
cpu2_L1D LOAD         ACCESS:          0 HIT:          0 MISS:          0
cpu2_L1D RFO          ACCESS:          0 HIT:          0 MISS:          0
cpu2_L1D PREFETCH     ACCESS:          0 HIT:          0 MISS:          0
cpu2_L1D WRITE        ACCESS:          0 HIT:          0 MISS:          0
cpu2_L1D TRANSLATION  ACCESS:          0 HIT:          0 MISS:          0
cpu2_L1D PREFETCH REQUESTED:   41691722 ISSUED:   36930467 USEFUL:    1258371 USELESS:     274491
cpu2_L1D AVERAGE MISS LATENCY: 55.26 cycles
cpu2_L1D TOTAL        ACCESS:          0 HIT:          0 MISS:          0
cpu2_L1D LOAD         ACCESS:          0 HIT:          0 MISS:          0
cpu2_L1D RFO          ACCESS:          0 HIT:          0 MISS:          0
cpu2_L1D PREFETCH     ACCESS:          0 HIT:          0 MISS:          0
cpu2_L1D WRITE        ACCESS:          0 HIT:          0 MISS:          0
cpu2_L1D TRANSLATION  ACCESS:          0 HIT:          0 MISS:          0
cpu2_L1D PREFETCH REQUESTED:   41691722 ISSUED:   36930467 USEFUL:    1258371 USELESS:     274491
cpu2_L1D AVERAGE MISS LATENCY: 55.26 cycles
cpu2_L1D TOTAL        ACCESS:   99194626 HIT:   85158400 MISS:   14036226
cpu2_L1D LOAD         ACCESS:   41185668 HIT:   36872487 MISS:    4313181
cpu2_L1D RFO          ACCESS:          0 HIT:          0 MISS:          0
cpu2_L1D PREFETCH     ACCESS:   36930498 HIT:   29091150 MISS:    7839348
cpu2_L1D WRITE        ACCESS:   21042106 HIT:   19178141 MISS:    1863965
cpu2_L1D TRANSLATION  ACCESS:      36354 HIT:      16622 MISS:      19732
cpu2_L1D PREFETCH REQUESTED:   41691722 ISSUED:   36930467 USEFUL:    1258371 USELESS:     274491
cpu2_L1D AVERAGE MISS LATENCY: 55.26 cycles
cpu2_L1D TOTAL        ACCESS:          0 HIT:          0 MISS:          0
cpu2_L1D LOAD         ACCESS:          0 HIT:          0 MISS:          0
cpu2_L1D RFO          ACCESS:          0 HIT:          0 MISS:          0
cpu2_L1D PREFETCH     ACCESS:          0 HIT:          0 MISS:          0
cpu2_L1D WRITE        ACCESS:          0 HIT:          0 MISS:          0
cpu2_L1D TRANSLATION  ACCESS:          0 HIT:          0 MISS:          0
cpu2_L1D PREFETCH REQUESTED:   41691722 ISSUED:   36930467 USEFUL:    1258371 USELESS:     274491
cpu2_L1D AVERAGE MISS LATENCY: 55.26 cycles
cpu2_L1I TOTAL        ACCESS:          0 HIT:          0 MISS:          0
cpu2_L1I LOAD         ACCESS:          0 HIT:          0 MISS:          0
cpu2_L1I RFO          ACCESS:          0 HIT:          0 MISS:          0
cpu2_L1I PREFETCH     ACCESS:          0 HIT:          0 MISS:          0
cpu2_L1I WRITE        ACCESS:          0 HIT:          0 MISS:          0
cpu2_L1I TRANSLATION  ACCESS:          0 HIT:          0 MISS:          0
cpu2_L1I PREFETCH REQUESTED:          0 ISSUED:          0 USEFUL:          0 USELESS:          0
cpu2_L1I AVERAGE MISS LATENCY: 312 cycles
cpu2_L1I TOTAL        ACCESS:          0 HIT:          0 MISS:          0
cpu2_L1I LOAD         ACCESS:          0 HIT:          0 MISS:          0
cpu2_L1I RFO          ACCESS:          0 HIT:          0 MISS:          0
cpu2_L1I PREFETCH     ACCESS:          0 HIT:          0 MISS:          0
cpu2_L1I WRITE        ACCESS:          0 HIT:          0 MISS:          0
cpu2_L1I TRANSLATION  ACCESS:          0 HIT:          0 MISS:          0
cpu2_L1I PREFETCH REQUESTED:          0 ISSUED:          0 USEFUL:          0 USELESS:          0
cpu2_L1I AVERAGE MISS LATENCY: 312 cycles
cpu2_L1I TOTAL        ACCESS:      62868 HIT:      62866 MISS:          2
cpu2_L1I LOAD         ACCESS:      62868 HIT:      62866 MISS:          2
cpu2_L1I RFO          ACCESS:          0 HIT:          0 MISS:          0
cpu2_L1I PREFETCH     ACCESS:          0 HIT:          0 MISS:          0
cpu2_L1I WRITE        ACCESS:          0 HIT:          0 MISS:          0
cpu2_L1I TRANSLATION  ACCESS:          0 HIT:          0 MISS:          0
cpu2_L1I PREFETCH REQUESTED:          0 ISSUED:          0 USEFUL:          0 USELESS:          0
cpu2_L1I AVERAGE MISS LATENCY: 312 cycles
cpu2_L1I TOTAL        ACCESS:          0 HIT:          0 MISS:          0
cpu2_L1I LOAD         ACCESS:          0 HIT:          0 MISS:          0
cpu2_L1I RFO          ACCESS:          0 HIT:          0 MISS:          0
cpu2_L1I PREFETCH     ACCESS:          0 HIT:          0 MISS:          0
cpu2_L1I WRITE        ACCESS:          0 HIT:          0 MISS:          0
cpu2_L1I TRANSLATION  ACCESS:          0 HIT:          0 MISS:          0
cpu2_L1I PREFETCH REQUESTED:          0 ISSUED:          0 USEFUL:          0 USELESS:          0
cpu2_L1I AVERAGE MISS LATENCY: 312 cycles
cpu2_L2C TOTAL        ACCESS:          0 HIT:          0 MISS:          0
cpu2_L2C LOAD         ACCESS:          0 HIT:          0 MISS:          0
cpu2_L2C RFO          ACCESS:          0 HIT:          0 MISS:          0
cpu2_L2C PREFETCH     ACCESS:          0 HIT:          0 MISS:          0
cpu2_L2C WRITE        ACCESS:          0 HIT:          0 MISS:          0
cpu2_L2C TRANSLATION  ACCESS:          0 HIT:          0 MISS:          0
cpu2_L2C PREFETCH REQUESTED:          0 ISSUED:          0 USEFUL:          0 USELESS:          0
cpu2_L2C AVERAGE MISS LATENCY: 255 cycles
cpu2_L2C TOTAL        ACCESS:          0 HIT:          0 MISS:          0
cpu2_L2C LOAD         ACCESS:          0 HIT:          0 MISS:          0
cpu2_L2C RFO          ACCESS:          0 HIT:          0 MISS:          0
cpu2_L2C PREFETCH     ACCESS:          0 HIT:          0 MISS:          0
cpu2_L2C WRITE        ACCESS:          0 HIT:          0 MISS:          0
cpu2_L2C TRANSLATION  ACCESS:          0 HIT:          0 MISS:          0
cpu2_L2C PREFETCH REQUESTED:          0 ISSUED:          0 USEFUL:          0 USELESS:          0
cpu2_L2C AVERAGE MISS LATENCY: 255 cycles
cpu2_L2C TOTAL        ACCESS:   13678578 HIT:    9150826 MISS:    4527752
cpu2_L2C LOAD         ACCESS:    4222400 HIT:    1852120 MISS:    2370280
cpu2_L2C RFO          ACCESS:     681914 HIT:     362134 MISS:     319780
cpu2_L2C PREFETCH     ACCESS:    7821304 HIT:    6000321 MISS:    1820983
cpu2_L2C WRITE        ACCESS:     933230 HIT:     932683 MISS:        547
cpu2_L2C TRANSLATION  ACCESS:      19730 HIT:       3568 MISS:      16162
cpu2_L2C PREFETCH REQUESTED:          0 ISSUED:          0 USEFUL:          0 USELESS:          0
cpu2_L2C AVERAGE MISS LATENCY: 255 cycles
cpu2_L2C TOTAL        ACCESS:          0 HIT:          0 MISS:          0
cpu2_L2C LOAD         ACCESS:          0 HIT:          0 MISS:          0
cpu2_L2C RFO          ACCESS:          0 HIT:          0 MISS:          0
cpu2_L2C PREFETCH     ACCESS:          0 HIT:          0 MISS:          0
cpu2_L2C WRITE        ACCESS:          0 HIT:          0 MISS:          0
cpu2_L2C TRANSLATION  ACCESS:          0 HIT:          0 MISS:          0
cpu2_L2C PREFETCH REQUESTED:          0 ISSUED:          0 USEFUL:          0 USELESS:          0
cpu2_L2C AVERAGE MISS LATENCY: 255 cycles
cpu2_STLB TOTAL        ACCESS:          0 HIT:          0 MISS:          0
cpu2_STLB LOAD         ACCESS:          0 HIT:          0 MISS:          0
cpu2_STLB RFO          ACCESS:          0 HIT:          0 MISS:          0
cpu2_STLB PREFETCH     ACCESS:          0 HIT:          0 MISS:          0
cpu2_STLB WRITE        ACCESS:          0 HIT:          0 MISS:          0
cpu2_STLB TRANSLATION  ACCESS:          0 HIT:          0 MISS:          0
cpu2_STLB PREFETCH REQUESTED:          0 ISSUED:          0 USEFUL:          0 USELESS:          0
cpu2_STLB AVERAGE MISS LATENCY: 227.5 cycles
cpu2_STLB TOTAL        ACCESS:          0 HIT:          0 MISS:          0
cpu2_STLB LOAD         ACCESS:          0 HIT:          0 MISS:          0
cpu2_STLB RFO          ACCESS:          0 HIT:          0 MISS:          0
cpu2_STLB PREFETCH     ACCESS:          0 HIT:          0 MISS:          0
cpu2_STLB WRITE        ACCESS:          0 HIT:          0 MISS:          0
cpu2_STLB TRANSLATION  ACCESS:          0 HIT:          0 MISS:          0
cpu2_STLB PREFETCH REQUESTED:          0 ISSUED:          0 USEFUL:          0 USELESS:          0
cpu2_STLB AVERAGE MISS LATENCY: 227.5 cycles
cpu2_STLB TOTAL        ACCESS:    2620052 HIT:    2583961 MISS:      36091
cpu2_STLB LOAD         ACCESS:    2620052 HIT:    2583961 MISS:      36091
cpu2_STLB RFO          ACCESS:          0 HIT:          0 MISS:          0
cpu2_STLB PREFETCH     ACCESS:          0 HIT:          0 MISS:          0
cpu2_STLB WRITE        ACCESS:          0 HIT:          0 MISS:          0
cpu2_STLB TRANSLATION  ACCESS:          0 HIT:          0 MISS:          0
cpu2_STLB PREFETCH REQUESTED:          0 ISSUED:          0 USEFUL:          0 USELESS:          0
cpu2_STLB AVERAGE MISS LATENCY: 227.5 cycles
cpu2_STLB TOTAL        ACCESS:          0 HIT:          0 MISS:          0
cpu2_STLB LOAD         ACCESS:          0 HIT:          0 MISS:          0
cpu2_STLB RFO          ACCESS:          0 HIT:          0 MISS:          0
cpu2_STLB PREFETCH     ACCESS:          0 HIT:          0 MISS:          0
cpu2_STLB WRITE        ACCESS:          0 HIT:          0 MISS:          0
cpu2_STLB TRANSLATION  ACCESS:          0 HIT:          0 MISS:          0
cpu2_STLB PREFETCH REQUESTED:          0 ISSUED:          0 USEFUL:          0 USELESS:          0
cpu2_STLB AVERAGE MISS LATENCY: 227.5 cycles
cpu3_DTLB TOTAL        ACCESS:          0 HIT:          0 MISS:          0
cpu3_DTLB LOAD         ACCESS:          0 HIT:          0 MISS:          0
cpu3_DTLB RFO          ACCESS:          0 HIT:          0 MISS:          0
cpu3_DTLB PREFETCH     ACCESS:          0 HIT:          0 MISS:          0
cpu3_DTLB WRITE        ACCESS:          0 HIT:          0 MISS:          0
cpu3_DTLB TRANSLATION  ACCESS:          0 HIT:          0 MISS:          0
cpu3_DTLB PREFETCH REQUESTED:          0 ISSUED:          0 USEFUL:          0 USELESS:          0
cpu3_DTLB AVERAGE MISS LATENCY: 12.09 cycles
cpu3_DTLB TOTAL        ACCESS:          0 HIT:          0 MISS:          0
cpu3_DTLB LOAD         ACCESS:          0 HIT:          0 MISS:          0
cpu3_DTLB RFO          ACCESS:          0 HIT:          0 MISS:          0
cpu3_DTLB PREFETCH     ACCESS:          0 HIT:          0 MISS:          0
cpu3_DTLB WRITE        ACCESS:          0 HIT:          0 MISS:          0
cpu3_DTLB TRANSLATION  ACCESS:          0 HIT:          0 MISS:          0
cpu3_DTLB PREFETCH REQUESTED:          0 ISSUED:          0 USEFUL:          0 USELESS:          0
cpu3_DTLB AVERAGE MISS LATENCY: 12.09 cycles
cpu3_DTLB TOTAL        ACCESS:          0 HIT:          0 MISS:          0
cpu3_DTLB LOAD         ACCESS:          0 HIT:          0 MISS:          0
cpu3_DTLB RFO          ACCESS:          0 HIT:          0 MISS:          0
cpu3_DTLB PREFETCH     ACCESS:          0 HIT:          0 MISS:          0
cpu3_DTLB WRITE        ACCESS:          0 HIT:          0 MISS:          0
cpu3_DTLB TRANSLATION  ACCESS:          0 HIT:          0 MISS:          0
cpu3_DTLB PREFETCH REQUESTED:          0 ISSUED:          0 USEFUL:          0 USELESS:          0
cpu3_DTLB AVERAGE MISS LATENCY: 12.09 cycles
cpu3_DTLB TOTAL        ACCESS:  120320352 HIT:  119287076 MISS:    1033276
cpu3_DTLB LOAD         ACCESS:  120320352 HIT:  119287076 MISS:    1033276
cpu3_DTLB RFO          ACCESS:          0 HIT:          0 MISS:          0
cpu3_DTLB PREFETCH     ACCESS:          0 HIT:          0 MISS:          0
cpu3_DTLB WRITE        ACCESS:          0 HIT:          0 MISS:          0
cpu3_DTLB TRANSLATION  ACCESS:          0 HIT:          0 MISS:          0
cpu3_DTLB PREFETCH REQUESTED:          0 ISSUED:          0 USEFUL:          0 USELESS:          0
cpu3_DTLB AVERAGE MISS LATENCY: 12.09 cycles
cpu3_ITLB TOTAL        ACCESS:          0 HIT:          0 MISS:          0
cpu3_ITLB LOAD         ACCESS:          0 HIT:          0 MISS:          0
cpu3_ITLB RFO          ACCESS:          0 HIT:          0 MISS:          0
cpu3_ITLB PREFETCH     ACCESS:          0 HIT:          0 MISS:          0
cpu3_ITLB WRITE        ACCESS:          0 HIT:          0 MISS:          0
cpu3_ITLB TRANSLATION  ACCESS:          0 HIT:          0 MISS:          0
cpu3_ITLB PREFETCH REQUESTED:          0 ISSUED:          0 USEFUL:          0 USELESS:          0
cpu3_ITLB AVERAGE MISS LATENCY: 7.367 cycles
cpu3_ITLB TOTAL        ACCESS:          0 HIT:          0 MISS:          0
cpu3_ITLB LOAD         ACCESS:          0 HIT:          0 MISS:          0
cpu3_ITLB RFO          ACCESS:          0 HIT:          0 MISS:          0
cpu3_ITLB PREFETCH     ACCESS:          0 HIT:          0 MISS:          0
cpu3_ITLB WRITE        ACCESS:          0 HIT:          0 MISS:          0
cpu3_ITLB TRANSLATION  ACCESS:          0 HIT:          0 MISS:          0
cpu3_ITLB PREFETCH REQUESTED:          0 ISSUED:          0 USEFUL:          0 USELESS:          0
cpu3_ITLB AVERAGE MISS LATENCY: 7.367 cycles
cpu3_ITLB TOTAL        ACCESS:          0 HIT:          0 MISS:          0
[...]
cpu2_L2C PREFETCH REQUESTED:          0 ISSUED:          0 USEFUL:          0 USELESS:          0
cpu2_L2C AVERAGE MISS LATENCY: 255 cycles
cpu2_L2C TOTAL        ACCESS:          0 HIT:          0 MISS:          0
cpu2_L2C LOAD         ACCESS:          0 HIT:          0 MISS:          0
cpu2_L2C RFO          ACCESS:          0 HIT:          0 MISS:          0
cpu2_L2C PREFETCH     ACCESS:          0 HIT:          0 MISS:          0
cpu2_L2C WRITE        ACCESS:          0 HIT:          0 MISS:          0
cpu2_L2C TRANSLATION  ACCESS:          0 HIT:          0 MISS:          0
cpu2_L2C PREFETCH REQUESTED:          0 ISSUED:          0 USEFUL:          0 USELESS:          0
cpu2_L2C AVERAGE MISS LATENCY: 255 cycles
cpu2_L2C TOTAL        ACCESS:   11544383 HIT:    7696666 MISS:    3847717
cpu2_L2C LOAD         ACCESS:    3548559 HIT:    1545585 MISS:    2002974
cpu2_L2C RFO          ACCESS:     574027 HIT:     303853 MISS:     270174
cpu2_L2C PREFETCH     ACCESS:    6627023 HIT:    5066858 MISS:    1560165
cpu2_L2C WRITE        ACCESS:     777739 HIT:     777270 MISS:        469
cpu2_L2C TRANSLATION  ACCESS:      17035 HIT:       3100 MISS:      13935
cpu2_L2C PREFETCH REQUESTED:          0 ISSUED:          0 USEFUL:          0 USELESS:          0
cpu2_L2C AVERAGE MISS LATENCY: 255 cycles
cpu2_L2C TOTAL        ACCESS:          0 HIT:          0 MISS:          0
cpu2_L2C LOAD         ACCESS:          0 HIT:          0 MISS:          0
cpu2_L2C RFO          ACCESS:          0 HIT:          0 MISS:          0
cpu2_L2C PREFETCH     ACCESS:          0 HIT:          0 MISS:          0
cpu2_L2C WRITE        ACCESS:          0 HIT:          0 MISS:          0
cpu2_L2C TRANSLATION  ACCESS:          0 HIT:          0 MISS:          0
cpu2_L2C PREFETCH REQUESTED:          0 ISSUED:          0 USEFUL:          0 USELESS:          0
cpu2_L2C AVERAGE MISS LATENCY: 255 cycles
cpu2_STLB TOTAL        ACCESS:          0 HIT:          0 MISS:          0
cpu2_STLB LOAD         ACCESS:          0 HIT:          0 MISS:          0
cpu2_STLB RFO          ACCESS:          0 HIT:          0 MISS:          0
cpu2_STLB PREFETCH     ACCESS:          0 HIT:          0 MISS:          0
cpu2_STLB WRITE        ACCESS:          0 HIT:          0 MISS:          0
cpu2_STLB TRANSLATION  ACCESS:          0 HIT:          0 MISS:          0
cpu2_STLB PREFETCH REQUESTED:          0 ISSUED:          0 USEFUL:          0 USELESS:          0
cpu2_STLB AVERAGE MISS LATENCY: 227.5 cycles
cpu2_STLB TOTAL        ACCESS:          0 HIT:          0 MISS:          0
cpu2_STLB LOAD         ACCESS:          0 HIT:          0 MISS:          0
cpu2_STLB RFO          ACCESS:          0 HIT:          0 MISS:          0
cpu2_STLB PREFETCH     ACCESS:          0 HIT:          0 MISS:          0
cpu2_STLB WRITE        ACCESS:          0 HIT:          0 MISS:          0
cpu2_STLB TRANSLATION  ACCESS:          0 HIT:          0 MISS:          0
cpu2_STLB PREFETCH REQUESTED:          0 ISSUED:          0 USEFUL:          0 USELESS:          0
cpu2_STLB AVERAGE MISS LATENCY: 227.5 cycles
cpu2_STLB TOTAL        ACCESS:    2217251 HIT:    2186290 MISS:      30961
cpu2_STLB LOAD         ACCESS:    2217251 HIT:    2186290 MISS:      30961
cpu2_STLB RFO          ACCESS:          0 HIT:          0 MISS:          0
cpu2_STLB PREFETCH     ACCESS:          0 HIT:          0 MISS:          0
cpu2_STLB WRITE        ACCESS:          0 HIT:          0 MISS:          0
cpu2_STLB TRANSLATION  ACCESS:          0 HIT:          0 MISS:          0
cpu2_STLB PREFETCH REQUESTED:          0 ISSUED:          0 USEFUL:          0 USELESS:          0
cpu2_STLB AVERAGE MISS LATENCY: 227.5 cycles
cpu2_STLB TOTAL        ACCESS:          0 HIT:          0 MISS:          0
cpu2_STLB LOAD         ACCESS:          0 HIT:          0 MISS:          0
cpu2_STLB RFO          ACCESS:          0 HIT:          0 MISS:          0
cpu2_STLB PREFETCH     ACCESS:          0 HIT:          0 MISS:          0
cpu2_STLB WRITE        ACCESS:          0 HIT:          0 MISS:          0
cpu2_STLB TRANSLATION  ACCESS:          0 HIT:          0 MISS:          0
cpu2_STLB PREFETCH REQUESTED:          0 ISSUED:          0 USEFUL:          0 USELESS:          0
cpu2_STLB AVERAGE MISS LATENCY: 227.5 cycles
cpu3_DTLB TOTAL        ACCESS:          0 HIT:          0 MISS:          0
cpu3_DTLB LOAD         ACCESS:          0 HIT:          0 MISS:          0
cpu3_DTLB RFO          ACCESS:          0 HIT:          0 MISS:          0
cpu3_DTLB PREFETCH     ACCESS:          0 HIT:          0 MISS:          0
cpu3_DTLB WRITE        ACCESS:          0 HIT:          0 MISS:          0
cpu3_DTLB TRANSLATION  ACCESS:          0 HIT:          0 MISS:          0
cpu3_DTLB PREFETCH REQUESTED:          0 ISSUED:          0 USEFUL:          0 USELESS:          0
cpu3_DTLB AVERAGE MISS LATENCY: 12.09 cycles
cpu3_DTLB TOTAL        ACCESS:          0 HIT:          0 MISS:          0
cpu3_DTLB LOAD         ACCESS:          0 HIT:          0 MISS:          0
cpu3_DTLB RFO          ACCESS:          0 HIT:          0 MISS:          0
cpu3_DTLB PREFETCH     ACCESS:          0 HIT:          0 MISS:          0
cpu3_DTLB WRITE        ACCESS:          0 HIT:          0 MISS:          0
cpu3_DTLB TRANSLATION  ACCESS:          0 HIT:          0 MISS:          0
cpu3_DTLB PREFETCH REQUESTED:          0 ISSUED:          0 USEFUL:          0 USELESS:          0
cpu3_DTLB AVERAGE MISS LATENCY: 12.09 cycles
cpu3_DTLB TOTAL        ACCESS:          0 HIT:          0 MISS:          0
cpu3_DTLB LOAD         ACCESS:          0 HIT:          0 MISS:          0
cpu3_DTLB RFO          ACCESS:          0 HIT:          0 MISS:          0
cpu3_DTLB PREFETCH     ACCESS:          0 HIT:          0 MISS:          0
cpu3_DTLB WRITE        ACCESS:          0 HIT:          0 MISS:          0
cpu3_DTLB TRANSLATION  ACCESS:          0 HIT:          0 MISS:          0
cpu3_DTLB PREFETCH REQUESTED:          0 ISSUED:          0 USEFUL:          0 USELESS:          0
cpu3_DTLB AVERAGE MISS LATENCY: 12.09 cycles
cpu3_DTLB TOTAL        ACCESS:   20502848 HIT:   20323136 MISS:     179712
cpu3_DTLB LOAD         ACCESS:   20502848 HIT:   20323136 MISS:     179712
cpu3_DTLB RFO          ACCESS:          0 HIT:          0 MISS:          0
cpu3_DTLB PREFETCH     ACCESS:          0 HIT:          0 MISS:          0
cpu3_DTLB WRITE        ACCESS:          0 HIT:          0 MISS:          0
cpu3_DTLB TRANSLATION  ACCESS:          0 HIT:          0 MISS:          0
cpu3_DTLB PREFETCH REQUESTED:          0 ISSUED:          0 USEFUL:          0 USELESS:          0
cpu3_DTLB AVERAGE MISS LATENCY: 12.09 cycles
cpu3_ITLB TOTAL        ACCESS:          0 HIT:          0 MISS:          0
cpu3_ITLB LOAD         ACCESS:          0 HIT:          0 MISS:          0
cpu3_ITLB RFO          ACCESS:          0 HIT:          0 MISS:          0
cpu3_ITLB PREFETCH     ACCESS:          0 HIT:          0 MISS:          0
cpu3_ITLB WRITE        ACCESS:          0 HIT:          0 MISS:          0
cpu3_ITLB TRANSLATION  ACCESS:          0 HIT:          0 MISS:          0
cpu3_ITLB PREFETCH REQUESTED:          0 ISSUED:          0 USEFUL:          0 USELESS:          0
cpu3_ITLB AVERAGE MISS LATENCY: 7.367 cycles
cpu3_ITLB TOTAL        ACCESS:          0 HIT:          0 MISS:          0
cpu3_ITLB LOAD         ACCESS:          0 HIT:          0 MISS:          0
cpu3_ITLB RFO          ACCESS:          0 HIT:          0 MISS:          0
cpu3_ITLB PREFETCH     ACCESS:          0 HIT:          0 MISS:          0
cpu3_ITLB WRITE        ACCESS:          0 HIT:          0 MISS:          0
cpu3_ITLB TRANSLATION  ACCESS:          0 HIT:          0 MISS:          0
cpu3_ITLB PREFETCH REQUESTED:          0 ISSUED:          0 USEFUL:          0 USELESS:          0
cpu3_ITLB AVERAGE MISS LATENCY: 7.367 cycles
cpu3_ITLB TOTAL        ACCESS:          0 HIT:          0 MISS:          0
cpu3_ITLB LOAD         ACCESS:          0 HIT:          0 MISS:          0
cpu3_ITLB RFO          ACCESS:          0 HIT:          0 MISS:          0
cpu3_ITLB PREFETCH     ACCESS:          0 HIT:          0 MISS:          0
cpu3_ITLB WRITE        ACCESS:          0 HIT:          0 MISS:          0
cpu3_ITLB TRANSLATION  ACCESS:          0 HIT:          0 MISS:          0
cpu3_ITLB PREFETCH REQUESTED:          0 ISSUED:          0 USEFUL:          0 USELESS:          0
cpu3_ITLB AVERAGE MISS LATENCY: 7.367 cycles
cpu3_ITLB TOTAL        ACCESS:     300172 HIT:     293638 MISS:       6534
cpu3_ITLB LOAD         ACCESS:     300172 HIT:     293638 MISS:       6534
cpu3_ITLB RFO          ACCESS:          0 HIT:          0 MISS:          0
cpu3_ITLB PREFETCH     ACCESS:          0 HIT:          0 MISS:          0
cpu3_ITLB WRITE        ACCESS:          0 HIT:          0 MISS:          0
cpu3_ITLB TRANSLATION  ACCESS:          0 HIT:          0 MISS:          0
cpu3_ITLB PREFETCH REQUESTED:          0 ISSUED:          0 USEFUL:          0 USELESS:          0
cpu3_ITLB AVERAGE MISS LATENCY: 7.367 cycles
cpu3_L1D TOTAL        ACCESS:          0 HIT:          0 MISS:          0
cpu3_L1D LOAD         ACCESS:          0 HIT:          0 MISS:          0
cpu3_L1D RFO          ACCESS:          0 HIT:          0 MISS:          0
cpu3_L1D PREFETCH     ACCESS:          0 HIT:          0 MISS:          0
cpu3_L1D WRITE        ACCESS:          0 HIT:          0 MISS:          0
cpu3_L1D TRANSLATION  ACCESS:          0 HIT:          0 MISS:          0
cpu3_L1D PREFETCH REQUESTED:  200238062 ISSUED:   31195513 USEFUL:    2058886 USELESS:     942372
cpu3_L1D AVERAGE MISS LATENCY: 50.26 cycles
cpu3_L1D TOTAL        ACCESS:          0 HIT:          0 MISS:          0
cpu3_L1D LOAD         ACCESS:          0 HIT:          0 MISS:          0
cpu3_L1D RFO          ACCESS:          0 HIT:          0 MISS:          0
cpu3_L1D PREFETCH     ACCESS:          0 HIT:          0 MISS:          0
cpu3_L1D WRITE        ACCESS:          0 HIT:          0 MISS:          0
cpu3_L1D TRANSLATION  ACCESS:          0 HIT:          0 MISS:          0
cpu3_L1D PREFETCH REQUESTED:  200238062 ISSUED:   31195513 USEFUL:    2058886 USELESS:     942372
cpu3_L1D AVERAGE MISS LATENCY: 50.26 cycles
cpu3_L1D TOTAL        ACCESS:          0 HIT:          0 MISS:          0
cpu3_L1D LOAD         ACCESS:          0 HIT:          0 MISS:          0
cpu3_L1D RFO          ACCESS:          0 HIT:          0 MISS:          0
cpu3_L1D PREFETCH     ACCESS:          0 HIT:          0 MISS:          0
cpu3_L1D WRITE        ACCESS:          0 HIT:          0 MISS:          0
cpu3_L1D TRANSLATION  ACCESS:          0 HIT:          0 MISS:          0
cpu3_L1D PREFETCH REQUESTED:  200238062 ISSUED:   31195513 USEFUL:    2058886 USELESS:     942372
cpu3_L1D AVERAGE MISS LATENCY: 50.26 cycles
cpu3_L1D TOTAL        ACCESS:   29819141 HIT:   23666987 MISS:    6152154
cpu3_L1D LOAD         ACCESS:   15253551 HIT:   13569754 MISS:    1683797
cpu3_L1D RFO          ACCESS:          0 HIT:          0 MISS:          0
cpu3_L1D PREFETCH     ACCESS:    4954597 HIT:    3439509 MISS:    1515088
cpu3_L1D WRITE        ACCESS:    9602726 HIT:    6655652 MISS:    2947074
cpu3_L1D TRANSLATION  ACCESS:       8267 HIT:       2072 MISS:       6195
cpu3_L1D PREFETCH REQUESTED:  200238062 ISSUED:   31195513 USEFUL:    2058886 USELESS:     942372
cpu3_L1D AVERAGE MISS LATENCY: 50.26 cycles
cpu3_L1I TOTAL        ACCESS:          0 HIT:          0 MISS:          0
cpu3_L1I LOAD         ACCESS:          0 HIT:          0 MISS:          0
cpu3_L1I RFO          ACCESS:          0 HIT:          0 MISS:          0
cpu3_L1I PREFETCH     ACCESS:          0 HIT:          0 MISS:          0
cpu3_L1I WRITE        ACCESS:          0 HIT:          0 MISS:          0
cpu3_L1I TRANSLATION  ACCESS:          0 HIT:          0 MISS:          0
cpu3_L1I PREFETCH REQUESTED:          0 ISSUED:          0 USEFUL:          0 USELESS:          0
cpu3_L1I AVERAGE MISS LATENCY: 29.67 cycles
cpu3_L1I TOTAL        ACCESS:          0 HIT:          0 MISS:          0
cpu3_L1I LOAD         ACCESS:          0 HIT:          0 MISS:          0
cpu3_L1I RFO          ACCESS:          0 HIT:          0 MISS:          0
cpu3_L1I PREFETCH     ACCESS:          0 HIT:          0 MISS:          0
cpu3_L1I WRITE        ACCESS:          0 HIT:          0 MISS:          0
cpu3_L1I TRANSLATION  ACCESS:          0 HIT:          0 MISS:          0
cpu3_L1I PREFETCH REQUESTED:          0 ISSUED:          0 USEFUL:          0 USELESS:          0
cpu3_L1I AVERAGE MISS LATENCY: 29.67 cycles
cpu3_L1I TOTAL        ACCESS:          0 HIT:          0 MISS:          0
cpu3_L1I LOAD         ACCESS:          0 HIT:          0 MISS:          0
cpu3_L1I RFO          ACCESS:          0 HIT:          0 MISS:          0
cpu3_L1I PREFETCH     ACCESS:          0 HIT:          0 MISS:          0
cpu3_L1I WRITE        ACCESS:          0 HIT:          0 MISS:          0
cpu3_L1I TRANSLATION  ACCESS:          0 HIT:          0 MISS:          0
cpu3_L1I PREFETCH REQUESTED:          0 ISSUED:          0 USEFUL:          0 USELESS:          0
cpu3_L1I AVERAGE MISS LATENCY: 29.67 cycles
cpu3_L1I TOTAL        ACCESS:     373103 HIT:     262378 MISS:     110725
cpu3_L1I LOAD         ACCESS:     373103 HIT:     262378 MISS:     110725
cpu3_L1I RFO          ACCESS:          0 HIT:          0 MISS:          0
cpu3_L1I PREFETCH     ACCESS:          0 HIT:          0 MISS:          0
cpu3_L1I WRITE        ACCESS:          0 HIT:          0 MISS:          0
cpu3_L1I TRANSLATION  ACCESS:          0 HIT:          0 MISS:          0
cpu3_L1I PREFETCH REQUESTED:          0 ISSUED:          0 USEFUL:          0 USELESS:          0
cpu3_L1I AVERAGE MISS LATENCY: 29.67 cycles
cpu3_L2C TOTAL        ACCESS:          0 HIT:          0 MISS:          0
cpu3_L2C LOAD         ACCESS:          0 HIT:          0 MISS:          0
cpu3_L2C RFO          ACCESS:          0 HIT:          0 MISS:          0
cpu3_L2C PREFETCH     ACCESS:          0 HIT:          0 MISS:          0
cpu3_L2C WRITE        ACCESS:          0 HIT:          0 MISS:          0
cpu3_L2C TRANSLATION  ACCESS:          0 HIT:          0 MISS:          0
cpu3_L2C PREFETCH REQUESTED:          0 ISSUED:          0 USEFUL:          0 USELESS:          0
cpu3_L2C AVERAGE MISS LATENCY: 273.5 cycles
cpu3_L2C TOTAL        ACCESS:          0 HIT:          0 MISS:          0
cpu3_L2C LOAD         ACCESS:          0 HIT:          0 MISS:          0
cpu3_L2C RFO          ACCESS:          0 HIT:          0 MISS:          0
cpu3_L2C PREFETCH     ACCESS:          0 HIT:          0 MISS:          0
cpu3_L2C WRITE        ACCESS:          0 HIT:          0 MISS:          0
cpu3_L2C TRANSLATION  ACCESS:          0 HIT:          0 MISS:          0
cpu3_L2C PREFETCH REQUESTED:          0 ISSUED:          0 USEFUL:          0 USELESS:          0
cpu3_L2C AVERAGE MISS LATENCY: 273.5 cycles
cpu3_L2C TOTAL        ACCESS:          0 HIT:          0 MISS:          0
cpu3_L2C LOAD         ACCESS:          0 HIT:          0 MISS:          0
cpu3_L2C RFO          ACCESS:          0 HIT:          0 MISS:          0
cpu3_L2C PREFETCH     ACCESS:          0 HIT:          0 MISS:          0
cpu3_L2C WRITE        ACCESS:          0 HIT:          0 MISS:          0
cpu3_L2C TRANSLATION  ACCESS:          0 HIT:          0 MISS:          0
cpu3_L2C PREFETCH REQUESTED:          0 ISSUED:          0 USEFUL:          0 USELESS:          0
cpu3_L2C AVERAGE MISS LATENCY: 273.5 cycles
cpu3_L2C TOTAL        ACCESS:    4261904 HIT:    2874547 MISS:    1387357
cpu3_L2C LOAD         ACCESS:    1095570 HIT:     711339 MISS:     384231
cpu3_L2C RFO          ACCESS:     740939 HIT:     421550 MISS:     319389
cpu3_L2C PREFETCH     ACCESS:    1443843 HIT:     764720 MISS:     679123
cpu3_L2C WRITE        ACCESS:     975469 HIT:     974989 MISS:        480
cpu3_L2C TRANSLATION  ACCESS:       6083 HIT:       1949 MISS:       4134
cpu3_L2C PREFETCH REQUESTED:          0 ISSUED:          0 USEFUL:          0 USELESS:          0
cpu3_L2C AVERAGE MISS LATENCY: 273.5 cycles
cpu3_STLB TOTAL        ACCESS:          0 HIT:          0 MISS:          0
cpu3_STLB LOAD         ACCESS:          0 HIT:          0 MISS:          0
cpu3_STLB RFO          ACCESS:          0 HIT:          0 MISS:          0
cpu3_STLB PREFETCH     ACCESS:          0 HIT:          0 MISS:          0
cpu3_STLB WRITE        ACCESS:          0 HIT:          0 MISS:          0
cpu3_STLB TRANSLATION  ACCESS:          0 HIT:          0 MISS:          0
cpu3_STLB PREFETCH REQUESTED:          0 ISSUED:          0 USEFUL:          0 USELESS:          0
cpu3_STLB AVERAGE MISS LATENCY: 353.3 cycles
cpu3_STLB TOTAL        ACCESS:          0 HIT:          0 MISS:          0
cpu3_STLB LOAD         ACCESS:          0 HIT:          0 MISS:          0
cpu3_STLB RFO          ACCESS:          0 HIT:          0 MISS:          0
cpu3_STLB PREFETCH     ACCESS:          0 HIT:          0 MISS:          0
cpu3_STLB WRITE        ACCESS:          0 HIT:          0 MISS:          0
cpu3_STLB TRANSLATION  ACCESS:          0 HIT:          0 MISS:          0
cpu3_STLB PREFETCH REQUESTED:          0 ISSUED:          0 USEFUL:          0 USELESS:          0
cpu3_STLB AVERAGE MISS LATENCY: 353.3 cycles
cpu3_STLB TOTAL        ACCESS:          0 HIT:          0 MISS:          0
cpu3_STLB LOAD         ACCESS:          0 HIT:          0 MISS:          0
cpu3_STLB RFO          ACCESS:          0 HIT:          0 MISS:          0
cpu3_STLB PREFETCH     ACCESS:          0 HIT:          0 MISS:          0
cpu3_STLB WRITE        ACCESS:          0 HIT:          0 MISS:          0
cpu3_STLB TRANSLATION  ACCESS:          0 HIT:          0 MISS:          0
cpu3_STLB PREFETCH REQUESTED:          0 ISSUED:          0 USEFUL:          0 USELESS:          0
cpu3_STLB AVERAGE MISS LATENCY: 353.3 cycles
cpu3_STLB TOTAL        ACCESS:      68396 HIT:      61253 MISS:       7143
cpu3_STLB LOAD         ACCESS:      68396 HIT:      61253 MISS:       7143
cpu3_STLB RFO          ACCESS:          0 HIT:          0 MISS:          0
cpu3_STLB PREFETCH     ACCESS:          0 HIT:          0 MISS:          0
cpu3_STLB WRITE        ACCESS:          0 HIT:          0 MISS:          0
cpu3_STLB TRANSLATION  ACCESS:          0 HIT:          0 MISS:          0
cpu3_STLB PREFETCH REQUESTED:          0 ISSUED:          0 USEFUL:          0 USELESS:          0
cpu3_STLB AVERAGE MISS LATENCY: 353.3 cycles

DRAM Statistics

Channel 0 RQ ROW_BUFFER_HIT:    1925101
  ROW_BUFFER_MISS:    3661106
 AVG DBUS CONGESTED CYCLE: 3.934
WQ ROW_BUFFER_HIT: Channel 0 
  ROW_BUFFER_MISS:      90661
  FULL:    1326042

Channel 1 RQ ROW_BUFFER_HIT:    1935559
  ROW_BUFFER_MISS:    3625771
 AVG DBUS CONGESTED CYCLE: 3.934
WQ ROW_BUFFER_HIT: Channel 1 
  ROW_BUFFER_MISS:      91811
  FULL:    1323427
BERTI TO_L1: 133775963 TO_L2: 135477099 TO_L2_BC_MSHR: 24122798
BERTI AVG_LAT: 244.591 NUM_TRACK_LATENCY: 77912508 NUM_CANT_TRACK_LATENCY: 39583
BERTI CROSS_PAGE 33704913 NO_CROSS_PAGE: 235548149
BERTI FOUND_BERTI: 79069395 NO_FOUND_BERTI: 181594739
BERTI AVERAGE_ISSUED: 4.54475
BERTI TO_L1: 133775963 TO_L2: 135477099 TO_L2_BC_MSHR: 24122798
BERTI AVG_LAT: 244.591 NUM_TRACK_LATENCY: 77912508 NUM_CANT_TRACK_LATENCY: 39583
BERTI CROSS_PAGE 33704913 NO_CROSS_PAGE: 235548149
BERTI FOUND_BERTI: 79069395 NO_FOUND_BERTI: 181594739
BERTI AVERAGE_ISSUED: 4.54475
BERTI TO_L1: 133775963 TO_L2: 135477099 TO_L2_BC_MSHR: 24122798
BERTI AVG_LAT: 244.591 NUM_TRACK_LATENCY: 77912508 NUM_CANT_TRACK_LATENCY: 39583
BERTI CROSS_PAGE 33704913 NO_CROSS_PAGE: 235548149
BERTI FOUND_BERTI: 79069395 NO_FOUND_BERTI: 181594739
BERTI AVERAGE_ISSUED: 4.54475
BERTI TO_L1: 133775963 TO_L2: 135477099 TO_L2_BC_MSHR: 24122798
BERTI AVG_LAT: 244.591 NUM_TRACK_LATENCY: 77912508 NUM_CANT_TRACK_LATENCY: 39583
BERTI CROSS_PAGE 33704913 NO_CROSS_PAGE: 235548149
BERTI FOUND_BERTI: 79069395 NO_FOUND_BERTI: 181594739
BERTI AVERAGE_ISSUED: 4.54475
