Original cmd-> /home/grads/r/rdas40/ECEN676/ChampSim/bin/multi_core/berti_2ch --warmup_instructions=50000000 --simulation_instructions=150000000  /home/grads/r/rdas40/dpc3_traces/644.nab_s-5853B.champsimtrace.xz /home/grads/r/rdas40/dpc3_traces/619.lbm_s-4268B.champsimtrace.xz /home/grads/r/rdas40/dpc3_traces/603.bwaves_s-3699B.champsimtrace.xz /home/grads/r/rdas40/dpc3_traces/627.cam4_s-573B.champsimtrace.xz
WARNING: physical memory size is smaller than virtual memory size.
WARNING: option --warmup_instructions is deprecated. Use --warmup-instructions instead.
WARNING: option --simulation_instructions is deprecated. Use --simulation-instructions instead.

*** ChampSim Multicore Out-of-Order Simulator ***
Warmup Instructions: 50000000
Simulation Instructions: 150000000
Number of CPUs: 4
Page size: 4096

Berti Prefetcher
BERTI HASH ORIGINAL
BERTI IP MASK ffff
Berti Prefetcher
BERTI HASH ORIGINAL
BERTI IP MASK ffff
Berti Prefetcher
BERTI HASH ORIGINAL
BERTI IP MASK ffff
Berti Prefetcher
BERTI HASH ORIGINAL
BERTI IP MASK ffff
Off-chip DRAM Size: 8 GiB Channels: 2 Width: 64-bit Data Race: 3200 MT/s
Heartbeat CPU 2 instructions: 10000001 cycles: 2521924 heartbeat IPC: 3.965 cumulative IPC: 3.965 (Simulation time: 00 hr 03 min 02 sec)
Heartbeat CPU 3 instructions: 10000003 cycles: 2711603 heartbeat IPC: 3.688 cumulative IPC: 3.688 (Simulation time: 00 hr 03 min 15 sec)
Heartbeat CPU 1 instructions: 10000002 cycles: 3049503 heartbeat IPC: 3.279 cumulative IPC: 3.279 (Simulation time: 00 hr 03 min 40 sec)
Heartbeat CPU 0 instructions: 10000001 cycles: 3452448 heartbeat IPC: 2.896 cumulative IPC: 2.896 (Simulation time: 00 hr 04 min 10 sec)
Heartbeat CPU 2 instructions: 20000000 cycles: 5038320 heartbeat IPC: 3.974 cumulative IPC: 3.97 (Simulation time: 00 hr 06 min 07 sec)
Heartbeat CPU 3 instructions: 20000003 cycles: 5231062 heartbeat IPC: 3.969 cumulative IPC: 3.823 (Simulation time: 00 hr 06 min 22 sec)
Heartbeat CPU 1 instructions: 20000000 cycles: 6092719 heartbeat IPC: 3.286 cumulative IPC: 3.283 (Simulation time: 00 hr 07 min 26 sec)
Heartbeat CPU 0 instructions: 20000001 cycles: 6906785 heartbeat IPC: 2.895 cumulative IPC: 2.896 (Simulation time: 00 hr 08 min 26 sec)
Heartbeat CPU 2 instructions: 30000003 cycles: 7553376 heartbeat IPC: 3.976 cumulative IPC: 3.972 (Simulation time: 00 hr 09 min 13 sec)
Heartbeat CPU 3 instructions: 30000000 cycles: 7750340 heartbeat IPC: 3.969 cumulative IPC: 3.871 (Simulation time: 00 hr 09 min 28 sec)
Heartbeat CPU 1 instructions: 30000000 cycles: 9125331 heartbeat IPC: 3.297 cumulative IPC: 3.288 (Simulation time: 00 hr 11 min 08 sec)
Heartbeat CPU 2 instructions: 40000003 cycles: 10077430 heartbeat IPC: 3.962 cumulative IPC: 3.969 (Simulation time: 00 hr 12 min 18 sec)
Heartbeat CPU 3 instructions: 40000000 cycles: 10280589 heartbeat IPC: 3.952 cumulative IPC: 3.891 (Simulation time: 00 hr 12 min 34 sec)
Heartbeat CPU 0 instructions: 30000001 cycles: 10364678 heartbeat IPC: 2.892 cumulative IPC: 2.894 (Simulation time: 00 hr 12 min 40 sec)
Heartbeat CPU 1 instructions: 40000002 cycles: 12182011 heartbeat IPC: 3.272 cumulative IPC: 3.284 (Simulation time: 00 hr 14 min 56 sec)
Heartbeat CPU 2 instructions: 50000001 cycles: 12599284 heartbeat IPC: 3.965 cumulative IPC: 3.968 (Simulation time: 00 hr 15 min 27 sec)
Warmup finished CPU 2 instructions: 50000001 cycles: 12599285 cumulative IPC: 3.968 (Simulation time: 00 hr 15 min 27 sec)
Heartbeat CPU 3 instructions: 50000003 cycles: 12883612 heartbeat IPC: 3.842 cumulative IPC: 3.881 (Simulation time: 00 hr 15 min 49 sec)
Warmup finished CPU 3 instructions: 50000003 cycles: 12883613 cumulative IPC: 3.881 (Simulation time: 00 hr 15 min 49 sec)
Heartbeat CPU 0 instructions: 40000001 cycles: 13790769 heartbeat IPC: 2.919 cumulative IPC: 2.9 (Simulation time: 00 hr 16 min 57 sec)
Heartbeat CPU 2 instructions: 60000002 cycles: 15124319 heartbeat IPC: 3.96 cumulative IPC: 3.967 (Simulation time: 00 hr 18 min 38 sec)
Heartbeat CPU 1 instructions: 50000002 cycles: 15243358 heartbeat IPC: 3.267 cumulative IPC: 3.28 (Simulation time: 00 hr 18 min 46 sec)
Warmup finished CPU 1 instructions: 50000002 cycles: 15243359 cumulative IPC: 3.28 (Simulation time: 00 hr 18 min 46 sec)
Heartbeat CPU 3 instructions: 60000002 cycles: 15502019 heartbeat IPC: 3.819 cumulative IPC: 3.87 (Simulation time: 00 hr 19 min 06 sec)
Heartbeat CPU 0 instructions: 50000002 cycles: 17218266 heartbeat IPC: 2.918 cumulative IPC: 2.904 (Simulation time: 00 hr 21 min 15 sec)
Warmup finished CPU 0 instructions: 50000002 cycles: 17218267 cumulative IPC: 2.904 (Simulation time: 00 hr 21 min 15 sec)
Warmup complete CPU 0 instructions: 50000002 cycles: 17218267 cumulative IPC: 2.904 (Simulation time: 00 hr 21 min 15 sec)
Warmup complete CPU 1 instructions: 56395657 cycles: 17218267 cumulative IPC: 3.275 (Simulation time: 00 hr 21 min 15 sec)
Warmup complete CPU 2 instructions: 68294554 cycles: 17218267 cumulative IPC: 3.966 (Simulation time: 00 hr 21 min 15 sec)
Warmup complete CPU 3 instructions: 66583839 cycles: 17218267 cumulative IPC: 3.867 (Simulation time: 00 hr 21 min 15 sec)
Heartbeat CPU 2 instructions: 70000004 cycles: 17944717 heartbeat IPC: 3.546 cumulative IPC: 2.348 (Simulation time: 00 hr 21 min 56 sec)
Heartbeat CPU 3 instructions: 70000000 cycles: 18860336 heartbeat IPC: 2.978 cumulative IPC: 2.08 (Simulation time: 00 hr 22 min 46 sec)
Heartbeat CPU 0 instructions: 60000001 cycles: 21283313 heartbeat IPC: 2.46 cumulative IPC: 2.46 (Simulation time: 00 hr 24 min 58 sec)
Heartbeat CPU 2 instructions: 80000000 cycles: 22224716 heartbeat IPC: 2.336 cumulative IPC: 2.338 (Simulation time: 00 hr 25 min 48 sec)
Heartbeat CPU 0 instructions: 70000000 cycles: 25320510 heartbeat IPC: 2.477 cumulative IPC: 2.468 (Simulation time: 00 hr 28 min 33 sec)
Heartbeat CPU 3 instructions: 80000003 cycles: 25698777 heartbeat IPC: 1.462 cumulative IPC: 1.582 (Simulation time: 00 hr 28 min 55 sec)
Heartbeat CPU 2 instructions: 90000001 cycles: 26557681 heartbeat IPC: 2.308 cumulative IPC: 2.324 (Simulation time: 00 hr 29 min 41 sec)
Heartbeat CPU 1 instructions: 60000004 cycles: 27030584 heartbeat IPC: 0.8484 cumulative IPC: 0.3673 (Simulation time: 00 hr 30 min 03 sec)
Heartbeat CPU 0 instructions: 80000003 cycles: 29968072 heartbeat IPC: 2.152 cumulative IPC: 2.353 (Simulation time: 00 hr 32 min 43 sec)
Heartbeat CPU 3 instructions: 90000003 cycles: 30559153 heartbeat IPC: 2.057 cumulative IPC: 1.755 (Simulation time: 00 hr 33 min 14 sec)
Heartbeat CPU 2 instructions: 100000004 cycles: 30873400 heartbeat IPC: 2.317 cumulative IPC: 2.322 (Simulation time: 00 hr 33 min 30 sec)
Heartbeat CPU 0 instructions: 90000002 cycles: 34965751 heartbeat IPC: 2.001 cumulative IPC: 2.254 (Simulation time: 00 hr 36 min 45 sec)
Heartbeat CPU 2 instructions: 110000001 cycles: 35280772 heartbeat IPC: 2.269 cumulative IPC: 2.309 (Simulation time: 00 hr 36 min 59 sec)
Heartbeat CPU 2 instructions: 120000001 cycles: 39587166 heartbeat IPC: 2.322 cumulative IPC: 2.311 (Simulation time: 00 hr 40 min 14 sec)
Heartbeat CPU 0 instructions: 100000000 cycles: 40379209 heartbeat IPC: 1.847 cumulative IPC: 2.159 (Simulation time: 00 hr 40 min 49 sec)
Heartbeat CPU 2 instructions: 130000000 cycles: 44020535 heartbeat IPC: 2.256 cumulative IPC: 2.302 (Simulation time: 00 hr 43 min 42 sec)
Heartbeat CPU 0 instructions: 110000004 cycles: 45655570 heartbeat IPC: 1.895 cumulative IPC: 2.11 (Simulation time: 00 hr 45 min 02 sec)
Heartbeat CPU 2 instructions: 140000000 cycles: 48502026 heartbeat IPC: 2.231 cumulative IPC: 2.292 (Simulation time: 00 hr 47 min 13 sec)
Heartbeat CPU 3 instructions: 100000000 cycles: 50066232 heartbeat IPC: 0.5126 cumulative IPC: 1.017 (Simulation time: 00 hr 48 min 23 sec)
Heartbeat CPU 0 instructions: 120000000 cycles: 50687631 heartbeat IPC: 1.987 cumulative IPC: 2.091 (Simulation time: 00 hr 48 min 51 sec)
Heartbeat CPU 2 instructions: 150000002 cycles: 52968270 heartbeat IPC: 2.239 cumulative IPC: 2.285 (Simulation time: 00 hr 50 min 28 sec)
Heartbeat CPU 0 instructions: 130000001 cycles: 55985676 heartbeat IPC: 1.887 cumulative IPC: 2.064 (Simulation time: 00 hr 52 min 36 sec)
Heartbeat CPU 2 instructions: 160000001 cycles: 57468065 heartbeat IPC: 2.222 cumulative IPC: 2.278 (Simulation time: 00 hr 53 min 38 sec)
Heartbeat CPU 1 instructions: 70000003 cycles: 59479166 heartbeat IPC: 0.3082 cumulative IPC: 0.3219 (Simulation time: 00 hr 55 min 02 sec)
Heartbeat CPU 0 instructions: 140000000 cycles: 61411375 heartbeat IPC: 1.843 cumulative IPC: 2.037 (Simulation time: 00 hr 56 min 23 sec)
Heartbeat CPU 2 instructions: 170000000 cycles: 61931568 heartbeat IPC: 2.24 cumulative IPC: 2.275 (Simulation time: 00 hr 56 min 45 sec)
Heartbeat CPU 2 instructions: 180000000 cycles: 66480654 heartbeat IPC: 2.198 cumulative IPC: 2.268 (Simulation time: 00 hr 59 min 57 sec)
Heartbeat CPU 0 instructions: 150000003 cycles: 66888091 heartbeat IPC: 1.826 cumulative IPC: 2.013 (Simulation time: 01 hr 00 min 13 sec)
Heartbeat CPU 2 instructions: 190000000 cycles: 70965060 heartbeat IPC: 2.23 cumulative IPC: 2.264 (Simulation time: 01 hr 03 min 05 sec)
Heartbeat CPU 0 instructions: 160000000 cycles: 72365769 heartbeat IPC: 1.826 cumulative IPC: 1.995 (Simulation time: 01 hr 04 min 04 sec)
Heartbeat CPU 2 instructions: 200000004 cycles: 75388453 heartbeat IPC: 2.261 cumulative IPC: 2.264 (Simulation time: 01 hr 06 min 11 sec)
Heartbeat CPU 0 instructions: 170000003 cycles: 77881134 heartbeat IPC: 1.813 cumulative IPC: 1.978 (Simulation time: 01 hr 07 min 55 sec)
Heartbeat CPU 2 instructions: 210000001 cycles: 79985579 heartbeat IPC: 2.175 cumulative IPC: 2.258 (Simulation time: 01 hr 09 min 24 sec)
Heartbeat CPU 0 instructions: 180000002 cycles: 83421803 heartbeat IPC: 1.805 cumulative IPC: 1.964 (Simulation time: 01 hr 11 min 48 sec)
Simulation finished CPU 2 instructions: 150000001 cycles: 66744147 cumulative IPC: 2.247 (Simulation time: 01 hr 12 min 11 sec)
Heartbeat CPU 2 instructions: 220000002 cycles: 84696582 heartbeat IPC: 2.123 cumulative IPC: 2.248 (Simulation time: 01 hr 12 min 42 sec)
Heartbeat CPU 0 instructions: 190000000 cycles: 88744762 heartbeat IPC: 1.879 cumulative IPC: 1.957 (Simulation time: 01 hr 15 min 41 sec)
Heartbeat CPU 2 instructions: 230000000 cycles: 89171782 heartbeat IPC: 2.235 cumulative IPC: 2.247 (Simulation time: 01 hr 16 min 03 sec)
Heartbeat CPU 3 instructions: 110000001 cycles: 90316938 heartbeat IPC: 0.2484 cumulative IPC: 0.5939 (Simulation time: 01 hr 17 min 01 sec)
Heartbeat CPU 2 instructions: 240000001 cycles: 93654097 heartbeat IPC: 2.231 cumulative IPC: 2.246 (Simulation time: 01 hr 19 min 41 sec)
Heartbeat CPU 0 instructions: 200000004 cycles: 93752264 heartbeat IPC: 1.997 cumulative IPC: 1.96 (Simulation time: 01 hr 19 min 46 sec)
Simulation finished CPU 0 instructions: 150000002 cycles: 76533998 cumulative IPC: 1.96 (Simulation time: 01 hr 19 min 46 sec)
Heartbeat CPU 3 instructions: 120000000 cycles: 95706532 heartbeat IPC: 1.855 cumulative IPC: 0.6806 (Simulation time: 01 hr 21 min 29 sec)
Heartbeat CPU 2 instructions: 250000001 cycles: 98063473 heartbeat IPC: 2.268 cumulative IPC: 2.248 (Simulation time: 01 hr 23 min 34 sec)
Heartbeat CPU 0 instructions: 210000003 cycles: 98740051 heartbeat IPC: 2.005 cumulative IPC: 1.963 (Simulation time: 01 hr 24 min 09 sec)
Heartbeat CPU 1 instructions: 80000003 cycles: 99058119 heartbeat IPC: 0.2527 cumulative IPC: 0.2884 (Simulation time: 01 hr 24 min 26 sec)
Heartbeat CPU 3 instructions: 130000002 cycles: 99438980 heartbeat IPC: 2.679 cumulative IPC: 0.7713 (Simulation time: 01 hr 24 min 46 sec)
Heartbeat CPU 2 instructions: 260000000 cycles: 102452353 heartbeat IPC: 2.278 cumulative IPC: 2.249 (Simulation time: 01 hr 27 min 25 sec)
Heartbeat CPU 3 instructions: 140000000 cycles: 103208846 heartbeat IPC: 2.653 cumulative IPC: 0.8538 (Simulation time: 01 hr 28 min 04 sec)
Heartbeat CPU 0 instructions: 220000000 cycles: 103725487 heartbeat IPC: 2.006 cumulative IPC: 1.965 (Simulation time: 01 hr 28 min 32 sec)
Heartbeat CPU 2 instructions: 270000003 cycles: 106914762 heartbeat IPC: 2.241 cumulative IPC: 2.249 (Simulation time: 01 hr 31 min 09 sec)
Heartbeat CPU 0 instructions: 230000002 cycles: 108600111 heartbeat IPC: 2.051 cumulative IPC: 1.97 (Simulation time: 01 hr 32 min 34 sec)
Heartbeat CPU 3 instructions: 150000003 cycles: 109028762 heartbeat IPC: 1.718 cumulative IPC: 0.9086 (Simulation time: 01 hr 32 min 55 sec)
Heartbeat CPU 2 instructions: 280000000 cycles: 111308052 heartbeat IPC: 2.276 cumulative IPC: 2.25 (Simulation time: 01 hr 34 min 47 sec)
Heartbeat CPU 0 instructions: 240000002 cycles: 113585668 heartbeat IPC: 2.006 cumulative IPC: 1.972 (Simulation time: 01 hr 36 min 41 sec)
Heartbeat CPU 3 instructions: 160000000 cycles: 115136488 heartbeat IPC: 1.637 cumulative IPC: 0.954 (Simulation time: 01 hr 37 min 58 sec)
Heartbeat CPU 2 instructions: 290000001 cycles: 115696381 heartbeat IPC: 2.279 cumulative IPC: 2.251 (Simulation time: 01 hr 38 min 26 sec)
Heartbeat CPU 0 instructions: 250000003 cycles: 118400092 heartbeat IPC: 2.077 cumulative IPC: 1.977 (Simulation time: 01 hr 40 min 40 sec)
Heartbeat CPU 2 instructions: 300000002 cycles: 120106855 heartbeat IPC: 2.267 cumulative IPC: 2.252 (Simulation time: 01 hr 42 min 07 sec)
Heartbeat CPU 3 instructions: 170000000 cycles: 121970522 heartbeat IPC: 1.463 cumulative IPC: 0.9872 (Simulation time: 01 hr 43 min 36 sec)
Heartbeat CPU 0 instructions: 260000001 cycles: 123318102 heartbeat IPC: 2.033 cumulative IPC: 1.979 (Simulation time: 01 hr 44 min 46 sec)
Heartbeat CPU 2 instructions: 310000000 cycles: 124515782 heartbeat IPC: 2.268 cumulative IPC: 2.253 (Simulation time: 01 hr 45 min 48 sec)
Heartbeat CPU 1 instructions: 90000003 cycles: 124794999 heartbeat IPC: 0.3885 cumulative IPC: 0.3124 (Simulation time: 01 hr 46 min 03 sec)
Heartbeat CPU 0 instructions: 270000001 cycles: 128287060 heartbeat IPC: 2.012 cumulative IPC: 1.981 (Simulation time: 01 hr 48 min 48 sec)
Heartbeat CPU 3 instructions: 180000001 cycles: 128508500 heartbeat IPC: 1.53 cumulative IPC: 1.019 (Simulation time: 01 hr 49 min 00 sec)
Heartbeat CPU 2 instructions: 320000002 cycles: 128951305 heartbeat IPC: 2.255 cumulative IPC: 2.253 (Simulation time: 01 hr 49 min 21 sec)
Heartbeat CPU 0 instructions: 280000001 cycles: 133080929 heartbeat IPC: 2.086 cumulative IPC: 1.985 (Simulation time: 01 hr 52 min 49 sec)
Heartbeat CPU 2 instructions: 330000004 cycles: 133402810 heartbeat IPC: 2.246 cumulative IPC: 2.252 (Simulation time: 01 hr 53 min 06 sec)
Heartbeat CPU 3 instructions: 190000002 cycles: 133959566 heartbeat IPC: 1.835 cumulative IPC: 1.057 (Simulation time: 01 hr 53 min 35 sec)
Heartbeat CPU 2 instructions: 340000001 cycles: 137869369 heartbeat IPC: 2.239 cumulative IPC: 2.252 (Simulation time: 01 hr 56 min 45 sec)
Heartbeat CPU 0 instructions: 290000000 cycles: 137951009 heartbeat IPC: 2.053 cumulative IPC: 1.988 (Simulation time: 01 hr 56 min 49 sec)
Heartbeat CPU 0 instructions: 300000004 cycles: 141961786 heartbeat IPC: 2.493 cumulative IPC: 2.004 (Simulation time: 02 hr 00 min 01 sec)
Heartbeat CPU 2 instructions: 350000001 cycles: 142356287 heartbeat IPC: 2.229 cumulative IPC: 2.251 (Simulation time: 02 hr 00 min 19 sec)
Heartbeat CPU 0 instructions: 310000000 cycles: 146189777 heartbeat IPC: 2.365 cumulative IPC: 2.016 (Simulation time: 02 hr 03 min 20 sec)
Heartbeat CPU 2 instructions: 360000004 cycles: 146882724 heartbeat IPC: 2.209 cumulative IPC: 2.25 (Simulation time: 02 hr 03 min 53 sec)
Heartbeat CPU 3 instructions: 200000004 cycles: 149868830 heartbeat IPC: 0.6286 cumulative IPC: 1.006 (Simulation time: 02 hr 06 min 14 sec)
Heartbeat CPU 2 instructions: 370000000 cycles: 151342638 heartbeat IPC: 2.242 cumulative IPC: 2.249 (Simulation time: 02 hr 07 min 21 sec)
Heartbeat CPU 0 instructions: 320000004 cycles: 151413458 heartbeat IPC: 1.914 cumulative IPC: 2.012 (Simulation time: 02 hr 07 min 24 sec)
Heartbeat CPU 1 instructions: 100000000 cycles: 152049902 heartbeat IPC: 0.3669 cumulative IPC: 0.3234 (Simulation time: 02 hr 07 min 53 sec)
Heartbeat CPU 2 instructions: 380000000 cycles: 155806179 heartbeat IPC: 2.24 cumulative IPC: 2.249 (Simulation time: 02 hr 10 min 34 sec)
Heartbeat CPU 0 instructions: 330000000 cycles: 157961179 heartbeat IPC: 1.527 cumulative IPC: 1.989 (Simulation time: 02 hr 11 min 58 sec)
Heartbeat CPU 2 instructions: 390000000 cycles: 160296080 heartbeat IPC: 2.227 cumulative IPC: 2.248 (Simulation time: 02 hr 13 min 36 sec)
Heartbeat CPU 0 instructions: 340000002 cycles: 163312116 heartbeat IPC: 1.869 cumulative IPC: 1.985 (Simulation time: 02 hr 15 min 44 sec)
Heartbeat CPU 2 instructions: 400000000 cycles: 164875166 heartbeat IPC: 2.184 cumulative IPC: 2.246 (Simulation time: 02 hr 16 min 49 sec)
Heartbeat CPU 0 instructions: 350000000 cycles: 167965965 heartbeat IPC: 2.149 cumulative IPC: 1.99 (Simulation time: 02 hr 19 min 11 sec)
Heartbeat CPU 2 instructions: 410000000 cycles: 169343482 heartbeat IPC: 2.238 cumulative IPC: 2.246 (Simulation time: 02 hr 20 min 15 sec)
Heartbeat CPU 0 instructions: 360000002 cycles: 172334475 heartbeat IPC: 2.289 cumulative IPC: 1.999 (Simulation time: 02 hr 22 min 31 sec)
Heartbeat CPU 2 instructions: 420000004 cycles: 173866220 heartbeat IPC: 2.211 cumulative IPC: 2.245 (Simulation time: 02 hr 23 min 41 sec)
Heartbeat CPU 0 instructions: 370000002 cycles: 176834203 heartbeat IPC: 2.222 cumulative IPC: 2.005 (Simulation time: 02 hr 25 min 55 sec)
Heartbeat CPU 2 instructions: 430000002 cycles: 178459995 heartbeat IPC: 2.177 cumulative IPC: 2.243 (Simulation time: 02 hr 27 min 09 sec)
Heartbeat CPU 0 instructions: 380000004 cycles: 181283514 heartbeat IPC: 2.248 cumulative IPC: 2.011 (Simulation time: 02 hr 29 min 17 sec)
Heartbeat CPU 2 instructions: 440000003 cycles: 182993986 heartbeat IPC: 2.206 cumulative IPC: 2.242 (Simulation time: 02 hr 30 min 35 sec)
Heartbeat CPU 0 instructions: 390000000 cycles: 185634104 heartbeat IPC: 2.299 cumulative IPC: 2.019 (Simulation time: 02 hr 32 min 37 sec)
Heartbeat CPU 2 instructions: 450000003 cycles: 187427477 heartbeat IPC: 2.256 cumulative IPC: 2.243 (Simulation time: 02 hr 34 min 00 sec)
Heartbeat CPU 0 instructions: 400000004 cycles: 189942508 heartbeat IPC: 2.321 cumulative IPC: 2.026 (Simulation time: 02 hr 35 min 55 sec)
Heartbeat CPU 2 instructions: 460000003 cycles: 191973335 heartbeat IPC: 2.2 cumulative IPC: 2.241 (Simulation time: 02 hr 37 min 30 sec)
Heartbeat CPU 0 instructions: 410000002 cycles: 194087616 heartbeat IPC: 2.412 cumulative IPC: 2.035 (Simulation time: 02 hr 39 min 15 sec)
Heartbeat CPU 3 instructions: 210000003 cycles: 194438537 heartbeat IPC: 0.2244 cumulative IPC: 0.8093 (Simulation time: 02 hr 39 min 33 sec)
Heartbeat CPU 2 instructions: 470000002 cycles: 196320376 heartbeat IPC: 2.3 cumulative IPC: 2.243 (Simulation time: 02 hr 41 min 15 sec)
Heartbeat CPU 1 instructions: 110000002 cycles: 196809391 heartbeat IPC: 0.2234 cumulative IPC: 0.2985 (Simulation time: 02 hr 41 min 41 sec)
Heartbeat CPU 0 instructions: 420000004 cycles: 198069328 heartbeat IPC: 2.511 cumulative IPC: 2.046 (Simulation time: 02 hr 42 min 45 sec)
Simulation finished CPU 3 instructions: 150000004 cycles: 181530963 cumulative IPC: 0.8263 (Simulation time: 02 hr 43 min 21 sec)
Heartbeat CPU 3 instructions: 220000001 cycles: 200088255 heartbeat IPC: 1.77 cumulative IPC: 0.8389 (Simulation time: 02 hr 44 min 37 sec)
Heartbeat CPU 2 instructions: 480000000 cycles: 200718413 heartbeat IPC: 2.274 cumulative IPC: 2.244 (Simulation time: 02 hr 45 min 12 sec)
Heartbeat CPU 0 instructions: 430000000 cycles: 201969138 heartbeat IPC: 2.564 cumulative IPC: 2.057 (Simulation time: 02 hr 46 min 24 sec)
Heartbeat CPU 3 instructions: 230000001 cycles: 203755525 heartbeat IPC: 2.727 cumulative IPC: 0.8761 (Simulation time: 02 hr 48 min 06 sec)
Heartbeat CPU 2 instructions: 490000002 cycles: 205035406 heartbeat IPC: 2.316 cumulative IPC: 2.245 (Simulation time: 02 hr 49 min 19 sec)
Heartbeat CPU 0 instructions: 440000000 cycles: 205798827 heartbeat IPC: 2.611 cumulative IPC: 2.068 (Simulation time: 02 hr 50 min 04 sec)
Heartbeat CPU 3 instructions: 240000000 cycles: 207555001 heartbeat IPC: 2.632 cumulative IPC: 0.9111 (Simulation time: 02 hr 51 min 45 sec)
Heartbeat CPU 2 instructions: 500000000 cycles: 209395019 heartbeat IPC: 2.294 cumulative IPC: 2.246 (Simulation time: 02 hr 53 min 26 sec)
Heartbeat CPU 0 instructions: 450000003 cycles: 209704034 heartbeat IPC: 2.561 cumulative IPC: 2.078 (Simulation time: 02 hr 53 min 43 sec)
Heartbeat CPU 3 instructions: 250000004 cycles: 212872637 heartbeat IPC: 1.881 cumulative IPC: 0.9374 (Simulation time: 02 hr 56 min 35 sec)
Heartbeat CPU 0 instructions: 460000003 cycles: 213695838 heartbeat IPC: 2.505 cumulative IPC: 2.087 (Simulation time: 02 hr 57 min 19 sec)
Heartbeat CPU 2 instructions: 510000004 cycles: 213697937 heartbeat IPC: 2.324 cumulative IPC: 2.248 (Simulation time: 02 hr 57 min 20 sec)
Heartbeat CPU 0 instructions: 470000002 cycles: 217590751 heartbeat IPC: 2.567 cumulative IPC: 2.096 (Simulation time: 03 hr 00 min 48 sec)
Heartbeat CPU 2 instructions: 520000000 cycles: 218036162 heartbeat IPC: 2.305 cumulative IPC: 2.249 (Simulation time: 03 hr 01 min 12 sec)
Heartbeat CPU 3 instructions: 260000004 cycles: 219073478 heartbeat IPC: 1.613 cumulative IPC: 0.9582 (Simulation time: 03 hr 02 min 09 sec)
Heartbeat CPU 0 instructions: 480000001 cycles: 221646805 heartbeat IPC: 2.465 cumulative IPC: 2.103 (Simulation time: 03 hr 04 min 20 sec)
Heartbeat CPU 2 instructions: 530000002 cycles: 224077158 heartbeat IPC: 1.655 cumulative IPC: 2.232 (Simulation time: 03 hr 06 min 25 sec)
Heartbeat CPU 1 instructions: 120000003 cycles: 224575915 heartbeat IPC: 0.3601 cumulative IPC: 0.3067 (Simulation time: 03 hr 06 min 51 sec)
Heartbeat CPU 0 instructions: 490000002 cycles: 225952441 heartbeat IPC: 2.323 cumulative IPC: 2.108 (Simulation time: 03 hr 08 min 02 sec)
Heartbeat CPU 3 instructions: 270000000 cycles: 226899456 heartbeat IPC: 1.278 cumulative IPC: 0.9701 (Simulation time: 03 hr 08 min 52 sec)
Heartbeat CPU 2 instructions: 540000003 cycles: 229509395 heartbeat IPC: 1.841 cumulative IPC: 2.222 (Simulation time: 03 hr 11 min 11 sec)
Heartbeat CPU 0 instructions: 500000002 cycles: 229866429 heartbeat IPC: 2.555 cumulative IPC: 2.116 (Simulation time: 03 hr 11 min 31 sec)
Heartbeat CPU 3 instructions: 280000001 cycles: 233072347 heartbeat IPC: 1.62 cumulative IPC: 0.9887 (Simulation time: 03 hr 14 min 25 sec)
Heartbeat CPU 0 instructions: 510000004 cycles: 233722438 heartbeat IPC: 2.593 cumulative IPC: 2.125 (Simulation time: 03 hr 14 min 58 sec)
Heartbeat CPU 2 instructions: 550000002 cycles: 233831966 heartbeat IPC: 2.313 cumulative IPC: 2.224 (Simulation time: 03 hr 15 min 03 sec)
Heartbeat CPU 0 instructions: 520000004 cycles: 237753498 heartbeat IPC: 2.481 cumulative IPC: 2.131 (Simulation time: 03 hr 18 min 33 sec)
Heartbeat CPU 2 instructions: 560000002 cycles: 238198992 heartbeat IPC: 2.29 cumulative IPC: 2.225 (Simulation time: 03 hr 18 min 55 sec)
Heartbeat CPU 3 instructions: 290000002 cycles: 239703772 heartbeat IPC: 1.508 cumulative IPC: 1.004 (Simulation time: 03 hr 20 min 17 sec)
Heartbeat CPU 0 instructions: 530000002 cycles: 241663933 heartbeat IPC: 2.557 cumulative IPC: 2.139 (Simulation time: 03 hr 22 min 07 sec)
Heartbeat CPU 2 instructions: 570000001 cycles: 242532923 heartbeat IPC: 2.307 cumulative IPC: 2.227 (Simulation time: 03 hr 22 min 56 sec)
Heartbeat CPU 0 instructions: 540000002 cycles: 245709568 heartbeat IPC: 2.472 cumulative IPC: 2.145 (Simulation time: 03 hr 25 min 33 sec)
Heartbeat CPU 2 instructions: 580000002 cycles: 246848538 heartbeat IPC: 2.317 cumulative IPC: 2.228 (Simulation time: 03 hr 26 min 27 sec)
Heartbeat CPU 0 instructions: 550000001 cycles: 249700956 heartbeat IPC: 2.505 cumulative IPC: 2.151 (Simulation time: 03 hr 28 min 47 sec)
Heartbeat CPU 3 instructions: 300000002 cycles: 250083911 heartbeat IPC: 0.9634 cumulative IPC: 1.002 (Simulation time: 03 hr 29 min 06 sec)
Heartbeat CPU 1 instructions: 130000000 cycles: 251099327 heartbeat IPC: 0.377 cumulative IPC: 0.3147 (Simulation time: 03 hr 29 min 55 sec)
Heartbeat CPU 2 instructions: 590000002 cycles: 251128903 heartbeat IPC: 2.336 cumulative IPC: 2.23 (Simulation time: 03 hr 29 min 57 sec)
Heartbeat CPU 0 instructions: 560000002 cycles: 253774510 heartbeat IPC: 2.455 cumulative IPC: 2.156 (Simulation time: 03 hr 32 min 11 sec)
Heartbeat CPU 2 instructions: 600000000 cycles: 255388759 heartbeat IPC: 2.347 cumulative IPC: 2.232 (Simulation time: 03 hr 33 min 35 sec)
Heartbeat CPU 0 instructions: 570000001 cycles: 257740283 heartbeat IPC: 2.522 cumulative IPC: 2.162 (Simulation time: 03 hr 35 min 37 sec)
Heartbeat CPU 2 instructions: 610000000 cycles: 259697542 heartbeat IPC: 2.321 cumulative IPC: 2.234 (Simulation time: 03 hr 37 min 14 sec)
Heartbeat CPU 0 instructions: 580000004 cycles: 261750623 heartbeat IPC: 2.494 cumulative IPC: 2.167 (Simulation time: 03 hr 38 min 53 sec)
Heartbeat CPU 2 instructions: 620000001 cycles: 264064564 heartbeat IPC: 2.29 cumulative IPC: 2.235 (Simulation time: 03 hr 40 min 40 sec)
Heartbeat CPU 0 instructions: 590000000 cycles: 266203878 heartbeat IPC: 2.246 cumulative IPC: 2.169 (Simulation time: 03 hr 42 min 18 sec)
Heartbeat CPU 2 instructions: 630000001 cycles: 268452005 heartbeat IPC: 2.279 cumulative IPC: 2.236 (Simulation time: 03 hr 44 min 01 sec)
Heartbeat CPU 0 instructions: 600000002 cycles: 270635597 heartbeat IPC: 2.256 cumulative IPC: 2.17 (Simulation time: 03 hr 45 min 42 sec)
Heartbeat CPU 2 instructions: 640000001 cycles: 272805647 heartbeat IPC: 2.297 cumulative IPC: 2.237 (Simulation time: 03 hr 47 min 21 sec)
Heartbeat CPU 0 instructions: 610000000 cycles: 275254665 heartbeat IPC: 2.165 cumulative IPC: 2.17 (Simulation time: 03 hr 49 min 12 sec)
Heartbeat CPU 2 instructions: 650000000 cycles: 277207264 heartbeat IPC: 2.272 cumulative IPC: 2.237 (Simulation time: 03 hr 50 min 42 sec)
Heartbeat CPU 0 instructions: 620000003 cycles: 279743625 heartbeat IPC: 2.228 cumulative IPC: 2.171 (Simulation time: 03 hr 52 min 38 sec)
Heartbeat CPU 2 instructions: 660000002 cycles: 281662482 heartbeat IPC: 2.245 cumulative IPC: 2.238 (Simulation time: 03 hr 54 min 05 sec)
Heartbeat CPU 0 instructions: 630000002 cycles: 284334902 heartbeat IPC: 2.178 cumulative IPC: 2.171 (Simulation time: 03 hr 56 min 07 sec)
Heartbeat CPU 2 instructions: 670000001 cycles: 286126893 heartbeat IPC: 2.24 cumulative IPC: 2.238 (Simulation time: 03 hr 57 min 30 sec)
Heartbeat CPU 0 instructions: 640000004 cycles: 288826530 heartbeat IPC: 2.226 cumulative IPC: 2.172 (Simulation time: 03 hr 59 min 34 sec)
Heartbeat CPU 2 instructions: 680000004 cycles: 290615551 heartbeat IPC: 2.228 cumulative IPC: 2.237 (Simulation time: 04 hr 00 min 54 sec)
Heartbeat CPU 0 instructions: 650000002 cycles: 293368309 heartbeat IPC: 2.202 cumulative IPC: 2.173 (Simulation time: 04 hr 02 min 57 sec)
Heartbeat CPU 1 instructions: 140000002 cycles: 293390114 heartbeat IPC: 0.2365 cumulative IPC: 0.3027 (Simulation time: 04 hr 02 min 57 sec)
Heartbeat CPU 2 instructions: 690000001 cycles: 295068617 heartbeat IPC: 2.246 cumulative IPC: 2.238 (Simulation time: 04 hr 04 min 12 sec)
Heartbeat CPU 0 instructions: 660000000 cycles: 297755357 heartbeat IPC: 2.279 cumulative IPC: 2.174 (Simulation time: 04 hr 06 min 12 sec)
Heartbeat CPU 3 instructions: 310000000 cycles: 298978194 heartbeat IPC: 0.2045 cumulative IPC: 0.8639 (Simulation time: 04 hr 07 min 09 sec)
Heartbeat CPU 2 instructions: 700000000 cycles: 299539922 heartbeat IPC: 2.236 cumulative IPC: 2.238 (Simulation time: 04 hr 07 min 38 sec)
Heartbeat CPU 0 instructions: 670000003 cycles: 301966253 heartbeat IPC: 2.375 cumulative IPC: 2.177 (Simulation time: 04 hr 09 min 39 sec)
Heartbeat CPU 2 instructions: 710000002 cycles: 303975627 heartbeat IPC: 2.254 cumulative IPC: 2.238 (Simulation time: 04 hr 11 min 21 sec)
Heartbeat CPU 3 instructions: 320000004 cycles: 305669889 heartbeat IPC: 1.494 cumulative IPC: 0.8785 (Simulation time: 04 hr 12 min 50 sec)
Heartbeat CPU 0 instructions: 680000004 cycles: 305922104 heartbeat IPC: 2.528 cumulative IPC: 2.182 (Simulation time: 04 hr 13 min 03 sec)
Heartbeat CPU 2 instructions: 720000004 cycles: 308443724 heartbeat IPC: 2.238 cumulative IPC: 2.238 (Simulation time: 04 hr 15 min 24 sec)
Heartbeat CPU 3 instructions: 330000002 cycles: 309417090 heartbeat IPC: 2.669 cumulative IPC: 0.9015 (Simulation time: 04 hr 16 min 17 sec)
Heartbeat CPU 0 instructions: 690000002 cycles: 309827485 heartbeat IPC: 2.561 cumulative IPC: 2.187 (Simulation time: 04 hr 16 min 40 sec)
Heartbeat CPU 2 instructions: 730000002 cycles: 312884248 heartbeat IPC: 2.252 cumulative IPC: 2.238 (Simulation time: 04 hr 19 min 30 sec)
Heartbeat CPU 3 instructions: 340000004 cycles: 313091160 heartbeat IPC: 2.722 cumulative IPC: 0.9241 (Simulation time: 04 hr 19 min 41 sec)
Heartbeat CPU 0 instructions: 700000000 cycles: 313844366 heartbeat IPC: 2.489 cumulative IPC: 2.191 (Simulation time: 04 hr 20 min 21 sec)
Heartbeat CPU 2 instructions: 740000004 cycles: 317318663 heartbeat IPC: 2.255 cumulative IPC: 2.238 (Simulation time: 04 hr 23 min 23 sec)
Heartbeat CPU 3 instructions: 350000004 cycles: 317790194 heartbeat IPC: 2.128 cumulative IPC: 0.9429 (Simulation time: 04 hr 23 min 46 sec)
Heartbeat CPU 0 instructions: 710000001 cycles: 318609420 heartbeat IPC: 2.099 cumulative IPC: 2.19 (Simulation time: 04 hr 24 min 29 sec)
Heartbeat CPU 2 instructions: 750000001 cycles: 321805495 heartbeat IPC: 2.229 cumulative IPC: 2.238 (Simulation time: 04 hr 27 min 16 sec)
Heartbeat CPU 0 instructions: 720000002 cycles: 322598036 heartbeat IPC: 2.507 cumulative IPC: 2.194 (Simulation time: 04 hr 27 min 59 sec)
Heartbeat CPU 1 instructions: 150000004 cycles: 322921092 heartbeat IPC: 0.3386 cumulative IPC: 0.3062 (Simulation time: 04 hr 28 min 16 sec)
Heartbeat CPU 3 instructions: 360000001 cycles: 323246174 heartbeat IPC: 1.833 cumulative IPC: 0.9588 (Simulation time: 04 hr 28 min 33 sec)
Heartbeat CPU 2 instructions: 760000000 cycles: 326262091 heartbeat IPC: 2.244 cumulative IPC: 2.238 (Simulation time: 04 hr 31 min 14 sec)
Heartbeat CPU 0 instructions: 730000000 cycles: 326544762 heartbeat IPC: 2.534 cumulative IPC: 2.198 (Simulation time: 04 hr 31 min 29 sec)
Heartbeat CPU 3 instructions: 370000000 cycles: 329150655 heartbeat IPC: 1.694 cumulative IPC: 0.9727 (Simulation time: 04 hr 33 min 48 sec)
Heartbeat CPU 0 instructions: 740000001 cycles: 330396825 heartbeat IPC: 2.596 cumulative IPC: 2.203 (Simulation time: 04 hr 34 min 54 sec)
Heartbeat CPU 2 instructions: 770000002 cycles: 330661538 heartbeat IPC: 2.273 cumulative IPC: 2.239 (Simulation time: 04 hr 35 min 08 sec)
Heartbeat CPU 0 instructions: 750000002 cycles: 334292029 heartbeat IPC: 2.567 cumulative IPC: 2.208 (Simulation time: 04 hr 38 min 16 sec)
Heartbeat CPU 2 instructions: 780000002 cycles: 335060066 heartbeat IPC: 2.273 cumulative IPC: 2.239 (Simulation time: 04 hr 38 min 57 sec)
Heartbeat CPU 3 instructions: 380000002 cycles: 335200957 heartbeat IPC: 1.653 cumulative IPC: 0.9856 (Simulation time: 04 hr 39 min 05 sec)
Heartbeat CPU 0 instructions: 760000002 cycles: 338207619 heartbeat IPC: 2.554 cumulative IPC: 2.212 (Simulation time: 04 hr 41 min 43 sec)
Heartbeat CPU 2 instructions: 790000002 cycles: 339438600 heartbeat IPC: 2.284 cumulative IPC: 2.24 (Simulation time: 04 hr 42 min 45 sec)
Heartbeat CPU 3 instructions: 390000000 cycles: 342028806 heartbeat IPC: 1.465 cumulative IPC: 0.9957 (Simulation time: 04 hr 44 min 59 sec)
Heartbeat CPU 0 instructions: 770000004 cycles: 342128590 heartbeat IPC: 2.55 cumulative IPC: 2.216 (Simulation time: 04 hr 45 min 04 sec)
Heartbeat CPU 2 instructions: 800000001 cycles: 343810923 heartbeat IPC: 2.287 cumulative IPC: 2.24 (Simulation time: 04 hr 46 min 31 sec)
Heartbeat CPU 0 instructions: 780000002 cycles: 345966932 heartbeat IPC: 2.605 cumulative IPC: 2.221 (Simulation time: 04 hr 48 min 29 sec)
Heartbeat CPU 3 instructions: 400000001 cycles: 346997977 heartbeat IPC: 2.012 cumulative IPC: 1.011 (Simulation time: 04 hr 49 min 24 sec)
Heartbeat CPU 2 instructions: 810000000 cycles: 348227999 heartbeat IPC: 2.264 cumulative IPC: 2.241 (Simulation time: 04 hr 50 min 27 sec)
Heartbeat CPU 1 instructions: 160000004 cycles: 349650779 heartbeat IPC: 0.3741 cumulative IPC: 0.3117 (Simulation time: 04 hr 51 min 34 sec)
Heartbeat CPU 0 instructions: 790000000 cycles: 350064389 heartbeat IPC: 2.441 cumulative IPC: 2.223 (Simulation time: 04 hr 51 min 53 sec)
Heartbeat CPU 2 instructions: 820000000 cycles: 352597298 heartbeat IPC: 2.289 cumulative IPC: 2.241 (Simulation time: 04 hr 53 min 53 sec)
Heartbeat CPU 0 instructions: 800000000 cycles: 354069348 heartbeat IPC: 2.497 cumulative IPC: 2.227 (Simulation time: 04 hr 55 min 01 sec)
Heartbeat CPU 2 instructions: 830000004 cycles: 356967533 heartbeat IPC: 2.288 cumulative IPC: 2.242 (Simulation time: 04 hr 57 min 18 sec)
Heartbeat CPU 0 instructions: 810000003 cycles: 358041108 heartbeat IPC: 2.518 cumulative IPC: 2.23 (Simulation time: 04 hr 58 min 10 sec)
Heartbeat CPU 2 instructions: 840000003 cycles: 361405497 heartbeat IPC: 2.253 cumulative IPC: 2.242 (Simulation time: 05 hr 01 min 01 sec)
Heartbeat CPU 0 instructions: 820000003 cycles: 361982624 heartbeat IPC: 2.537 cumulative IPC: 2.233 (Simulation time: 05 hr 01 min 31 sec)
Heartbeat CPU 2 instructions: 850000001 cycles: 365806881 heartbeat IPC: 2.272 cumulative IPC: 2.242 (Simulation time: 05 hr 04 min 35 sec)
Heartbeat CPU 0 instructions: 830000002 cycles: 366022640 heartbeat IPC: 2.475 cumulative IPC: 2.236 (Simulation time: 05 hr 04 min 45 sec)
Heartbeat CPU 2 instructions: 860000003 cycles: 370274886 heartbeat IPC: 2.238 cumulative IPC: 2.242 (Simulation time: 05 hr 07 min 57 sec)
Heartbeat CPU 0 instructions: 840000000 cycles: 370335630 heartbeat IPC: 2.319 cumulative IPC: 2.237 (Simulation time: 05 hr 08 min 00 sec)
Heartbeat CPU 3 instructions: 410000000 cycles: 370973740 heartbeat IPC: 0.4171 cumulative IPC: 0.9708 (Simulation time: 05 hr 08 min 29 sec)
Heartbeat CPU 0 instructions: 850000002 cycles: 374688575 heartbeat IPC: 2.297 cumulative IPC: 2.238 (Simulation time: 05 hr 11 min 15 sec)
Heartbeat CPU 2 instructions: 870000003 cycles: 374766787 heartbeat IPC: 2.226 cumulative IPC: 2.242 (Simulation time: 05 hr 11 min 19 sec)
Heartbeat CPU 0 instructions: 860000004 cycles: 379196688 heartbeat IPC: 2.218 cumulative IPC: 2.238 (Simulation time: 05 hr 14 min 36 sec)
Heartbeat CPU 2 instructions: 880000000 cycles: 379280984 heartbeat IPC: 2.215 cumulative IPC: 2.242 (Simulation time: 05 hr 14 min 39 sec)
Heartbeat CPU 0 instructions: 870000002 cycles: 383683190 heartbeat IPC: 2.229 cumulative IPC: 2.238 (Simulation time: 05 hr 17 min 55 sec)
Heartbeat CPU 2 instructions: 890000004 cycles: 383779701 heartbeat IPC: 2.223 cumulative IPC: 2.242 (Simulation time: 05 hr 17 min 59 sec)
Heartbeat CPU 1 instructions: 170000004 cycles: 387263393 heartbeat IPC: 0.2659 cumulative IPC: 0.307 (Simulation time: 05 hr 20 min 35 sec)
Heartbeat CPU 0 instructions: 880000003 cycles: 388073987 heartbeat IPC: 2.277 cumulative IPC: 2.238 (Simulation time: 05 hr 21 min 11 sec)
Heartbeat CPU 2 instructions: 900000000 cycles: 388252321 heartbeat IPC: 2.236 cumulative IPC: 2.242 (Simulation time: 05 hr 21 min 19 sec)
Heartbeat CPU 0 instructions: 890000003 cycles: 392486111 heartbeat IPC: 2.266 cumulative IPC: 2.238 (Simulation time: 05 hr 24 min 28 sec)
Heartbeat CPU 2 instructions: 910000003 cycles: 392802347 heartbeat IPC: 2.198 cumulative IPC: 2.241 (Simulation time: 05 hr 24 min 42 sec)
Heartbeat CPU 0 instructions: 900000000 cycles: 397013702 heartbeat IPC: 2.209 cumulative IPC: 2.238 (Simulation time: 05 hr 27 min 51 sec)
Heartbeat CPU 2 instructions: 920000001 cycles: 397259093 heartbeat IPC: 2.244 cumulative IPC: 2.241 (Simulation time: 05 hr 28 min 02 sec)
Heartbeat CPU 2 instructions: 930000001 cycles: 401755444 heartbeat IPC: 2.224 cumulative IPC: 2.241 (Simulation time: 05 hr 31 min 17 sec)
Heartbeat CPU 0 instructions: 910000000 cycles: 401979699 heartbeat IPC: 2.014 cumulative IPC: 2.235 (Simulation time: 05 hr 31 min 27 sec)
Heartbeat CPU 2 instructions: 940000000 cycles: 406253047 heartbeat IPC: 2.223 cumulative IPC: 2.241 (Simulation time: 05 hr 34 min 41 sec)
Heartbeat CPU 0 instructions: 920000004 cycles: 406915093 heartbeat IPC: 2.026 cumulative IPC: 2.233 (Simulation time: 05 hr 35 min 14 sec)
Heartbeat CPU 3 instructions: 420000002 cycles: 407748968 heartbeat IPC: 0.2719 cumulative IPC: 0.905 (Simulation time: 05 hr 35 min 58 sec)
Heartbeat CPU 2 instructions: 950000000 cycles: 410715743 heartbeat IPC: 2.241 cumulative IPC: 2.241 (Simulation time: 05 hr 38 min 25 sec)
Heartbeat CPU 0 instructions: 930000000 cycles: 411621166 heartbeat IPC: 2.125 cumulative IPC: 2.231 (Simulation time: 05 hr 39 min 12 sec)
Heartbeat CPU 3 instructions: 430000002 cycles: 413150333 heartbeat IPC: 1.851 cumulative IPC: 0.9179 (Simulation time: 05 hr 40 min 36 sec)
Heartbeat CPU 2 instructions: 960000003 cycles: 415211182 heartbeat IPC: 2.224 cumulative IPC: 2.241 (Simulation time: 05 hr 42 min 30 sec)
Heartbeat CPU 0 instructions: 940000001 cycles: 415639566 heartbeat IPC: 2.489 cumulative IPC: 2.234 (Simulation time: 05 hr 42 min 54 sec)
Heartbeat CPU 3 instructions: 440000003 cycles: 417094751 heartbeat IPC: 2.535 cumulative IPC: 0.9338 (Simulation time: 05 hr 44 min 13 sec)
Heartbeat CPU 0 instructions: 950000000 cycles: 419570388 heartbeat IPC: 2.544 cumulative IPC: 2.237 (Simulation time: 05 hr 46 min 30 sec)
Heartbeat CPU 2 instructions: 970000001 cycles: 419636396 heartbeat IPC: 2.26 cumulative IPC: 2.241 (Simulation time: 05 hr 46 min 34 sec)
Heartbeat CPU 3 instructions: 450000002 cycles: 421264995 heartbeat IPC: 2.398 cumulative IPC: 0.9489 (Simulation time: 05 hr 48 min 00 sec)
Heartbeat CPU 1 instructions: 180000004 cycles: 422481362 heartbeat IPC: 0.2839 cumulative IPC: 0.305 (Simulation time: 05 hr 49 min 08 sec)
Heartbeat CPU 0 instructions: 960000000 cycles: 423493597 heartbeat IPC: 2.549 cumulative IPC: 2.24 (Simulation time: 05 hr 50 min 01 sec)
Heartbeat CPU 2 instructions: 980000000 cycles: 424112140 heartbeat IPC: 2.234 cumulative IPC: 2.241 (Simulation time: 05 hr 50 min 33 sec)
Heartbeat CPU 3 instructions: 460000001 cycles: 426727363 heartbeat IPC: 1.831 cumulative IPC: 0.9607 (Simulation time: 05 hr 52 min 49 sec)
Heartbeat CPU 0 instructions: 970000002 cycles: 427451967 heartbeat IPC: 2.526 cumulative IPC: 2.243 (Simulation time: 05 hr 53 min 26 sec)
Heartbeat CPU 2 instructions: 990000004 cycles: 428559783 heartbeat IPC: 2.248 cumulative IPC: 2.241 (Simulation time: 05 hr 54 min 24 sec)
Heartbeat CPU 0 instructions: 980000001 cycles: 431429345 heartbeat IPC: 2.514 cumulative IPC: 2.245 (Simulation time: 05 hr 56 min 56 sec)
Heartbeat CPU 3 instructions: 470000000 cycles: 432664585 heartbeat IPC: 1.684 cumulative IPC: 0.971 (Simulation time: 05 hr 58 min 01 sec)
Heartbeat CPU 2 instructions: 1000000004 cycles: 433042997 heartbeat IPC: 2.231 cumulative IPC: 2.241 (Simulation time: 05 hr 58 min 21 sec)
Heartbeat CPU 0 instructions: 990000003 cycles: 435366816 heartbeat IPC: 2.54 cumulative IPC: 2.248 (Simulation time: 06 hr 00 min 25 sec)
Heartbeat CPU 2 instructions: 1010000000 cycles: 437496738 heartbeat IPC: 2.245 cumulative IPC: 2.241 (Simulation time: 06 hr 02 min 15 sec)
Heartbeat CPU 3 instructions: 480000003 cycles: 438874973 heartbeat IPC: 1.61 cumulative IPC: 0.9805 (Simulation time: 06 hr 03 min 28 sec)
Heartbeat CPU 0 instructions: 1000000002 cycles: 439284158 heartbeat IPC: 2.553 cumulative IPC: 2.251 (Simulation time: 06 hr 03 min 51 sec)
Heartbeat CPU 2 instructions: 1020000002 cycles: 441892875 heartbeat IPC: 2.275 cumulative IPC: 2.241 (Simulation time: 06 hr 06 min 08 sec)
Heartbeat CPU 0 instructions: 1010000001 cycles: 443260367 heartbeat IPC: 2.515 cumulative IPC: 2.253 (Simulation time: 06 hr 07 min 15 sec)
Heartbeat CPU 3 instructions: 490000001 cycles: 445768525 heartbeat IPC: 1.451 cumulative IPC: 0.988 (Simulation time: 06 hr 09 min 24 sec)
Heartbeat CPU 2 instructions: 1030000004 cycles: 446271092 heartbeat IPC: 2.284 cumulative IPC: 2.241 (Simulation time: 06 hr 09 min 51 sec)
Heartbeat CPU 0 instructions: 1020000003 cycles: 447187867 heartbeat IPC: 2.546 cumulative IPC: 2.256 (Simulation time: 06 hr 10 min 38 sec)
Heartbeat CPU 1 instructions: 190000002 cycles: 448647329 heartbeat IPC: 0.3822 cumulative IPC: 0.3097 (Simulation time: 06 hr 11 min 58 sec)
Heartbeat CPU 2 instructions: 1040000001 cycles: 450603332 heartbeat IPC: 2.308 cumulative IPC: 2.242 (Simulation time: 06 hr 13 min 46 sec)
Heartbeat CPU 3 instructions: 500000000 cycles: 450637102 heartbeat IPC: 2.054 cumulative IPC: 1 (Simulation time: 06 hr 13 min 48 sec)
Heartbeat CPU 0 instructions: 1030000001 cycles: 451108520 heartbeat IPC: 2.551 cumulative IPC: 2.259 (Simulation time: 06 hr 14 min 14 sec)
Heartbeat CPU 2 instructions: 1050000001 cycles: 454880621 heartbeat IPC: 2.338 cumulative IPC: 2.243 (Simulation time: 06 hr 17 min 26 sec)
Heartbeat CPU 0 instructions: 1040000001 cycles: 455051710 heartbeat IPC: 2.536 cumulative IPC: 2.261 (Simulation time: 06 hr 17 min 34 sec)
Heartbeat CPU 0 instructions: 1050000000 cycles: 459050698 heartbeat IPC: 2.501 cumulative IPC: 2.263 (Simulation time: 06 hr 20 min 43 sec)
Heartbeat CPU 2 instructions: 1060000001 cycles: 459215458 heartbeat IPC: 2.307 cumulative IPC: 2.244 (Simulation time: 06 hr 20 min 51 sec)
Heartbeat CPU 0 instructions: 1060000001 cycles: 463038811 heartbeat IPC: 2.507 cumulative IPC: 2.265 (Simulation time: 06 hr 23 min 57 sec)
Heartbeat CPU 2 instructions: 1070000000 cycles: 463529917 heartbeat IPC: 2.318 cumulative IPC: 2.244 (Simulation time: 06 hr 24 min 22 sec)
Heartbeat CPU 0 instructions: 1070000001 cycles: 467052603 heartbeat IPC: 2.491 cumulative IPC: 2.268 (Simulation time: 06 hr 27 min 16 sec)
Heartbeat CPU 2 instructions: 1080000000 cycles: 467870739 heartbeat IPC: 2.304 cumulative IPC: 2.245 (Simulation time: 06 hr 27 min 57 sec)
Heartbeat CPU 3 instructions: 510000000 cycles: 469224395 heartbeat IPC: 0.538 cumulative IPC: 0.981 (Simulation time: 06 hr 29 min 01 sec)
Heartbeat CPU 0 instructions: 1080000003 cycles: 471086745 heartbeat IPC: 2.479 cumulative IPC: 2.269 (Simulation time: 06 hr 30 min 27 sec)
Heartbeat CPU 2 instructions: 1090000000 cycles: 472168911 heartbeat IPC: 2.327 cumulative IPC: 2.246 (Simulation time: 06 hr 31 min 16 sec)
Heartbeat CPU 0 instructions: 1090000002 cycles: 475546676 heartbeat IPC: 2.242 cumulative IPC: 2.269 (Simulation time: 06 hr 33 min 47 sec)
Heartbeat CPU 2 instructions: 1100000000 cycles: 476463117 heartbeat IPC: 2.329 cumulative IPC: 2.247 (Simulation time: 06 hr 34 min 28 sec)
Heartbeat CPU 0 instructions: 1100000003 cycles: 480046609 heartbeat IPC: 2.222 cumulative IPC: 2.269 (Simulation time: 06 hr 37 min 06 sec)
Heartbeat CPU 1 instructions: 200000003 cycles: 480822501 heartbeat IPC: 0.3108 cumulative IPC: 0.3098 (Simulation time: 06 hr 37 min 40 sec)
Heartbeat CPU 2 instructions: 1110000001 cycles: 480882472 heartbeat IPC: 2.263 cumulative IPC: 2.247 (Simulation time: 06 hr 37 min 43 sec)
Heartbeat CPU 0 instructions: 1110000003 cycles: 484759248 heartbeat IPC: 2.122 cumulative IPC: 2.267 (Simulation time: 06 hr 40 min 33 sec)
Heartbeat CPU 2 instructions: 1120000004 cycles: 485204780 heartbeat IPC: 2.314 cumulative IPC: 2.247 (Simulation time: 06 hr 40 min 52 sec)
Heartbeat CPU 2 instructions: 1130000000 cycles: 489640765 heartbeat IPC: 2.254 cumulative IPC: 2.247 (Simulation time: 06 hr 44 min 04 sec)
Heartbeat CPU 0 instructions: 1120000002 cycles: 489678622 heartbeat IPC: 2.033 cumulative IPC: 2.265 (Simulation time: 06 hr 44 min 06 sec)
Heartbeat CPU 2 instructions: 1140000002 cycles: 494044493 heartbeat IPC: 2.271 cumulative IPC: 2.248 (Simulation time: 06 hr 47 min 19 sec)
Heartbeat CPU 0 instructions: 1130000002 cycles: 494216930 heartbeat IPC: 2.203 cumulative IPC: 2.264 (Simulation time: 06 hr 47 min 27 sec)
Heartbeat CPU 2 instructions: 1150000000 cycles: 498339371 heartbeat IPC: 2.328 cumulative IPC: 2.248 (Simulation time: 06 hr 50 min 29 sec)
Heartbeat CPU 0 instructions: 1140000000 cycles: 499126272 heartbeat IPC: 2.037 cumulative IPC: 2.262 (Simulation time: 06 hr 51 min 00 sec)
Heartbeat CPU 0 instructions: 1150000000 cycles: 505269030 heartbeat IPC: 1.628 cumulative IPC: 2.254 (Simulation time: 06 hr 55 min 07 sec)
Heartbeat CPU 2 instructions: 1160000001 cycles: 508762829 heartbeat IPC: 0.9594 cumulative IPC: 2.221 (Simulation time: 06 hr 57 min 34 sec)
Heartbeat CPU 0 instructions: 1160000000 cycles: 510220865 heartbeat IPC: 2.019 cumulative IPC: 2.252 (Simulation time: 06 hr 58 min 39 sec)
Heartbeat CPU 2 instructions: 1170000004 cycles: 513201974 heartbeat IPC: 2.253 cumulative IPC: 2.221 (Simulation time: 07 hr 00 min 58 sec)
Heartbeat CPU 3 instructions: 520000003 cycles: 514271608 heartbeat IPC: 0.222 cumulative IPC: 0.9122 (Simulation time: 07 hr 01 min 53 sec)
Heartbeat CPU 0 instructions: 1170000000 cycles: 515126583 heartbeat IPC: 2.038 cumulative IPC: 2.249 (Simulation time: 07 hr 02 min 34 sec)
Simulation finished CPU 1 instructions: 150000003 cycles: 498073647 cumulative IPC: 0.3012 (Simulation time: 07 hr 02 min 42 sec)
Simulation complete CPU 0 instructions: 1120237814 cycles: 498073647 cumulative IPC: 2.249 (Simulation time: 07 hr 02 min 42 sec)
Simulation complete CPU 1 instructions: 150000003 cycles: 498073647 cumulative IPC: 0.3012 (Simulation time: 07 hr 02 min 42 sec)
Simulation complete CPU 2 instructions: 1106503292 cycles: 498073647 cumulative IPC: 2.222 (Simulation time: 07 hr 02 min 42 sec)
Simulation complete CPU 3 instructions: 454456728 cycles: 498073647 cumulative IPC: 0.9124 (Simulation time: 07 hr 02 min 42 sec)

ChampSim completed all CPUs

=== Simulation ===
CPU 0 runs /home/grads/r/rdas40/dpc3_traces/644.nab_s-5853B.champsimtrace.xzCPU 1 runs /home/grads/r/rdas40/dpc3_traces/619.lbm_s-4268B.champsimtrace.xzCPU 2 runs /home/grads/r/rdas40/dpc3_traces/603.bwaves_s-3699B.champsimtrace.xzCPU 3 runs /home/grads/r/rdas40/dpc3_traces/627.cam4_s-573B.champsimtrace.xz
Total Simulation Statistics (not including warmup)

CPU 0 cumulative IPC: 2.249 instructions: 1120237814 cycles: 498073647
CPU 0 Branch Prediction Accuracy: 87.88% MPKI: 11.73 Average ROB Occupancy at Mispredict: 191.3
Branch type MPKI
BRANCH_DIRECT_JUMP: 0.00012
BRANCH_INDIRECT: 8.93e-07
BRANCH_CONDITIONAL: 6.2
BRANCH_DIRECT_CALL: 8.93e-07
BRANCH_INDIRECT_CALL: 0
BRANCH_RETURN: 5.53


CPU 1 cumulative IPC: 0.3012 instructions: 150000003 cycles: 498073647
CPU 1 Branch Prediction Accuracy: 97.12% MPKI: 0.5201 Average ROB Occupancy at Mispredict: 243.2
Branch type MPKI
BRANCH_DIRECT_JUMP: 0
BRANCH_INDIRECT: 0
BRANCH_CONDITIONAL: 0.52
BRANCH_DIRECT_CALL: 0
BRANCH_INDIRECT_CALL: 0
BRANCH_RETURN: 0


CPU 2 cumulative IPC: 2.222 instructions: 1106503292 cycles: 498073647
CPU 2 Branch Prediction Accuracy: 90.06% MPKI: 14.44 Average ROB Occupancy at Mispredict: 30.1
Branch type MPKI
BRANCH_DIRECT_JUMP: 0.0577
BRANCH_INDIRECT: 0
BRANCH_CONDITIONAL: 14.3
BRANCH_DIRECT_CALL: 0
BRANCH_INDIRECT_CALL: 0
BRANCH_RETURN: 0.0633


CPU 3 cumulative IPC: 0.9124 instructions: 454456728 cycles: 498073647
CPU 3 Branch Prediction Accuracy: 94.69% MPKI: 7.209 Average ROB Occupancy at Mispredict: 65.85
Branch type MPKI
BRANCH_DIRECT_JUMP: 0.00579
BRANCH_INDIRECT: 0.0017
BRANCH_CONDITIONAL: 6.54
BRANCH_DIRECT_CALL: 0.0201
BRANCH_INDIRECT_CALL: 0
BRANCH_RETURN: 0.64

LLC TOTAL        ACCESS:     301316 HIT:      43726 MISS:     257590
LLC LOAD         ACCESS:      37535 HIT:       6980 MISS:      30555
LLC RFO          ACCESS:        644 HIT:        203 MISS:        441
LLC PREFETCH     ACCESS:     251055 HIT:      35843 MISS:     215212
LLC WRITE        ACCESS:       8343 HIT:        403 MISS:       7940
LLC TRANSLATION  ACCESS:       3739 HIT:        297 MISS:       3442
LLC PREFETCH REQUESTED:          0 ISSUED:          0 USEFUL:          0 USELESS:          0
LLC AVERAGE MISS LATENCY: 2100 cycles
LLC TOTAL        ACCESS:   12886709 HIT:    5578948 MISS:    7307761
LLC LOAD         ACCESS:     350501 HIT:       1195 MISS:     349306
LLC RFO          ACCESS:    5028030 HIT:      78784 MISS:    4949246
LLC PREFETCH     ACCESS:    2055961 HIT:      47430 MISS:    2008531
LLC WRITE        ACCESS:    5451423 HIT:    5451396 MISS:         27
LLC TRANSLATION  ACCESS:        794 HIT:        143 MISS:        651
LLC PREFETCH REQUESTED:          0 ISSUED:          0 USEFUL:          0 USELESS:          0
LLC AVERAGE MISS LATENCY: 2100 cycles
LLC TOTAL        ACCESS:     401209 HIT:      91795 MISS:     309414
LLC LOAD         ACCESS:       2821 HIT:        181 MISS:       2640
LLC RFO          ACCESS:     173588 HIT:       8559 MISS:     165029
LLC PREFETCH     ACCESS:      48233 HIT:       5174 MISS:      43059
LLC WRITE        ACCESS:     176544 HIT:      77877 MISS:      98667
LLC TRANSLATION  ACCESS:         23 HIT:          4 MISS:         19
LLC PREFETCH REQUESTED:          0 ISSUED:          0 USEFUL:          0 USELESS:          0
LLC AVERAGE MISS LATENCY: 2100 cycles
LLC TOTAL        ACCESS:    5449058 HIT:    2594363 MISS:    2854695
LLC LOAD         ACCESS:     303577 HIT:      58728 MISS:     244849
LLC RFO          ACCESS:    2447440 HIT:      52448 MISS:    2394992
LLC PREFETCH     ACCESS:     199860 HIT:      40590 MISS:     159270
LLC WRITE        ACCESS:    2490164 HIT:    2441928 MISS:      48236
LLC TRANSLATION  ACCESS:       8017 HIT:        669 MISS:       7348
LLC PREFETCH REQUESTED:          0 ISSUED:          0 USEFUL:          0 USELESS:          0
LLC AVERAGE MISS LATENCY: 2100 cycles
cpu0_DTLB TOTAL        ACCESS:  197973662 HIT:  196026060 MISS:    1947602
cpu0_DTLB LOAD         ACCESS:  197973662 HIT:  196026060 MISS:    1947602
cpu0_DTLB RFO          ACCESS:          0 HIT:          0 MISS:          0
cpu0_DTLB PREFETCH     ACCESS:          0 HIT:          0 MISS:          0
cpu0_DTLB WRITE        ACCESS:          0 HIT:          0 MISS:          0
cpu0_DTLB TRANSLATION  ACCESS:          0 HIT:          0 MISS:          0
cpu0_DTLB PREFETCH REQUESTED:          0 ISSUED:          0 USEFUL:          0 USELESS:          0
cpu0_DTLB AVERAGE MISS LATENCY: 12.3 cycles
cpu0_DTLB TOTAL        ACCESS:          0 HIT:          0 MISS:          0
cpu0_DTLB LOAD         ACCESS:          0 HIT:          0 MISS:          0
cpu0_DTLB RFO          ACCESS:          0 HIT:          0 MISS:          0
cpu0_DTLB PREFETCH     ACCESS:          0 HIT:          0 MISS:          0
cpu0_DTLB WRITE        ACCESS:          0 HIT:          0 MISS:          0
cpu0_DTLB TRANSLATION  ACCESS:          0 HIT:          0 MISS:          0
cpu0_DTLB PREFETCH REQUESTED:          0 ISSUED:          0 USEFUL:          0 USELESS:          0
cpu0_DTLB AVERAGE MISS LATENCY: 12.3 cycles
cpu0_DTLB TOTAL        ACCESS:          0 HIT:          0 MISS:          0
cpu0_DTLB LOAD         ACCESS:          0 HIT:          0 MISS:          0
cpu0_DTLB RFO          ACCESS:          0 HIT:          0 MISS:          0
cpu0_DTLB PREFETCH     ACCESS:          0 HIT:          0 MISS:          0
cpu0_DTLB WRITE        ACCESS:          0 HIT:          0 MISS:          0
cpu0_DTLB TRANSLATION  ACCESS:          0 HIT:          0 MISS:          0
cpu0_DTLB PREFETCH REQUESTED:          0 ISSUED:          0 USEFUL:          0 USELESS:          0
cpu0_DTLB AVERAGE MISS LATENCY: 12.3 cycles
cpu0_DTLB TOTAL        ACCESS:          0 HIT:          0 MISS:          0
cpu0_DTLB LOAD         ACCESS:          0 HIT:          0 MISS:          0
cpu0_DTLB RFO          ACCESS:          0 HIT:          0 MISS:          0
cpu0_DTLB PREFETCH     ACCESS:          0 HIT:          0 MISS:          0
cpu0_DTLB WRITE        ACCESS:          0 HIT:          0 MISS:          0
cpu0_DTLB TRANSLATION  ACCESS:          0 HIT:          0 MISS:          0
cpu0_DTLB PREFETCH REQUESTED:          0 ISSUED:          0 USEFUL:          0 USELESS:          0
cpu0_DTLB AVERAGE MISS LATENCY: 12.3 cycles
cpu0_ITLB TOTAL        ACCESS:      10502 HIT:      10502 MISS:          0
cpu0_ITLB LOAD         ACCESS:      10502 HIT:      10502 MISS:          0
cpu0_ITLB RFO          ACCESS:          0 HIT:          0 MISS:          0
cpu0_ITLB PREFETCH     ACCESS:          0 HIT:          0 MISS:          0
cpu0_ITLB WRITE        ACCESS:          0 HIT:          0 MISS:          0
cpu0_ITLB TRANSLATION  ACCESS:          0 HIT:          0 MISS:          0
cpu0_ITLB PREFETCH REQUESTED:          0 ISSUED:          0 USEFUL:          0 USELESS:          0
cpu0_ITLB AVERAGE MISS LATENCY: -nan cycles
cpu0_ITLB TOTAL        ACCESS:          0 HIT:          0 MISS:          0
cpu0_ITLB LOAD         ACCESS:          0 HIT:          0 MISS:          0
cpu0_ITLB RFO          ACCESS:          0 HIT:          0 MISS:          0
cpu0_ITLB PREFETCH     ACCESS:          0 HIT:          0 MISS:          0
cpu0_ITLB WRITE        ACCESS:          0 HIT:          0 MISS:          0
cpu0_ITLB TRANSLATION  ACCESS:          0 HIT:          0 MISS:          0
cpu0_ITLB PREFETCH REQUESTED:          0 ISSUED:          0 USEFUL:          0 USELESS:          0
cpu0_ITLB AVERAGE MISS LATENCY: -nan cycles
cpu0_ITLB TOTAL        ACCESS:          0 HIT:          0 MISS:          0
cpu0_ITLB LOAD         ACCESS:          0 HIT:          0 MISS:          0
cpu0_ITLB RFO          ACCESS:          0 HIT:          0 MISS:          0
cpu0_ITLB PREFETCH     ACCESS:          0 HIT:          0 MISS:          0
cpu0_ITLB WRITE        ACCESS:          0 HIT:          0 MISS:          0
cpu0_ITLB TRANSLATION  ACCESS:          0 HIT:          0 MISS:          0
cpu0_ITLB PREFETCH REQUESTED:          0 ISSUED:          0 USEFUL:          0 USELESS:          0
cpu0_ITLB AVERAGE MISS LATENCY: -nan cycles
cpu0_ITLB TOTAL        ACCESS:          0 HIT:          0 MISS:          0
cpu0_ITLB LOAD         ACCESS:          0 HIT:          0 MISS:          0
cpu0_ITLB RFO          ACCESS:          0 HIT:          0 MISS:          0
cpu0_ITLB PREFETCH     ACCESS:          0 HIT:          0 MISS:          0
cpu0_ITLB WRITE        ACCESS:          0 HIT:          0 MISS:          0
cpu0_ITLB TRANSLATION  ACCESS:          0 HIT:          0 MISS:          0
cpu0_ITLB PREFETCH REQUESTED:          0 ISSUED:          0 USEFUL:          0 USELESS:          0
cpu0_ITLB AVERAGE MISS LATENCY: -nan cycles
cpu0_L1D TOTAL        ACCESS:  277590883 HIT:  268706212 MISS:    8884671
cpu0_L1D LOAD         ACCESS:  143422819 HIT:  139551632 MISS:    3871187
cpu0_L1D RFO          ACCESS:          0 HIT:          0 MISS:          0
cpu0_L1D PREFETCH     ACCESS:   13150915 HIT:    8203627 MISS:    4947288
cpu0_L1D WRITE        ACCESS:  121008220 HIT:  120950753 MISS:      57467
cpu0_L1D TRANSLATION  ACCESS:       8929 HIT:        200 MISS:       8729
cpu0_L1D PREFETCH REQUESTED:  138417691 ISSUED:   13150904 USEFUL:     635005 USELESS:     223335
cpu0_L1D AVERAGE MISS LATENCY: 41.92 cycles
cpu0_L1D TOTAL        ACCESS:          0 HIT:          0 MISS:          0
cpu0_L1D LOAD         ACCESS:          0 HIT:          0 MISS:          0
cpu0_L1D RFO          ACCESS:          0 HIT:          0 MISS:          0
cpu0_L1D PREFETCH     ACCESS:          0 HIT:          0 MISS:          0
cpu0_L1D WRITE        ACCESS:          0 HIT:          0 MISS:          0
cpu0_L1D TRANSLATION  ACCESS:          0 HIT:          0 MISS:          0
cpu0_L1D PREFETCH REQUESTED:  138417691 ISSUED:   13150904 USEFUL:     635005 USELESS:     223335
cpu0_L1D AVERAGE MISS LATENCY: 41.92 cycles
cpu0_L1D TOTAL        ACCESS:          0 HIT:          0 MISS:          0
cpu0_L1D LOAD         ACCESS:          0 HIT:          0 MISS:          0
cpu0_L1D RFO          ACCESS:          0 HIT:          0 MISS:          0
cpu0_L1D PREFETCH     ACCESS:          0 HIT:          0 MISS:          0
cpu0_L1D WRITE        ACCESS:          0 HIT:          0 MISS:          0
cpu0_L1D TRANSLATION  ACCESS:          0 HIT:          0 MISS:          0
cpu0_L1D PREFETCH REQUESTED:  138417691 ISSUED:   13150904 USEFUL:     635005 USELESS:     223335
cpu0_L1D AVERAGE MISS LATENCY: 41.92 cycles
cpu0_L1D TOTAL        ACCESS:          0 HIT:          0 MISS:          0
cpu0_L1D LOAD         ACCESS:          0 HIT:          0 MISS:          0
cpu0_L1D RFO          ACCESS:          0 HIT:          0 MISS:          0
cpu0_L1D PREFETCH     ACCESS:          0 HIT:          0 MISS:          0
cpu0_L1D WRITE        ACCESS:          0 HIT:          0 MISS:          0
cpu0_L1D TRANSLATION  ACCESS:          0 HIT:          0 MISS:          0
cpu0_L1D PREFETCH REQUESTED:  138417691 ISSUED:   13150904 USEFUL:     635005 USELESS:     223335
cpu0_L1D AVERAGE MISS LATENCY: 41.92 cycles
cpu0_L1I TOTAL        ACCESS:      12814 HIT:      12812 MISS:          2
cpu0_L1I LOAD         ACCESS:      12814 HIT:      12812 MISS:          2
cpu0_L1I RFO          ACCESS:          0 HIT:          0 MISS:          0
cpu0_L1I PREFETCH     ACCESS:          0 HIT:          0 MISS:          0
cpu0_L1I WRITE        ACCESS:          0 HIT:          0 MISS:          0
cpu0_L1I TRANSLATION  ACCESS:          0 HIT:          0 MISS:          0
cpu0_L1I PREFETCH REQUESTED:          0 ISSUED:          0 USEFUL:          0 USELESS:          0
cpu0_L1I AVERAGE MISS LATENCY: 1989 cycles
cpu0_L1I TOTAL        ACCESS:          0 HIT:          0 MISS:          0
cpu0_L1I LOAD         ACCESS:          0 HIT:          0 MISS:          0
cpu0_L1I RFO          ACCESS:          0 HIT:          0 MISS:          0
cpu0_L1I PREFETCH     ACCESS:          0 HIT:          0 MISS:          0
cpu0_L1I WRITE        ACCESS:          0 HIT:          0 MISS:          0
cpu0_L1I TRANSLATION  ACCESS:          0 HIT:          0 MISS:          0
cpu0_L1I PREFETCH REQUESTED:          0 ISSUED:          0 USEFUL:          0 USELESS:          0
cpu0_L1I AVERAGE MISS LATENCY: 1989 cycles
cpu0_L1I TOTAL        ACCESS:          0 HIT:          0 MISS:          0
cpu0_L1I LOAD         ACCESS:          0 HIT:          0 MISS:          0
cpu0_L1I RFO          ACCESS:          0 HIT:          0 MISS:          0
cpu0_L1I PREFETCH     ACCESS:          0 HIT:          0 MISS:          0
cpu0_L1I WRITE        ACCESS:          0 HIT:          0 MISS:          0
cpu0_L1I TRANSLATION  ACCESS:          0 HIT:          0 MISS:          0
cpu0_L1I PREFETCH REQUESTED:          0 ISSUED:          0 USEFUL:          0 USELESS:          0
cpu0_L1I AVERAGE MISS LATENCY: 1989 cycles
cpu0_L1I TOTAL        ACCESS:          0 HIT:          0 MISS:          0
cpu0_L1I LOAD         ACCESS:          0 HIT:          0 MISS:          0
cpu0_L1I RFO          ACCESS:          0 HIT:          0 MISS:          0
cpu0_L1I PREFETCH     ACCESS:          0 HIT:          0 MISS:          0
cpu0_L1I WRITE        ACCESS:          0 HIT:          0 MISS:          0
cpu0_L1I TRANSLATION  ACCESS:          0 HIT:          0 MISS:          0
cpu0_L1I PREFETCH REQUESTED:          0 ISSUED:          0 USEFUL:          0 USELESS:          0
cpu0_L1I AVERAGE MISS LATENCY: 1989 cycles
cpu0_L2C TOTAL        ACCESS:   10336811 HIT:    9962560 MISS:     374251
cpu0_L2C LOAD         ACCESS:    3852504 HIT:    3813455 MISS:      39049
cpu0_L2C RFO          ACCESS:      14650 HIT:      14003 MISS:        647
cpu0_L2C PREFETCH     ACCESS:    4941645 HIT:    4610863 MISS:     330782
cpu0_L2C WRITE        ACCESS:    1519283 HIT:    1519249 MISS:         34
cpu0_L2C TRANSLATION  ACCESS:       8729 HIT:       4990 MISS:       3739
cpu0_L2C PREFETCH REQUESTED:          0 ISSUED:          0 USEFUL:          0 USELESS:          0
cpu0_L2C AVERAGE MISS LATENCY: 1525 cycles
cpu0_L2C TOTAL        ACCESS:          0 HIT:          0 MISS:          0
cpu0_L2C LOAD         ACCESS:          0 HIT:          0 MISS:          0
cpu0_L2C RFO          ACCESS:          0 HIT:          0 MISS:          0
cpu0_L2C PREFETCH     ACCESS:          0 HIT:          0 MISS:          0
cpu0_L2C WRITE        ACCESS:          0 HIT:          0 MISS:          0
cpu0_L2C TRANSLATION  ACCESS:          0 HIT:          0 MISS:          0
cpu0_L2C PREFETCH REQUESTED:          0 ISSUED:          0 USEFUL:          0 USELESS:          0
cpu0_L2C AVERAGE MISS LATENCY: 1525 cycles
cpu0_L2C TOTAL        ACCESS:          0 HIT:          0 MISS:          0
cpu0_L2C LOAD         ACCESS:          0 HIT:          0 MISS:          0
cpu0_L2C RFO          ACCESS:          0 HIT:          0 MISS:          0
cpu0_L2C PREFETCH     ACCESS:          0 HIT:          0 MISS:          0
cpu0_L2C WRITE        ACCESS:          0 HIT:          0 MISS:          0
cpu0_L2C TRANSLATION  ACCESS:          0 HIT:          0 MISS:          0
cpu0_L2C PREFETCH REQUESTED:          0 ISSUED:          0 USEFUL:          0 USELESS:          0
cpu0_L2C AVERAGE MISS LATENCY: 1525 cycles
cpu0_L2C TOTAL        ACCESS:          0 HIT:          0 MISS:          0
cpu0_L2C LOAD         ACCESS:          0 HIT:          0 MISS:          0
cpu0_L2C RFO          ACCESS:          0 HIT:          0 MISS:          0
cpu0_L2C PREFETCH     ACCESS:          0 HIT:          0 MISS:          0
cpu0_L2C WRITE        ACCESS:          0 HIT:          0 MISS:          0
cpu0_L2C TRANSLATION  ACCESS:          0 HIT:          0 MISS:          0
cpu0_L2C PREFETCH REQUESTED:          0 ISSUED:          0 USEFUL:          0 USELESS:          0
cpu0_L2C AVERAGE MISS LATENCY: 1525 cycles
cpu0_STLB TOTAL        ACCESS:    1859846 HIT:    1851136 MISS:       8710
cpu0_STLB LOAD         ACCESS:    1859846 HIT:    1851136 MISS:       8710
cpu0_STLB RFO          ACCESS:          0 HIT:          0 MISS:          0
cpu0_STLB PREFETCH     ACCESS:          0 HIT:          0 MISS:          0
cpu0_STLB WRITE        ACCESS:          0 HIT:          0 MISS:          0
cpu0_STLB TRANSLATION  ACCESS:          0 HIT:          0 MISS:          0
cpu0_STLB PREFETCH REQUESTED:          0 ISSUED:          0 USEFUL:          0 USELESS:          0
cpu0_STLB AVERAGE MISS LATENCY: 1108 cycles
cpu0_STLB TOTAL        ACCESS:          0 HIT:          0 MISS:          0
cpu0_STLB LOAD         ACCESS:          0 HIT:          0 MISS:          0
cpu0_STLB RFO          ACCESS:          0 HIT:          0 MISS:          0
cpu0_STLB PREFETCH     ACCESS:          0 HIT:          0 MISS:          0
cpu0_STLB WRITE        ACCESS:          0 HIT:          0 MISS:          0
cpu0_STLB TRANSLATION  ACCESS:          0 HIT:          0 MISS:          0
cpu0_STLB PREFETCH REQUESTED:          0 ISSUED:          0 USEFUL:          0 USELESS:          0
cpu0_STLB AVERAGE MISS LATENCY: 1108 cycles
cpu0_STLB TOTAL        ACCESS:          0 HIT:          0 MISS:          0
cpu0_STLB LOAD         ACCESS:          0 HIT:          0 MISS:          0
cpu0_STLB RFO          ACCESS:          0 HIT:          0 MISS:          0
cpu0_STLB PREFETCH     ACCESS:          0 HIT:          0 MISS:          0
cpu0_STLB WRITE        ACCESS:          0 HIT:          0 MISS:          0
cpu0_STLB TRANSLATION  ACCESS:          0 HIT:          0 MISS:          0
cpu0_STLB PREFETCH REQUESTED:          0 ISSUED:          0 USEFUL:          0 USELESS:          0
cpu0_STLB AVERAGE MISS LATENCY: 1108 cycles
cpu0_STLB TOTAL        ACCESS:          0 HIT:          0 MISS:          0
cpu0_STLB LOAD         ACCESS:          0 HIT:          0 MISS:          0
cpu0_STLB RFO          ACCESS:          0 HIT:          0 MISS:          0
cpu0_STLB PREFETCH     ACCESS:          0 HIT:          0 MISS:          0
cpu0_STLB WRITE        ACCESS:          0 HIT:          0 MISS:          0
cpu0_STLB TRANSLATION  ACCESS:          0 HIT:          0 MISS:          0
cpu0_STLB PREFETCH REQUESTED:          0 ISSUED:          0 USEFUL:          0 USELESS:          0
cpu0_STLB AVERAGE MISS LATENCY: 1108 cycles
cpu1_DTLB TOTAL        ACCESS:          0 HIT:          0 MISS:          0
cpu1_DTLB LOAD         ACCESS:          0 HIT:          0 MISS:          0
cpu1_DTLB RFO          ACCESS:          0 HIT:          0 MISS:          0
cpu1_DTLB PREFETCH     ACCESS:          0 HIT:          0 MISS:          0
cpu1_DTLB WRITE        ACCESS:          0 HIT:          0 MISS:          0
cpu1_DTLB TRANSLATION  ACCESS:          0 HIT:          0 MISS:          0
cpu1_DTLB PREFETCH REQUESTED:          0 ISSUED:          0 USEFUL:          0 USELESS:          0
cpu1_DTLB AVERAGE MISS LATENCY: 50.18 cycles
cpu1_DTLB TOTAL        ACCESS:   24173244 HIT:   23840916 MISS:     332328
cpu1_DTLB LOAD         ACCESS:   24173244 HIT:   23840916 MISS:     332328
cpu1_DTLB RFO          ACCESS:          0 HIT:          0 MISS:          0
cpu1_DTLB PREFETCH     ACCESS:          0 HIT:          0 MISS:          0
cpu1_DTLB WRITE        ACCESS:          0 HIT:          0 MISS:          0
cpu1_DTLB TRANSLATION  ACCESS:          0 HIT:          0 MISS:          0
cpu1_DTLB PREFETCH REQUESTED:          0 ISSUED:          0 USEFUL:          0 USELESS:          0
cpu1_DTLB AVERAGE MISS LATENCY: 50.18 cycles
cpu1_DTLB TOTAL        ACCESS:          0 HIT:          0 MISS:          0
cpu1_DTLB LOAD         ACCESS:          0 HIT:          0 MISS:          0
cpu1_DTLB RFO          ACCESS:          0 HIT:          0 MISS:          0
cpu1_DTLB PREFETCH     ACCESS:          0 HIT:          0 MISS:          0
cpu1_DTLB WRITE        ACCESS:          0 HIT:          0 MISS:          0
cpu1_DTLB TRANSLATION  ACCESS:          0 HIT:          0 MISS:          0
cpu1_DTLB PREFETCH REQUESTED:          0 ISSUED:          0 USEFUL:          0 USELESS:          0
cpu1_DTLB AVERAGE MISS LATENCY: 50.18 cycles
cpu1_DTLB TOTAL        ACCESS:          0 HIT:          0 MISS:          0
cpu1_DTLB LOAD         ACCESS:          0 HIT:          0 MISS:          0
cpu1_DTLB RFO          ACCESS:          0 HIT:          0 MISS:          0
cpu1_DTLB PREFETCH     ACCESS:          0 HIT:          0 MISS:          0
cpu1_DTLB WRITE        ACCESS:          0 HIT:          0 MISS:          0
cpu1_DTLB TRANSLATION  ACCESS:          0 HIT:          0 MISS:          0
cpu1_DTLB PREFETCH REQUESTED:          0 ISSUED:          0 USEFUL:          0 USELESS:          0
cpu1_DTLB AVERAGE MISS LATENCY: 50.18 cycles
cpu1_ITLB TOTAL        ACCESS:          0 HIT:          0 MISS:          0
cpu1_ITLB LOAD         ACCESS:          0 HIT:          0 MISS:          0
cpu1_ITLB RFO          ACCESS:          0 HIT:          0 MISS:          0
cpu1_ITLB PREFETCH     ACCESS:          0 HIT:          0 MISS:          0
cpu1_ITLB WRITE        ACCESS:          0 HIT:          0 MISS:          0
cpu1_ITLB TRANSLATION  ACCESS:          0 HIT:          0 MISS:          0
cpu1_ITLB PREFETCH REQUESTED:          0 ISSUED:          0 USEFUL:          0 USELESS:          0
cpu1_ITLB AVERAGE MISS LATENCY: -nan cycles
cpu1_ITLB TOTAL        ACCESS:          0 HIT:          0 MISS:          0
cpu1_ITLB LOAD         ACCESS:          0 HIT:          0 MISS:          0
cpu1_ITLB RFO          ACCESS:          0 HIT:          0 MISS:          0
cpu1_ITLB PREFETCH     ACCESS:          0 HIT:          0 MISS:          0
cpu1_ITLB WRITE        ACCESS:          0 HIT:          0 MISS:          0
cpu1_ITLB TRANSLATION  ACCESS:          0 HIT:          0 MISS:          0
cpu1_ITLB PREFETCH REQUESTED:          0 ISSUED:          0 USEFUL:          0 USELESS:          0
cpu1_ITLB AVERAGE MISS LATENCY: -nan cycles
cpu1_ITLB TOTAL        ACCESS:          0 HIT:          0 MISS:          0
cpu1_ITLB LOAD         ACCESS:          0 HIT:          0 MISS:          0
cpu1_ITLB RFO          ACCESS:          0 HIT:          0 MISS:          0
cpu1_ITLB PREFETCH     ACCESS:          0 HIT:          0 MISS:          0
cpu1_ITLB WRITE        ACCESS:          0 HIT:          0 MISS:          0
cpu1_ITLB TRANSLATION  ACCESS:          0 HIT:          0 MISS:          0
cpu1_ITLB PREFETCH REQUESTED:          0 ISSUED:          0 USEFUL:          0 USELESS:          0
cpu1_ITLB AVERAGE MISS LATENCY: -nan cycles
cpu1_ITLB TOTAL        ACCESS:          0 HIT:          0 MISS:          0
cpu1_ITLB LOAD         ACCESS:          0 HIT:          0 MISS:          0
cpu1_ITLB RFO          ACCESS:          0 HIT:          0 MISS:          0
cpu1_ITLB PREFETCH     ACCESS:          0 HIT:          0 MISS:          0
cpu1_ITLB WRITE        ACCESS:          0 HIT:          0 MISS:          0
cpu1_ITLB TRANSLATION  ACCESS:          0 HIT:          0 MISS:          0
cpu1_ITLB PREFETCH REQUESTED:          0 ISSUED:          0 USEFUL:          0 USELESS:          0
cpu1_ITLB AVERAGE MISS LATENCY: -nan cycles
cpu1_L1D TOTAL        ACCESS:          0 HIT:          0 MISS:          0
cpu1_L1D LOAD         ACCESS:          0 HIT:          0 MISS:          0
cpu1_L1D RFO          ACCESS:          0 HIT:          0 MISS:          0
cpu1_L1D PREFETCH     ACCESS:          0 HIT:          0 MISS:          0
cpu1_L1D WRITE        ACCESS:          0 HIT:          0 MISS:          0
cpu1_L1D TRANSLATION  ACCESS:          0 HIT:          0 MISS:          0
cpu1_L1D PREFETCH REQUESTED:  108211137 ISSUED:    6738457 USEFUL:     464023 USELESS:     104463
cpu1_L1D AVERAGE MISS LATENCY: 527.2 cycles
cpu1_L1D TOTAL        ACCESS:   39555658 HIT:   20856440 MISS:   18699218
cpu1_L1D LOAD         ACCESS:    5205344 HIT:    3409828 MISS:    1795516
cpu1_L1D RFO          ACCESS:          0 HIT:          0 MISS:          0
cpu1_L1D PREFETCH     ACCESS:    6738457 HIT:    1198367 MISS:    5540090
cpu1_L1D WRITE        ACCESS:   27499555 HIT:   16248049 MISS:   11251506
cpu1_L1D TRANSLATION  ACCESS:     112302 HIT:        196 MISS:     112106
cpu1_L1D PREFETCH REQUESTED:  108211137 ISSUED:    6738457 USEFUL:     464023 USELESS:     104463
cpu1_L1D AVERAGE MISS LATENCY: 527.2 cycles
cpu1_L1D TOTAL        ACCESS:          0 HIT:          0 MISS:          0
cpu1_L1D LOAD         ACCESS:          0 HIT:          0 MISS:          0
cpu1_L1D RFO          ACCESS:          0 HIT:          0 MISS:          0
cpu1_L1D PREFETCH     ACCESS:          0 HIT:          0 MISS:          0
cpu1_L1D WRITE        ACCESS:          0 HIT:          0 MISS:          0
cpu1_L1D TRANSLATION  ACCESS:          0 HIT:          0 MISS:          0
cpu1_L1D PREFETCH REQUESTED:  108211137 ISSUED:    6738457 USEFUL:     464023 USELESS:     104463
cpu1_L1D AVERAGE MISS LATENCY: 527.2 cycles
cpu1_L1D TOTAL        ACCESS:          0 HIT:          0 MISS:          0
cpu1_L1D LOAD         ACCESS:          0 HIT:          0 MISS:          0
cpu1_L1D RFO          ACCESS:          0 HIT:          0 MISS:          0
cpu1_L1D PREFETCH     ACCESS:          0 HIT:          0 MISS:          0
cpu1_L1D WRITE        ACCESS:          0 HIT:          0 MISS:          0
cpu1_L1D TRANSLATION  ACCESS:          0 HIT:          0 MISS:          0
cpu1_L1D PREFETCH REQUESTED:  108211137 ISSUED:    6738457 USEFUL:     464023 USELESS:     104463
cpu1_L1D AVERAGE MISS LATENCY: 527.2 cycles
cpu1_L1I TOTAL        ACCESS:          0 HIT:          0 MISS:          0
cpu1_L1I LOAD         ACCESS:          0 HIT:          0 MISS:          0
cpu1_L1I RFO          ACCESS:          0 HIT:          0 MISS:          0
cpu1_L1I PREFETCH     ACCESS:          0 HIT:          0 MISS:          0
cpu1_L1I WRITE        ACCESS:          0 HIT:          0 MISS:          0
cpu1_L1I TRANSLATION  ACCESS:          0 HIT:          0 MISS:          0
cpu1_L1I PREFETCH REQUESTED:          0 ISSUED:          0 USEFUL:          0 USELESS:          0
cpu1_L1I AVERAGE MISS LATENCY: -nan cycles
cpu1_L1I TOTAL        ACCESS:          0 HIT:          0 MISS:          0
cpu1_L1I LOAD         ACCESS:          0 HIT:          0 MISS:          0
cpu1_L1I RFO          ACCESS:          0 HIT:          0 MISS:          0
cpu1_L1I PREFETCH     ACCESS:          0 HIT:          0 MISS:          0
cpu1_L1I WRITE        ACCESS:          0 HIT:          0 MISS:          0
cpu1_L1I TRANSLATION  ACCESS:          0 HIT:          0 MISS:          0
cpu1_L1I PREFETCH REQUESTED:          0 ISSUED:          0 USEFUL:          0 USELESS:          0
cpu1_L1I AVERAGE MISS LATENCY: -nan cycles
cpu1_L1I TOTAL        ACCESS:          0 HIT:          0 MISS:          0
cpu1_L1I LOAD         ACCESS:          0 HIT:          0 MISS:          0
cpu1_L1I RFO          ACCESS:          0 HIT:          0 MISS:          0
cpu1_L1I PREFETCH     ACCESS:          0 HIT:          0 MISS:          0
cpu1_L1I WRITE        ACCESS:          0 HIT:          0 MISS:          0
cpu1_L1I TRANSLATION  ACCESS:          0 HIT:          0 MISS:          0
cpu1_L1I PREFETCH REQUESTED:          0 ISSUED:          0 USEFUL:          0 USELESS:          0
cpu1_L1I AVERAGE MISS LATENCY: -nan cycles
cpu1_L1I TOTAL        ACCESS:          0 HIT:          0 MISS:          0
cpu1_L1I LOAD         ACCESS:          0 HIT:          0 MISS:          0
cpu1_L1I RFO          ACCESS:          0 HIT:          0 MISS:          0
cpu1_L1I PREFETCH     ACCESS:          0 HIT:          0 MISS:          0
cpu1_L1I WRITE        ACCESS:          0 HIT:          0 MISS:          0
cpu1_L1I TRANSLATION  ACCESS:          0 HIT:          0 MISS:          0
cpu1_L1I PREFETCH REQUESTED:          0 ISSUED:          0 USEFUL:          0 USELESS:          0
cpu1_L1I AVERAGE MISS LATENCY: -nan cycles
cpu1_L2C TOTAL        ACCESS:          0 HIT:          0 MISS:          0
cpu1_L2C LOAD         ACCESS:          0 HIT:          0 MISS:          0
cpu1_L2C RFO          ACCESS:          0 HIT:          0 MISS:          0
cpu1_L2C PREFETCH     ACCESS:          0 HIT:          0 MISS:          0
cpu1_L2C WRITE        ACCESS:          0 HIT:          0 MISS:          0
cpu1_L2C TRANSLATION  ACCESS:          0 HIT:          0 MISS:          0
cpu1_L2C PREFETCH REQUESTED:          0 ISSUED:          0 USEFUL:          0 USELESS:          0
cpu1_L2C AVERAGE MISS LATENCY: 1473 cycles
cpu1_L2C TOTAL        ACCESS:   26883898 HIT:   17580096 MISS:    9303802
cpu1_L2C LOAD         ACCESS:    1335324 HIT:     801417 MISS:     533907
cpu1_L2C RFO          ACCESS:   10131646 HIT:    5079515 MISS:    5052131
cpu1_L2C PREFETCH     ACCESS:    5167701 HIT:    1450731 MISS:    3716970
cpu1_L2C WRITE        ACCESS:   10137121 HIT:   10137121 MISS:          0
cpu1_L2C TRANSLATION  ACCESS:     112106 HIT:     111312 MISS:        794
cpu1_L2C PREFETCH REQUESTED:          0 ISSUED:          0 USEFUL:          0 USELESS:          0
cpu1_L2C AVERAGE MISS LATENCY: 1473 cycles
cpu1_L2C TOTAL        ACCESS:          0 HIT:          0 MISS:          0
cpu1_L2C LOAD         ACCESS:          0 HIT:          0 MISS:          0
cpu1_L2C RFO          ACCESS:          0 HIT:          0 MISS:          0
cpu1_L2C PREFETCH     ACCESS:          0 HIT:          0 MISS:          0
cpu1_L2C WRITE        ACCESS:          0 HIT:          0 MISS:          0
cpu1_L2C TRANSLATION  ACCESS:          0 HIT:          0 MISS:          0
cpu1_L2C PREFETCH REQUESTED:          0 ISSUED:          0 USEFUL:          0 USELESS:          0
cpu1_L2C AVERAGE MISS LATENCY: 1473 cycles
cpu1_L2C TOTAL        ACCESS:          0 HIT:          0 MISS:          0
cpu1_L2C LOAD         ACCESS:          0 HIT:          0 MISS:          0
cpu1_L2C RFO          ACCESS:          0 HIT:          0 MISS:          0
cpu1_L2C PREFETCH     ACCESS:          0 HIT:          0 MISS:          0
cpu1_L2C WRITE        ACCESS:          0 HIT:          0 MISS:          0
cpu1_L2C TRANSLATION  ACCESS:          0 HIT:          0 MISS:          0
cpu1_L2C PREFETCH REQUESTED:          0 ISSUED:          0 USEFUL:          0 USELESS:          0
cpu1_L2C AVERAGE MISS LATENCY: 1473 cycles
cpu1_STLB TOTAL        ACCESS:          0 HIT:          0 MISS:          0
cpu1_STLB LOAD         ACCESS:          0 HIT:          0 MISS:          0
cpu1_STLB RFO          ACCESS:          0 HIT:          0 MISS:          0
cpu1_STLB PREFETCH     ACCESS:          0 HIT:          0 MISS:          0
cpu1_STLB WRITE        ACCESS:          0 HIT:          0 MISS:          0
cpu1_STLB TRANSLATION  ACCESS:          0 HIT:          0 MISS:          0
cpu1_STLB PREFETCH REQUESTED:          0 ISSUED:          0 USEFUL:          0 USELESS:          0
cpu1_STLB AVERAGE MISS LATENCY: 183.2 cycles
cpu1_STLB TOTAL        ACCESS:     206759 HIT:      94567 MISS:     112192
cpu1_STLB LOAD         ACCESS:     206759 HIT:      94567 MISS:     112192
cpu1_STLB RFO          ACCESS:          0 HIT:          0 MISS:          0
cpu1_STLB PREFETCH     ACCESS:          0 HIT:          0 MISS:          0
cpu1_STLB WRITE        ACCESS:          0 HIT:          0 MISS:          0
cpu1_STLB TRANSLATION  ACCESS:          0 HIT:          0 MISS:          0
cpu1_STLB PREFETCH REQUESTED:          0 ISSUED:          0 USEFUL:          0 USELESS:          0
cpu1_STLB AVERAGE MISS LATENCY: 183.2 cycles
cpu1_STLB TOTAL        ACCESS:          0 HIT:          0 MISS:          0
cpu1_STLB LOAD         ACCESS:          0 HIT:          0 MISS:          0
cpu1_STLB RFO          ACCESS:          0 HIT:          0 MISS:          0
cpu1_STLB PREFETCH     ACCESS:          0 HIT:          0 MISS:          0
cpu1_STLB WRITE        ACCESS:          0 HIT:          0 MISS:          0
cpu1_STLB TRANSLATION  ACCESS:          0 HIT:          0 MISS:          0
cpu1_STLB PREFETCH REQUESTED:          0 ISSUED:          0 USEFUL:          0 USELESS:          0
cpu1_STLB AVERAGE MISS LATENCY: 183.2 cycles
cpu1_STLB TOTAL        ACCESS:          0 HIT:          0 MISS:          0
cpu1_STLB LOAD         ACCESS:          0 HIT:          0 MISS:          0
cpu1_STLB RFO          ACCESS:          0 HIT:          0 MISS:          0
cpu1_STLB PREFETCH     ACCESS:          0 HIT:          0 MISS:          0
cpu1_STLB WRITE        ACCESS:          0 HIT:          0 MISS:          0
cpu1_STLB TRANSLATION  ACCESS:          0 HIT:          0 MISS:          0
cpu1_STLB PREFETCH REQUESTED:          0 ISSUED:          0 USEFUL:          0 USELESS:          0
cpu1_STLB AVERAGE MISS LATENCY: 183.2 cycles
cpu2_DTLB TOTAL        ACCESS:          0 HIT:          0 MISS:          0
cpu2_DTLB LOAD         ACCESS:          0 HIT:          0 MISS:          0
cpu2_DTLB RFO          ACCESS:          0 HIT:          0 MISS:          0
cpu2_DTLB PREFETCH     ACCESS:          0 HIT:          0 MISS:          0
cpu2_DTLB WRITE        ACCESS:          0 HIT:          0 MISS:          0
cpu2_DTLB TRANSLATION  ACCESS:          0 HIT:          0 MISS:          0
cpu2_DTLB PREFETCH REQUESTED:          0 ISSUED:          0 USEFUL:          0 USELESS:          0
cpu2_DTLB AVERAGE MISS LATENCY: 22.98 cycles
cpu2_DTLB TOTAL        ACCESS:          0 HIT:          0 MISS:          0
cpu2_DTLB LOAD         ACCESS:          0 HIT:          0 MISS:          0
cpu2_DTLB RFO          ACCESS:          0 HIT:          0 MISS:          0
cpu2_DTLB PREFETCH     ACCESS:          0 HIT:          0 MISS:          0
cpu2_DTLB WRITE        ACCESS:          0 HIT:          0 MISS:          0
cpu2_DTLB TRANSLATION  ACCESS:          0 HIT:          0 MISS:          0
cpu2_DTLB PREFETCH REQUESTED:          0 ISSUED:          0 USEFUL:          0 USELESS:          0
cpu2_DTLB AVERAGE MISS LATENCY: 22.98 cycles
cpu2_DTLB TOTAL        ACCESS:  138208661 HIT:  138181962 MISS:      26699
cpu2_DTLB LOAD         ACCESS:  138208661 HIT:  138181962 MISS:      26699
cpu2_DTLB RFO          ACCESS:          0 HIT:          0 MISS:          0
cpu2_DTLB PREFETCH     ACCESS:          0 HIT:          0 MISS:          0
cpu2_DTLB WRITE        ACCESS:          0 HIT:          0 MISS:          0
cpu2_DTLB TRANSLATION  ACCESS:          0 HIT:          0 MISS:          0
cpu2_DTLB PREFETCH REQUESTED:          0 ISSUED:          0 USEFUL:          0 USELESS:          0
cpu2_DTLB AVERAGE MISS LATENCY: 22.98 cycles
cpu2_DTLB TOTAL        ACCESS:          0 HIT:          0 MISS:          0
[...]
cpu2_L2C TRANSLATION  ACCESS:          0 HIT:          0 MISS:          0
cpu2_L2C PREFETCH REQUESTED:          0 ISSUED:          0 USEFUL:          0 USELESS:          0
cpu2_L2C AVERAGE MISS LATENCY: 3192 cycles
cpu2_L2C TOTAL        ACCESS:          0 HIT:          0 MISS:          0
cpu2_L2C LOAD         ACCESS:          0 HIT:          0 MISS:          0
cpu2_L2C RFO          ACCESS:          0 HIT:          0 MISS:          0
cpu2_L2C PREFETCH     ACCESS:          0 HIT:          0 MISS:          0
cpu2_L2C WRITE        ACCESS:          0 HIT:          0 MISS:          0
cpu2_L2C TRANSLATION  ACCESS:          0 HIT:          0 MISS:          0
cpu2_L2C PREFETCH REQUESTED:          0 ISSUED:          0 USEFUL:          0 USELESS:          0
cpu2_L2C AVERAGE MISS LATENCY: 3192 cycles
cpu2_L2C TOTAL        ACCESS:      59311 HIT:      41302 MISS:      18009
cpu2_L2C LOAD         ACCESS:       1403 HIT:       1171 MISS:        232
cpu2_L2C RFO          ACCESS:      13170 HIT:        238 MISS:      12932
cpu2_L2C PREFETCH     ACCESS:      31564 HIT:      26744 MISS:       4820
cpu2_L2C WRITE        ACCESS:      13152 HIT:      13129 MISS:         23
cpu2_L2C TRANSLATION  ACCESS:         22 HIT:         20 MISS:          2
cpu2_L2C PREFETCH REQUESTED:          0 ISSUED:          0 USEFUL:          0 USELESS:          0
cpu2_L2C AVERAGE MISS LATENCY: 3192 cycles
cpu2_L2C TOTAL        ACCESS:          0 HIT:          0 MISS:          0
cpu2_L2C LOAD         ACCESS:          0 HIT:          0 MISS:          0
cpu2_L2C RFO          ACCESS:          0 HIT:          0 MISS:          0
cpu2_L2C PREFETCH     ACCESS:          0 HIT:          0 MISS:          0
cpu2_L2C WRITE        ACCESS:          0 HIT:          0 MISS:          0
cpu2_L2C TRANSLATION  ACCESS:          0 HIT:          0 MISS:          0
cpu2_L2C PREFETCH REQUESTED:          0 ISSUED:          0 USEFUL:          0 USELESS:          0
cpu2_L2C AVERAGE MISS LATENCY: 3192 cycles
cpu2_STLB TOTAL        ACCESS:          0 HIT:          0 MISS:          0
cpu2_STLB LOAD         ACCESS:          0 HIT:          0 MISS:          0
cpu2_STLB RFO          ACCESS:          0 HIT:          0 MISS:          0
cpu2_STLB PREFETCH     ACCESS:          0 HIT:          0 MISS:          0
cpu2_STLB WRITE        ACCESS:          0 HIT:          0 MISS:          0
cpu2_STLB TRANSLATION  ACCESS:          0 HIT:          0 MISS:          0
cpu2_STLB PREFETCH REQUESTED:          0 ISSUED:          0 USEFUL:          0 USELESS:          0
cpu2_STLB AVERAGE MISS LATENCY: 226.8 cycles
cpu2_STLB TOTAL        ACCESS:          0 HIT:          0 MISS:          0
cpu2_STLB LOAD         ACCESS:          0 HIT:          0 MISS:          0
cpu2_STLB RFO          ACCESS:          0 HIT:          0 MISS:          0
cpu2_STLB PREFETCH     ACCESS:          0 HIT:          0 MISS:          0
cpu2_STLB WRITE        ACCESS:          0 HIT:          0 MISS:          0
cpu2_STLB TRANSLATION  ACCESS:          0 HIT:          0 MISS:          0
cpu2_STLB PREFETCH REQUESTED:          0 ISSUED:          0 USEFUL:          0 USELESS:          0
cpu2_STLB AVERAGE MISS LATENCY: 226.8 cycles
cpu2_STLB TOTAL        ACCESS:        249 HIT:          4 MISS:        245
cpu2_STLB LOAD         ACCESS:        249 HIT:          4 MISS:        245
cpu2_STLB RFO          ACCESS:          0 HIT:          0 MISS:          0
cpu2_STLB PREFETCH     ACCESS:          0 HIT:          0 MISS:          0
cpu2_STLB WRITE        ACCESS:          0 HIT:          0 MISS:          0
cpu2_STLB TRANSLATION  ACCESS:          0 HIT:          0 MISS:          0
cpu2_STLB PREFETCH REQUESTED:          0 ISSUED:          0 USEFUL:          0 USELESS:          0
cpu2_STLB AVERAGE MISS LATENCY: 226.8 cycles
cpu2_STLB TOTAL        ACCESS:          0 HIT:          0 MISS:          0
cpu2_STLB LOAD         ACCESS:          0 HIT:          0 MISS:          0
cpu2_STLB RFO          ACCESS:          0 HIT:          0 MISS:          0
cpu2_STLB PREFETCH     ACCESS:          0 HIT:          0 MISS:          0
cpu2_STLB WRITE        ACCESS:          0 HIT:          0 MISS:          0
cpu2_STLB TRANSLATION  ACCESS:          0 HIT:          0 MISS:          0
cpu2_STLB PREFETCH REQUESTED:          0 ISSUED:          0 USEFUL:          0 USELESS:          0
cpu2_STLB AVERAGE MISS LATENCY: 226.8 cycles
cpu3_DTLB TOTAL        ACCESS:          0 HIT:          0 MISS:          0
cpu3_DTLB LOAD         ACCESS:          0 HIT:          0 MISS:          0
cpu3_DTLB RFO          ACCESS:          0 HIT:          0 MISS:          0
cpu3_DTLB PREFETCH     ACCESS:          0 HIT:          0 MISS:          0
cpu3_DTLB WRITE        ACCESS:          0 HIT:          0 MISS:          0
cpu3_DTLB TRANSLATION  ACCESS:          0 HIT:          0 MISS:          0
cpu3_DTLB PREFETCH REQUESTED:          0 ISSUED:          0 USEFUL:          0 USELESS:          0
cpu3_DTLB AVERAGE MISS LATENCY: 15.96 cycles
cpu3_DTLB TOTAL        ACCESS:          0 HIT:          0 MISS:          0
cpu3_DTLB LOAD         ACCESS:          0 HIT:          0 MISS:          0
cpu3_DTLB RFO          ACCESS:          0 HIT:          0 MISS:          0
cpu3_DTLB PREFETCH     ACCESS:          0 HIT:          0 MISS:          0
cpu3_DTLB WRITE        ACCESS:          0 HIT:          0 MISS:          0
cpu3_DTLB TRANSLATION  ACCESS:          0 HIT:          0 MISS:          0
cpu3_DTLB PREFETCH REQUESTED:          0 ISSUED:          0 USEFUL:          0 USELESS:          0
cpu3_DTLB AVERAGE MISS LATENCY: 15.96 cycles
cpu3_DTLB TOTAL        ACCESS:          0 HIT:          0 MISS:          0
cpu3_DTLB LOAD         ACCESS:          0 HIT:          0 MISS:          0
cpu3_DTLB RFO          ACCESS:          0 HIT:          0 MISS:          0
cpu3_DTLB PREFETCH     ACCESS:          0 HIT:          0 MISS:          0
cpu3_DTLB WRITE        ACCESS:          0 HIT:          0 MISS:          0
cpu3_DTLB TRANSLATION  ACCESS:          0 HIT:          0 MISS:          0
cpu3_DTLB PREFETCH REQUESTED:          0 ISSUED:          0 USEFUL:          0 USELESS:          0
cpu3_DTLB AVERAGE MISS LATENCY: 15.96 cycles
cpu3_DTLB TOTAL        ACCESS:   22353313 HIT:   22062495 MISS:     290818
cpu3_DTLB LOAD         ACCESS:   22353313 HIT:   22062495 MISS:     290818
cpu3_DTLB RFO          ACCESS:          0 HIT:          0 MISS:          0
cpu3_DTLB PREFETCH     ACCESS:          0 HIT:          0 MISS:          0
cpu3_DTLB WRITE        ACCESS:          0 HIT:          0 MISS:          0
cpu3_DTLB TRANSLATION  ACCESS:          0 HIT:          0 MISS:          0
cpu3_DTLB PREFETCH REQUESTED:          0 ISSUED:          0 USEFUL:          0 USELESS:          0
cpu3_DTLB AVERAGE MISS LATENCY: 15.96 cycles
cpu3_ITLB TOTAL        ACCESS:          0 HIT:          0 MISS:          0
cpu3_ITLB LOAD         ACCESS:          0 HIT:          0 MISS:          0
cpu3_ITLB RFO          ACCESS:          0 HIT:          0 MISS:          0
cpu3_ITLB PREFETCH     ACCESS:          0 HIT:          0 MISS:          0
cpu3_ITLB WRITE        ACCESS:          0 HIT:          0 MISS:          0
cpu3_ITLB TRANSLATION  ACCESS:          0 HIT:          0 MISS:          0
cpu3_ITLB PREFETCH REQUESTED:          0 ISSUED:          0 USEFUL:          0 USELESS:          0
cpu3_ITLB AVERAGE MISS LATENCY: 130.3 cycles
cpu3_ITLB TOTAL        ACCESS:          0 HIT:          0 MISS:          0
cpu3_ITLB LOAD         ACCESS:          0 HIT:          0 MISS:          0
cpu3_ITLB RFO          ACCESS:          0 HIT:          0 MISS:          0
cpu3_ITLB PREFETCH     ACCESS:          0 HIT:          0 MISS:          0
cpu3_ITLB WRITE        ACCESS:          0 HIT:          0 MISS:          0
cpu3_ITLB TRANSLATION  ACCESS:          0 HIT:          0 MISS:          0
cpu3_ITLB PREFETCH REQUESTED:          0 ISSUED:          0 USEFUL:          0 USELESS:          0
cpu3_ITLB AVERAGE MISS LATENCY: 130.3 cycles
cpu3_ITLB TOTAL        ACCESS:          0 HIT:          0 MISS:          0
cpu3_ITLB LOAD         ACCESS:          0 HIT:          0 MISS:          0
cpu3_ITLB RFO          ACCESS:          0 HIT:          0 MISS:          0
cpu3_ITLB PREFETCH     ACCESS:          0 HIT:          0 MISS:          0
cpu3_ITLB WRITE        ACCESS:          0 HIT:          0 MISS:          0
cpu3_ITLB TRANSLATION  ACCESS:          0 HIT:          0 MISS:          0
cpu3_ITLB PREFETCH REQUESTED:          0 ISSUED:          0 USEFUL:          0 USELESS:          0
cpu3_ITLB AVERAGE MISS LATENCY: 130.3 cycles
cpu3_ITLB TOTAL        ACCESS:    2470310 HIT:    2466731 MISS:       3579
cpu3_ITLB LOAD         ACCESS:    2470310 HIT:    2466731 MISS:       3579
cpu3_ITLB RFO          ACCESS:          0 HIT:          0 MISS:          0
cpu3_ITLB PREFETCH     ACCESS:          0 HIT:          0 MISS:          0
cpu3_ITLB WRITE        ACCESS:          0 HIT:          0 MISS:          0
cpu3_ITLB TRANSLATION  ACCESS:          0 HIT:          0 MISS:          0
cpu3_ITLB PREFETCH REQUESTED:          0 ISSUED:          0 USEFUL:          0 USELESS:          0
cpu3_ITLB AVERAGE MISS LATENCY: 130.3 cycles
cpu3_L1D TOTAL        ACCESS:          0 HIT:          0 MISS:          0
cpu3_L1D LOAD         ACCESS:          0 HIT:          0 MISS:          0
cpu3_L1D RFO          ACCESS:          0 HIT:          0 MISS:          0
cpu3_L1D PREFETCH     ACCESS:          0 HIT:          0 MISS:          0
cpu3_L1D WRITE        ACCESS:          0 HIT:          0 MISS:          0
cpu3_L1D TRANSLATION  ACCESS:          0 HIT:          0 MISS:          0
cpu3_L1D PREFETCH REQUESTED:   33811032 ISSUED:    7472439 USEFUL:     239761 USELESS:     106991
cpu3_L1D AVERAGE MISS LATENCY: 438.2 cycles
cpu3_L1D TOTAL        ACCESS:          0 HIT:          0 MISS:          0
cpu3_L1D LOAD         ACCESS:          0 HIT:          0 MISS:          0
cpu3_L1D RFO          ACCESS:          0 HIT:          0 MISS:          0
cpu3_L1D PREFETCH     ACCESS:          0 HIT:          0 MISS:          0
cpu3_L1D WRITE        ACCESS:          0 HIT:          0 MISS:          0
cpu3_L1D TRANSLATION  ACCESS:          0 HIT:          0 MISS:          0
cpu3_L1D PREFETCH REQUESTED:   33811032 ISSUED:    7472439 USEFUL:     239761 USELESS:     106991
cpu3_L1D AVERAGE MISS LATENCY: 438.2 cycles
cpu3_L1D TOTAL        ACCESS:          0 HIT:          0 MISS:          0
cpu3_L1D LOAD         ACCESS:          0 HIT:          0 MISS:          0
cpu3_L1D RFO          ACCESS:          0 HIT:          0 MISS:          0
cpu3_L1D PREFETCH     ACCESS:          0 HIT:          0 MISS:          0
cpu3_L1D WRITE        ACCESS:          0 HIT:          0 MISS:          0
cpu3_L1D TRANSLATION  ACCESS:          0 HIT:          0 MISS:          0
cpu3_L1D PREFETCH REQUESTED:   33811032 ISSUED:    7472439 USEFUL:     239761 USELESS:     106991
cpu3_L1D AVERAGE MISS LATENCY: 438.2 cycles
cpu3_L1D TOTAL        ACCESS:   32468447 HIT:   26319613 MISS:    6148834
cpu3_L1D LOAD         ACCESS:   14383939 HIT:   13762031 MISS:     621908
cpu3_L1D RFO          ACCESS:          0 HIT:          0 MISS:          0
cpu3_L1D PREFETCH     ACCESS:    2883651 HIT:    2155491 MISS:     728160
cpu3_L1D WRITE        ACCESS:   15181472 HIT:   10386917 MISS:    4794555
cpu3_L1D TRANSLATION  ACCESS:      19385 HIT:      15174 MISS:       4211
cpu3_L1D PREFETCH REQUESTED:   33811032 ISSUED:    7472439 USEFUL:     239761 USELESS:     106991
cpu3_L1D AVERAGE MISS LATENCY: 438.2 cycles
cpu3_L1I TOTAL        ACCESS:          0 HIT:          0 MISS:          0
cpu3_L1I LOAD         ACCESS:          0 HIT:          0 MISS:          0
cpu3_L1I RFO          ACCESS:          0 HIT:          0 MISS:          0
cpu3_L1I PREFETCH     ACCESS:          0 HIT:          0 MISS:          0
cpu3_L1I WRITE        ACCESS:          0 HIT:          0 MISS:          0
cpu3_L1I TRANSLATION  ACCESS:          0 HIT:          0 MISS:          0
cpu3_L1I PREFETCH REQUESTED:          0 ISSUED:          0 USEFUL:          0 USELESS:          0
cpu3_L1I AVERAGE MISS LATENCY: 317.7 cycles
cpu3_L1I TOTAL        ACCESS:          0 HIT:          0 MISS:          0
cpu3_L1I LOAD         ACCESS:          0 HIT:          0 MISS:          0
cpu3_L1I RFO          ACCESS:          0 HIT:          0 MISS:          0
cpu3_L1I PREFETCH     ACCESS:          0 HIT:          0 MISS:          0
cpu3_L1I WRITE        ACCESS:          0 HIT:          0 MISS:          0
cpu3_L1I TRANSLATION  ACCESS:          0 HIT:          0 MISS:          0
cpu3_L1I PREFETCH REQUESTED:          0 ISSUED:          0 USEFUL:          0 USELESS:          0
cpu3_L1I AVERAGE MISS LATENCY: 317.7 cycles
cpu3_L1I TOTAL        ACCESS:          0 HIT:          0 MISS:          0
cpu3_L1I LOAD         ACCESS:          0 HIT:          0 MISS:          0
cpu3_L1I RFO          ACCESS:          0 HIT:          0 MISS:          0
cpu3_L1I PREFETCH     ACCESS:          0 HIT:          0 MISS:          0
cpu3_L1I WRITE        ACCESS:          0 HIT:          0 MISS:          0
cpu3_L1I TRANSLATION  ACCESS:          0 HIT:          0 MISS:          0
cpu3_L1I PREFETCH REQUESTED:          0 ISSUED:          0 USEFUL:          0 USELESS:          0
cpu3_L1I AVERAGE MISS LATENCY: 317.7 cycles
cpu3_L1I TOTAL        ACCESS:    3129091 HIT:    3050483 MISS:      78608
cpu3_L1I LOAD         ACCESS:    3129091 HIT:    3050483 MISS:      78608
cpu3_L1I RFO          ACCESS:          0 HIT:          0 MISS:          0
cpu3_L1I PREFETCH     ACCESS:          0 HIT:          0 MISS:          0
cpu3_L1I WRITE        ACCESS:          0 HIT:          0 MISS:          0
cpu3_L1I TRANSLATION  ACCESS:          0 HIT:          0 MISS:          0
cpu3_L1I PREFETCH REQUESTED:          0 ISSUED:          0 USEFUL:          0 USELESS:          0
cpu3_L1I AVERAGE MISS LATENCY: 317.7 cycles
cpu3_L2C TOTAL        ACCESS:          0 HIT:          0 MISS:          0
cpu3_L2C LOAD         ACCESS:          0 HIT:          0 MISS:          0
cpu3_L2C RFO          ACCESS:          0 HIT:          0 MISS:          0
cpu3_L2C PREFETCH     ACCESS:          0 HIT:          0 MISS:          0
cpu3_L2C WRITE        ACCESS:          0 HIT:          0 MISS:          0
cpu3_L2C TRANSLATION  ACCESS:          0 HIT:          0 MISS:          0
cpu3_L2C PREFETCH REQUESTED:          0 ISSUED:          0 USEFUL:          0 USELESS:          0
cpu3_L2C AVERAGE MISS LATENCY: 2359 cycles
cpu3_L2C TOTAL        ACCESS:          0 HIT:          0 MISS:          0
cpu3_L2C LOAD         ACCESS:          0 HIT:          0 MISS:          0
cpu3_L2C RFO          ACCESS:          0 HIT:          0 MISS:          0
cpu3_L2C PREFETCH     ACCESS:          0 HIT:          0 MISS:          0
cpu3_L2C WRITE        ACCESS:          0 HIT:          0 MISS:          0
cpu3_L2C TRANSLATION  ACCESS:          0 HIT:          0 MISS:          0
cpu3_L2C PREFETCH REQUESTED:          0 ISSUED:          0 USEFUL:          0 USELESS:          0
cpu3_L2C AVERAGE MISS LATENCY: 2359 cycles
cpu3_L2C TOTAL        ACCESS:          0 HIT:          0 MISS:          0
cpu3_L2C LOAD         ACCESS:          0 HIT:          0 MISS:          0
cpu3_L2C RFO          ACCESS:          0 HIT:          0 MISS:          0
cpu3_L2C PREFETCH     ACCESS:          0 HIT:          0 MISS:          0
cpu3_L2C WRITE        ACCESS:          0 HIT:          0 MISS:          0
cpu3_L2C TRANSLATION  ACCESS:          0 HIT:          0 MISS:          0
cpu3_L2C PREFETCH REQUESTED:          0 ISSUED:          0 USEFUL:          0 USELESS:          0
cpu3_L2C AVERAGE MISS LATENCY: 2359 cycles
cpu3_L2C TOTAL        ACCESS:    3703887 HIT:    2488768 MISS:    1215119
cpu3_L2C LOAD         ACCESS:     506830 HIT:     393809 MISS:     113021
cpu3_L2C RFO          ACCESS:    1205714 HIT:     229051 MISS:     976663
cpu3_L2C PREFETCH     ACCESS:     704589 HIT:     582305 MISS:     122284
cpu3_L2C WRITE        ACCESS:    1282575 HIT:    1282466 MISS:        109
cpu3_L2C TRANSLATION  ACCESS:       4179 HIT:       1137 MISS:       3042
cpu3_L2C PREFETCH REQUESTED:          0 ISSUED:          0 USEFUL:          0 USELESS:          0
cpu3_L2C AVERAGE MISS LATENCY: 2359 cycles
cpu3_STLB TOTAL        ACCESS:          0 HIT:          0 MISS:          0
cpu3_STLB LOAD         ACCESS:          0 HIT:          0 MISS:          0
cpu3_STLB RFO          ACCESS:          0 HIT:          0 MISS:          0
cpu3_STLB PREFETCH     ACCESS:          0 HIT:          0 MISS:          0
cpu3_STLB WRITE        ACCESS:          0 HIT:          0 MISS:          0
cpu3_STLB TRANSLATION  ACCESS:          0 HIT:          0 MISS:          0
cpu3_STLB PREFETCH REQUESTED:          0 ISSUED:          0 USEFUL:          0 USELESS:          0
cpu3_STLB AVERAGE MISS LATENCY: 273 cycles
cpu3_STLB TOTAL        ACCESS:          0 HIT:          0 MISS:          0
cpu3_STLB LOAD         ACCESS:          0 HIT:          0 MISS:          0
cpu3_STLB RFO          ACCESS:          0 HIT:          0 MISS:          0
cpu3_STLB PREFETCH     ACCESS:          0 HIT:          0 MISS:          0
cpu3_STLB WRITE        ACCESS:          0 HIT:          0 MISS:          0
cpu3_STLB TRANSLATION  ACCESS:          0 HIT:          0 MISS:          0
cpu3_STLB PREFETCH REQUESTED:          0 ISSUED:          0 USEFUL:          0 USELESS:          0
cpu3_STLB AVERAGE MISS LATENCY: 273 cycles
cpu3_STLB TOTAL        ACCESS:          0 HIT:          0 MISS:          0
cpu3_STLB LOAD         ACCESS:          0 HIT:          0 MISS:          0
cpu3_STLB RFO          ACCESS:          0 HIT:          0 MISS:          0
cpu3_STLB PREFETCH     ACCESS:          0 HIT:          0 MISS:          0
cpu3_STLB WRITE        ACCESS:          0 HIT:          0 MISS:          0
cpu3_STLB TRANSLATION  ACCESS:          0 HIT:          0 MISS:          0
cpu3_STLB PREFETCH REQUESTED:          0 ISSUED:          0 USEFUL:          0 USELESS:          0
cpu3_STLB AVERAGE MISS LATENCY: 273 cycles
cpu3_STLB TOTAL        ACCESS:     102838 HIT:      83822 MISS:      19016
cpu3_STLB LOAD         ACCESS:     102838 HIT:      83822 MISS:      19016
cpu3_STLB RFO          ACCESS:          0 HIT:          0 MISS:          0
cpu3_STLB PREFETCH     ACCESS:          0 HIT:          0 MISS:          0
cpu3_STLB WRITE        ACCESS:          0 HIT:          0 MISS:          0
cpu3_STLB TRANSLATION  ACCESS:          0 HIT:          0 MISS:          0
cpu3_STLB PREFETCH REQUESTED:          0 ISSUED:          0 USEFUL:          0 USELESS:          0
cpu3_STLB AVERAGE MISS LATENCY: 273 cycles

DRAM Statistics

Channel 0 RQ ROW_BUFFER_HIT:     698420
  ROW_BUFFER_MISS:    4586732
 AVG DBUS CONGESTED CYCLE: 3.992
WQ ROW_BUFFER_HIT: Channel 0 
  ROW_BUFFER_MISS:     127579
  FULL:    3875702

Channel 1 RQ ROW_BUFFER_HIT:     697135
  ROW_BUFFER_MISS:    4584690
 AVG DBUS CONGESTED CYCLE: 3.991
WQ ROW_BUFFER_HIT: Channel 1 
  ROW_BUFFER_MISS:     128795
  FULL:    3874684
BERTI TO_L1: 93913979 TO_L2: 204268700 TO_L2_BC_MSHR: 41622555
BERTI AVG_LAT: 341.922 NUM_TRACK_LATENCY: 9057434 NUM_CANT_TRACK_LATENCY: 146784
BERTI CROSS_PAGE 57108203 NO_CROSS_PAGE: 241074476
BERTI FOUND_BERTI: 108819959 NO_FOUND_BERTI: 283721684
BERTI AVERAGE_ISSUED: 3.10816
BERTI TO_L1: 93913979 TO_L2: 204268700 TO_L2_BC_MSHR: 41622555
BERTI AVG_LAT: 341.922 NUM_TRACK_LATENCY: 9057434 NUM_CANT_TRACK_LATENCY: 146784
BERTI CROSS_PAGE 57108203 NO_CROSS_PAGE: 241074476
BERTI FOUND_BERTI: 108819959 NO_FOUND_BERTI: 283721684
BERTI AVERAGE_ISSUED: 3.10816
BERTI TO_L1: 93913979 TO_L2: 204268700 TO_L2_BC_MSHR: 41622555
BERTI AVG_LAT: 341.922 NUM_TRACK_LATENCY: 9057434 NUM_CANT_TRACK_LATENCY: 146784
BERTI CROSS_PAGE 57108203 NO_CROSS_PAGE: 241074476
BERTI FOUND_BERTI: 108819959 NO_FOUND_BERTI: 283721684
BERTI AVERAGE_ISSUED: 3.10816
BERTI TO_L1: 93913979 TO_L2: 204268700 TO_L2_BC_MSHR: 41622555
BERTI AVG_LAT: 341.922 NUM_TRACK_LATENCY: 9057434 NUM_CANT_TRACK_LATENCY: 146784
BERTI CROSS_PAGE 57108203 NO_CROSS_PAGE: 241074476
BERTI FOUND_BERTI: 108819959 NO_FOUND_BERTI: 283721684
BERTI AVERAGE_ISSUED: 3.10816
