WARNING: physical memory size is smaller than virtual memory size.
WARNING: option --warmup_instructions is deprecated. Use --warmup-instructions instead.
WARNING: option --simulation_instructions is deprecated. Use --simulation-instructions instead.

*** ChampSim Multicore Out-of-Order Simulator ***
Warmup Instructions: 50000000
Simulation Instructions: 150000000
Number of CPUs: 4
Page size: 4096

Berti Prefetcher
BERTI HASH ORIGINAL
BERTI IP MASK ffff
Berti Prefetcher
BERTI HASH ORIGINAL
BERTI IP MASK ffff
Berti Prefetcher
BERTI HASH ORIGINAL
BERTI IP MASK ffff
Berti Prefetcher
BERTI HASH ORIGINAL
BERTI IP MASK ffff
Off-chip DRAM Size: 4 GiB Channels: 1 Width: 64-bit Data Race: 3200 MT/s
Heartbeat CPU 3 instructions: 10000002 cycles: 2502901 heartbeat IPC: 3.995 cumulative IPC: 3.995 (Simulation time: 00 hr 02 min 12 sec)
Heartbeat CPU 0 instructions: 10000000 cycles: 2511316 heartbeat IPC: 3.982 cumulative IPC: 3.982 (Simulation time: 00 hr 02 min 12 sec)
Heartbeat CPU 2 instructions: 10000001 cycles: 2639113 heartbeat IPC: 3.789 cumulative IPC: 3.789 (Simulation time: 00 hr 02 min 19 sec)
Heartbeat CPU 1 instructions: 10000003 cycles: 2696930 heartbeat IPC: 3.708 cumulative IPC: 3.708 (Simulation time: 00 hr 02 min 22 sec)
Heartbeat CPU 3 instructions: 20000001 cycles: 5005630 heartbeat IPC: 3.996 cumulative IPC: 3.996 (Simulation time: 00 hr 04 min 26 sec)
Heartbeat CPU 0 instructions: 20000003 cycles: 5026815 heartbeat IPC: 3.975 cumulative IPC: 3.979 (Simulation time: 00 hr 04 min 27 sec)
Heartbeat CPU 1 instructions: 20000001 cycles: 5210182 heartbeat IPC: 3.979 cumulative IPC: 3.839 (Simulation time: 00 hr 04 min 37 sec)
Heartbeat CPU 2 instructions: 20000000 cycles: 5278123 heartbeat IPC: 3.789 cumulative IPC: 3.789 (Simulation time: 00 hr 04 min 40 sec)
Heartbeat CPU 3 instructions: 30000003 cycles: 7507965 heartbeat IPC: 3.996 cumulative IPC: 3.996 (Simulation time: 00 hr 06 min 42 sec)
Heartbeat CPU 0 instructions: 30000000 cycles: 7533847 heartbeat IPC: 3.989 cumulative IPC: 3.982 (Simulation time: 00 hr 06 min 43 sec)
Heartbeat CPU 1 instructions: 30000000 cycles: 7723221 heartbeat IPC: 3.979 cumulative IPC: 3.884 (Simulation time: 00 hr 06 min 53 sec)
Heartbeat CPU 2 instructions: 30000003 cycles: 7917066 heartbeat IPC: 3.789 cumulative IPC: 3.789 (Simulation time: 00 hr 07 min 04 sec)
Heartbeat CPU 3 instructions: 40000002 cycles: 10010596 heartbeat IPC: 3.996 cumulative IPC: 3.996 (Simulation time: 00 hr 08 min 56 sec)
Heartbeat CPU 0 instructions: 40000002 cycles: 10050754 heartbeat IPC: 3.973 cumulative IPC: 3.98 (Simulation time: 00 hr 08 min 58 sec)
Heartbeat CPU 1 instructions: 40000003 cycles: 10239732 heartbeat IPC: 3.974 cumulative IPC: 3.906 (Simulation time: 00 hr 09 min 09 sec)
Heartbeat CPU 2 instructions: 40000001 cycles: 10556048 heartbeat IPC: 3.789 cumulative IPC: 3.789 (Simulation time: 00 hr 09 min 26 sec)
Heartbeat CPU 3 instructions: 50000003 cycles: 12513280 heartbeat IPC: 3.996 cumulative IPC: 3.996 (Simulation time: 00 hr 11 min 13 sec)
Warmup finished CPU 3 instructions: 50000003 cycles: 12513281 cumulative IPC: 3.996 (Simulation time: 00 hr 11 min 13 sec)
Heartbeat CPU 0 instructions: 50000003 cycles: 12588682 heartbeat IPC: 3.94 cumulative IPC: 3.972 (Simulation time: 00 hr 11 min 17 sec)
Warmup finished CPU 0 instructions: 50000003 cycles: 12588683 cumulative IPC: 3.972 (Simulation time: 00 hr 11 min 17 sec)
Heartbeat CPU 1 instructions: 50000001 cycles: 12760653 heartbeat IPC: 3.967 cumulative IPC: 3.918 (Simulation time: 00 hr 11 min 27 sec)
Warmup finished CPU 1 instructions: 50000001 cycles: 12760654 cumulative IPC: 3.918 (Simulation time: 00 hr 11 min 27 sec)
Heartbeat CPU 2 instructions: 50000000 cycles: 13196169 heartbeat IPC: 3.788 cumulative IPC: 3.789 (Simulation time: 00 hr 11 min 50 sec)
Warmup finished CPU 2 instructions: 50000000 cycles: 13196170 cumulative IPC: 3.789 (Simulation time: 00 hr 11 min 50 sec)
Warmup complete CPU 0 instructions: 52418665 cycles: 13196170 cumulative IPC: 3.972 (Simulation time: 00 hr 11 min 50 sec)
Warmup complete CPU 1 instructions: 51727369 cycles: 13196170 cumulative IPC: 3.92 (Simulation time: 00 hr 11 min 50 sec)
Warmup complete CPU 2 instructions: 50000000 cycles: 13196170 cumulative IPC: 3.789 (Simulation time: 00 hr 11 min 50 sec)
Warmup complete CPU 3 instructions: 52720701 cycles: 13196170 cumulative IPC: 3.995 (Simulation time: 00 hr 11 min 50 sec)
Heartbeat CPU 0 instructions: 60000002 cycles: 15666080 heartbeat IPC: 3.249 cumulative IPC: 3.069 (Simulation time: 00 hr 13 min 41 sec)
Heartbeat CPU 3 instructions: 60000004 cycles: 16633040 heartbeat IPC: 2.427 cumulative IPC: 2.118 (Simulation time: 00 hr 14 min 24 sec)
Heartbeat CPU 1 instructions: 60000003 cycles: 17211834 heartbeat IPC: 2.247 cumulative IPC: 2.06 (Simulation time: 00 hr 14 min 49 sec)
Heartbeat CPU 2 instructions: 60000000 cycles: 17648526 heartbeat IPC: 2.246 cumulative IPC: 2.246 (Simulation time: 00 hr 15 min 08 sec)
Heartbeat CPU 0 instructions: 70000003 cycles: 19238503 heartbeat IPC: 2.799 cumulative IPC: 2.91 (Simulation time: 00 hr 16 min 19 sec)
Heartbeat CPU 3 instructions: 70000000 cycles: 21344070 heartbeat IPC: 2.123 cumulative IPC: 2.121 (Simulation time: 00 hr 17 min 56 sec)
Heartbeat CPU 1 instructions: 70000000 cycles: 21656760 heartbeat IPC: 2.25 cumulative IPC: 2.16 (Simulation time: 00 hr 18 min 10 sec)
Heartbeat CPU 2 instructions: 70000002 cycles: 21862010 heartbeat IPC: 2.373 cumulative IPC: 2.308 (Simulation time: 00 hr 18 min 20 sec)
Heartbeat CPU 0 instructions: 80000000 cycles: 22567324 heartbeat IPC: 3.004 cumulative IPC: 2.943 (Simulation time: 00 hr 18 min 54 sec)
Heartbeat CPU 2 instructions: 80000000 cycles: 25679866 heartbeat IPC: 2.619 cumulative IPC: 2.403 (Simulation time: 00 hr 21 min 11 sec)
Heartbeat CPU 0 instructions: 90000001 cycles: 25977807 heartbeat IPC: 2.932 cumulative IPC: 2.94 (Simulation time: 00 hr 21 min 26 sec)
Heartbeat CPU 3 instructions: 80000001 cycles: 26036943 heartbeat IPC: 2.131 cumulative IPC: 2.124 (Simulation time: 00 hr 21 min 28 sec)
Heartbeat CPU 1 instructions: 80000003 cycles: 26204557 heartbeat IPC: 2.199 cumulative IPC: 2.173 (Simulation time: 00 hr 21 min 36 sec)
Heartbeat CPU 0 instructions: 100000004 cycles: 29377917 heartbeat IPC: 2.941 cumulative IPC: 2.94 (Simulation time: 00 hr 23 min 54 sec)
Heartbeat CPU 2 instructions: 90000000 cycles: 29413153 heartbeat IPC: 2.679 cumulative IPC: 2.467 (Simulation time: 00 hr 23 min 55 sec)
Heartbeat CPU 1 instructions: 90000003 cycles: 30061823 heartbeat IPC: 2.593 cumulative IPC: 2.269 (Simulation time: 00 hr 24 min 25 sec)
Heartbeat CPU 3 instructions: 90000002 cycles: 30742278 heartbeat IPC: 2.125 cumulative IPC: 2.125 (Simulation time: 00 hr 24 min 55 sec)
Heartbeat CPU 0 instructions: 110000001 cycles: 32933737 heartbeat IPC: 2.812 cumulative IPC: 2.917 (Simulation time: 00 hr 26 min 22 sec)
Heartbeat CPU 2 instructions: 100000003 cycles: 33626125 heartbeat IPC: 2.374 cumulative IPC: 2.447 (Simulation time: 00 hr 26 min 51 sec)
Heartbeat CPU 3 instructions: 100000000 cycles: 35477265 heartbeat IPC: 2.112 cumulative IPC: 2.122 (Simulation time: 00 hr 28 min 02 sec)
Heartbeat CPU 0 instructions: 120000002 cycles: 36346457 heartbeat IPC: 2.93 cumulative IPC: 2.919 (Simulation time: 00 hr 28 min 39 sec)
Heartbeat CPU 2 instructions: 110000001 cycles: 39566738 heartbeat IPC: 1.683 cumulative IPC: 2.275 (Simulation time: 00 hr 30 min 40 sec)
Heartbeat CPU 0 instructions: 130000003 cycles: 39793358 heartbeat IPC: 2.901 cumulative IPC: 2.917 (Simulation time: 00 hr 30 min 49 sec)
Heartbeat CPU 3 instructions: 110000001 cycles: 40190298 heartbeat IPC: 2.122 cumulative IPC: 2.122 (Simulation time: 00 hr 31 min 03 sec)
Heartbeat CPU 1 instructions: 100000000 cycles: 42706372 heartbeat IPC: 0.7909 cumulative IPC: 1.636 (Simulation time: 00 hr 32 min 29 sec)
Heartbeat CPU 0 instructions: 140000003 cycles: 43508191 heartbeat IPC: 2.692 cumulative IPC: 2.889 (Simulation time: 00 hr 32 min 54 sec)
Heartbeat CPU 3 instructions: 120000000 cycles: 44858256 heartbeat IPC: 2.142 cumulative IPC: 2.125 (Simulation time: 00 hr 33 min 39 sec)
Heartbeat CPU 0 instructions: 150000003 cycles: 47145324 heartbeat IPC: 2.749 cumulative IPC: 2.874 (Simulation time: 00 hr 34 min 54 sec)
Heartbeat CPU 3 instructions: 130000002 cycles: 49588989 heartbeat IPC: 2.114 cumulative IPC: 2.123 (Simulation time: 00 hr 36 min 16 sec)
Heartbeat CPU 0 instructions: 160000001 cycles: 50477262 heartbeat IPC: 3.001 cumulative IPC: 2.886 (Simulation time: 00 hr 36 min 47 sec)
Heartbeat CPU 2 instructions: 120000003 cycles: 50758896 heartbeat IPC: 0.8935 cumulative IPC: 1.864 (Simulation time: 00 hr 36 min 58 sec)
Heartbeat CPU 0 instructions: 170000003 cycles: 53975862 heartbeat IPC: 2.858 cumulative IPC: 2.883 (Simulation time: 00 hr 38 min 46 sec)
Heartbeat CPU 3 instructions: 140000000 cycles: 54345169 heartbeat IPC: 2.103 cumulative IPC: 2.121 (Simulation time: 00 hr 38 min 58 sec)
Heartbeat CPU 0 instructions: 180000003 cycles: 57759116 heartbeat IPC: 2.643 cumulative IPC: 2.863 (Simulation time: 00 hr 40 min 54 sec)
Heartbeat CPU 3 instructions: 150000004 cycles: 59017185 heartbeat IPC: 2.14 cumulative IPC: 2.123 (Simulation time: 00 hr 41 min 39 sec)
Heartbeat CPU 0 instructions: 190000001 cycles: 61612779 heartbeat IPC: 2.595 cumulative IPC: 2.842 (Simulation time: 00 hr 43 min 04 sec)
Heartbeat CPU 2 instructions: 130000003 cycles: 63354484 heartbeat IPC: 0.7939 cumulative IPC: 1.595 (Simulation time: 00 hr 44 min 01 sec)
Heartbeat CPU 3 instructions: 160000003 cycles: 63695155 heartbeat IPC: 2.138 cumulative IPC: 2.124 (Simulation time: 00 hr 44 min 13 sec)
Heartbeat CPU 0 instructions: 200000004 cycles: 65312717 heartbeat IPC: 2.703 cumulative IPC: 2.832 (Simulation time: 00 hr 45 min 08 sec)
Simulation finished CPU 0 instructions: 150000003 cycles: 52969543 cumulative IPC: 2.832 (Simulation time: 00 hr 45 min 34 sec)
Heartbeat CPU 3 instructions: 170000003 cycles: 68450623 heartbeat IPC: 2.103 cumulative IPC: 2.123 (Simulation time: 00 hr 46 min 44 sec)
Heartbeat CPU 0 instructions: 210000004 cycles: 69282737 heartbeat IPC: 2.519 cumulative IPC: 2.81 (Simulation time: 00 hr 47 min 09 sec)
Heartbeat CPU 0 instructions: 220000001 cycles: 72928776 heartbeat IPC: 2.743 cumulative IPC: 2.806 (Simulation time: 00 hr 49 min 17 sec)
Heartbeat CPU 3 instructions: 180000004 cycles: 73107385 heartbeat IPC: 2.147 cumulative IPC: 2.124 (Simulation time: 00 hr 49 min 23 sec)
Heartbeat CPU 2 instructions: 140000002 cycles: 73499748 heartbeat IPC: 0.9857 cumulative IPC: 1.492 (Simulation time: 00 hr 49 min 38 sec)
Heartbeat CPU 0 instructions: 230000000 cycles: 76437295 heartbeat IPC: 2.85 cumulative IPC: 2.808 (Simulation time: 00 hr 51 min 23 sec)
Heartbeat CPU 3 instructions: 190000002 cycles: 77778619 heartbeat IPC: 2.141 cumulative IPC: 2.126 (Simulation time: 00 hr 52 min 09 sec)
Heartbeat CPU 0 instructions: 240000002 cycles: 80246104 heartbeat IPC: 2.625 cumulative IPC: 2.798 (Simulation time: 00 hr 53 min 29 sec)
Heartbeat CPU 3 instructions: 200000000 cycles: 82546425 heartbeat IPC: 2.097 cumulative IPC: 2.124 (Simulation time: 00 hr 54 min 46 sec)
Simulation finished CPU 3 instructions: 150000002 cycles: 70581797 cumulative IPC: 2.125 (Simulation time: 00 hr 55 min 29 sec)
Heartbeat CPU 0 instructions: 250000004 cycles: 83915084 heartbeat IPC: 2.726 cumulative IPC: 2.794 (Simulation time: 00 hr 55 min 33 sec)
Heartbeat CPU 2 instructions: 150000001 cycles: 83935776 heartbeat IPC: 0.9582 cumulative IPC: 1.414 (Simulation time: 00 hr 55 min 34 sec)
Heartbeat CPU 3 instructions: 210000000 cycles: 87136405 heartbeat IPC: 2.179 cumulative IPC: 2.127 (Simulation time: 00 hr 57 min 38 sec)
Heartbeat CPU 0 instructions: 260000002 cycles: 87374928 heartbeat IPC: 2.89 cumulative IPC: 2.798 (Simulation time: 00 hr 57 min 47 sec)
Heartbeat CPU 1 instructions: 110000001 cycles: 87394234 heartbeat IPC: 0.2238 cumulative IPC: 0.7854 (Simulation time: 00 hr 57 min 47 sec)
Heartbeat CPU 2 instructions: 160000000 cycles: 90574135 heartbeat IPC: 1.506 cumulative IPC: 1.422 (Simulation time: 00 hr 59 min 51 sec)
Heartbeat CPU 0 instructions: 270000004 cycles: 90766808 heartbeat IPC: 2.948 cumulative IPC: 2.805 (Simulation time: 01 hr 00 min 00 sec)
Heartbeat CPU 3 instructions: 220000000 cycles: 91697573 heartbeat IPC: 2.192 cumulative IPC: 2.131 (Simulation time: 01 hr 00 min 41 sec)
Heartbeat CPU 1 instructions: 120000003 cycles: 92014632 heartbeat IPC: 2.164 cumulative IPC: 0.8662 (Simulation time: 01 hr 00 min 56 sec)
Heartbeat CPU 2 instructions: 170000002 cycles: 94119865 heartbeat IPC: 2.82 cumulative IPC: 1.483 (Simulation time: 01 hr 02 min 32 sec)
Heartbeat CPU 0 instructions: 280000004 cycles: 94145091 heartbeat IPC: 2.96 cumulative IPC: 2.811 (Simulation time: 01 hr 02 min 33 sec)
Heartbeat CPU 1 instructions: 130000001 cycles: 95430113 heartbeat IPC: 2.928 cumulative IPC: 0.9518 (Simulation time: 01 hr 03 min 32 sec)
Heartbeat CPU 3 instructions: 230000001 cycles: 96278801 heartbeat IPC: 2.183 cumulative IPC: 2.134 (Simulation time: 01 hr 04 min 10 sec)
Heartbeat CPU 0 instructions: 290000003 cycles: 97581664 heartbeat IPC: 2.91 cumulative IPC: 2.815 (Simulation time: 01 hr 05 min 07 sec)
Heartbeat CPU 2 instructions: 180000003 cycles: 98760177 heartbeat IPC: 2.155 cumulative IPC: 1.519 (Simulation time: 01 hr 06 min 15 sec)
Heartbeat CPU 1 instructions: 140000000 cycles: 98828771 heartbeat IPC: 2.942 cumulative IPC: 1.031 (Simulation time: 01 hr 06 min 18 sec)
Heartbeat CPU 3 instructions: 240000000 cycles: 100880950 heartbeat IPC: 2.173 cumulative IPC: 2.136 (Simulation time: 01 hr 07 min 59 sec)
Heartbeat CPU 0 instructions: 300000000 cycles: 100999612 heartbeat IPC: 2.926 cumulative IPC: 2.82 (Simulation time: 01 hr 08 min 04 sec)
Heartbeat CPU 1 instructions: 150000004 cycles: 103244088 heartbeat IPC: 2.265 cumulative IPC: 1.091 (Simulation time: 01 hr 09 min 55 sec)
Heartbeat CPU 2 instructions: 190000004 cycles: 103466713 heartbeat IPC: 2.125 cumulative IPC: 1.551 (Simulation time: 01 hr 10 min 06 sec)
Heartbeat CPU 0 instructions: 310000004 cycles: 104423158 heartbeat IPC: 2.921 cumulative IPC: 2.824 (Simulation time: 01 hr 10 min 52 sec)
Heartbeat CPU 3 instructions: 250000002 cycles: 105514460 heartbeat IPC: 2.158 cumulative IPC: 2.137 (Simulation time: 01 hr 11 min 44 sec)
Heartbeat CPU 0 instructions: 320000001 cycles: 107846453 heartbeat IPC: 2.921 cumulative IPC: 2.827 (Simulation time: 01 hr 13 min 36 sec)
Heartbeat CPU 1 instructions: 160000000 cycles: 108082377 heartbeat IPC: 2.067 cumulative IPC: 1.141 (Simulation time: 01 hr 13 min 49 sec)
Heartbeat CPU 2 instructions: 200000004 cycles: 108248758 heartbeat IPC: 2.091 cumulative IPC: 1.578 (Simulation time: 01 hr 13 min 59 sec)
Simulation finished CPU 2 instructions: 150000004 cycles: 95052589 cumulative IPC: 1.578 (Simulation time: 01 hr 13 min 59 sec)
Heartbeat CPU 3 instructions: 260000000 cycles: 110146814 heartbeat IPC: 2.159 cumulative IPC: 2.138 (Simulation time: 01 hr 15 min 38 sec)
Heartbeat CPU 0 instructions: 330000001 cycles: 111270570 heartbeat IPC: 2.92 cumulative IPC: 2.83 (Simulation time: 01 hr 16 min 45 sec)
Heartbeat CPU 1 instructions: 170000002 cycles: 112838974 heartbeat IPC: 2.102 cumulative IPC: 1.187 (Simulation time: 01 hr 18 min 06 sec)
Heartbeat CPU 2 instructions: 210000003 cycles: 112954043 heartbeat IPC: 2.125 cumulative IPC: 1.604 (Simulation time: 01 hr 18 min 13 sec)
Heartbeat CPU 0 instructions: 340000003 cycles: 114692919 heartbeat IPC: 2.922 cumulative IPC: 2.833 (Simulation time: 01 hr 20 min 07 sec)
Heartbeat CPU 3 instructions: 270000000 cycles: 114766062 heartbeat IPC: 2.165 cumulative IPC: 2.139 (Simulation time: 01 hr 20 min 12 sec)
Heartbeat CPU 1 instructions: 180000001 cycles: 117219730 heartbeat IPC: 2.283 cumulative IPC: 1.233 (Simulation time: 01 hr 22 min 57 sec)
Heartbeat CPU 2 instructions: 220000001 cycles: 117786173 heartbeat IPC: 2.069 cumulative IPC: 1.625 (Simulation time: 01 hr 23 min 37 sec)
Heartbeat CPU 0 instructions: 350000001 cycles: 118140959 heartbeat IPC: 2.9 cumulative IPC: 2.836 (Simulation time: 01 hr 24 min 01 sec)
Heartbeat CPU 3 instructions: 280000001 cycles: 119384793 heartbeat IPC: 2.165 cumulative IPC: 2.14 (Simulation time: 01 hr 25 min 27 sec)
Heartbeat CPU 1 instructions: 190000003 cycles: 121375710 heartbeat IPC: 2.406 cumulative IPC: 1.278 (Simulation time: 01 hr 27 min 48 sec)
Heartbeat CPU 0 instructions: 360000000 cycles: 121566960 heartbeat IPC: 2.919 cumulative IPC: 2.838 (Simulation time: 01 hr 28 min 01 sec)
Heartbeat CPU 2 instructions: 230000000 cycles: 122181937 heartbeat IPC: 2.275 cumulative IPC: 1.652 (Simulation time: 01 hr 28 min 44 sec)
Heartbeat CPU 3 instructions: 290000004 cycles: 124011791 heartbeat IPC: 2.161 cumulative IPC: 2.141 (Simulation time: 01 hr 30 min 35 sec)
Heartbeat CPU 0 instructions: 370000001 cycles: 124975688 heartbeat IPC: 2.934 cumulative IPC: 2.841 (Simulation time: 01 hr 31 min 28 sec)
Heartbeat CPU 2 instructions: 240000002 cycles: 127298868 heartbeat IPC: 1.954 cumulative IPC: 1.665 (Simulation time: 01 hr 33 min 28 sec)
Heartbeat CPU 1 instructions: 200000004 cycles: 128214267 heartbeat IPC: 1.462 cumulative IPC: 1.289 (Simulation time: 01 hr 34 min 12 sec)
Heartbeat CPU 0 instructions: 380000001 cycles: 128403545 heartbeat IPC: 2.917 cumulative IPC: 2.843 (Simulation time: 01 hr 34 min 21 sec)
Heartbeat CPU 3 instructions: 300000000 cycles: 128634616 heartbeat IPC: 2.163 cumulative IPC: 2.142 (Simulation time: 01 hr 34 min 32 sec)
Simulation finished CPU 1 instructions: 150000001 cycles: 116384294 cumulative IPC: 1.289 (Simulation time: 01 hr 35 min 16 sec)
Simulation complete CPU 0 instructions: 330802711 cycles: 116384294 cumulative IPC: 2.842 (Simulation time: 01 hr 35 min 16 sec)
Simulation complete CPU 1 instructions: 150000001 cycles: 116384294 cumulative IPC: 1.289 (Simulation time: 01 hr 35 min 16 sec)
Simulation complete CPU 2 instructions: 193280268 cycles: 116384294 cumulative IPC: 1.661 (Simulation time: 01 hr 35 min 16 sec)
Simulation complete CPU 3 instructions: 249336417 cycles: 116384294 cumulative IPC: 2.142 (Simulation time: 01 hr 35 min 16 sec)

ChampSim completed all CPUs

=== Simulation ===
CPU 0 runs /home/das/dpc3_traces/654.roms_s-842B.champsimtrace.xzCPU 1 runs /home/das/dpc3_traces/627.cam4_s-573B.champsimtrace.xzCPU 2 runs /home/das/dpc3_traces/628.pop2_s-17B.champsimtrace.xzCPU 3 runs /home/das/dpc3_traces/621.wrf_s-575B.champsimtrace.xz
Total Simulation Statistics (not including warmup)

CPU 0 cumulative IPC: 2.842 instructions: 330802711 cycles: 116384294
CPU 0 Branch Prediction Accuracy: 95.14% MPKI: 8.036 Average ROB Occupancy at Mispredict: 78.67
Branch type MPKI
BRANCH_DIRECT_JUMP: 0.158
BRANCH_INDIRECT: 0
BRANCH_CONDITIONAL: 6.76
BRANCH_DIRECT_CALL: 0
BRANCH_INDIRECT_CALL: 0
BRANCH_RETURN: 1.12


CPU 1 cumulative IPC: 1.289 instructions: 150000001 cycles: 116384294
CPU 1 Branch Prediction Accuracy: 94.56% MPKI: 7.708 Average ROB Occupancy at Mispredict: 61.2
Branch type MPKI
BRANCH_DIRECT_JUMP: 0.00711
BRANCH_INDIRECT: 0.00237
BRANCH_CONDITIONAL: 7.05
BRANCH_DIRECT_CALL: 0.0271
BRANCH_INDIRECT_CALL: 0
BRANCH_RETURN: 0.627


CPU 2 cumulative IPC: 1.661 instructions: 193280268 cycles: 116384294
CPU 2 Branch Prediction Accuracy: 97.7% MPKI: 3.54 Average ROB Occupancy at Mispredict: 102.4
Branch type MPKI
BRANCH_DIRECT_JUMP: 0.0313
BRANCH_INDIRECT: 0.000864
BRANCH_CONDITIONAL: 3.48
BRANCH_DIRECT_CALL: 0.00143
BRANCH_INDIRECT_CALL: 0
BRANCH_RETURN: 0.0315


CPU 3 cumulative IPC: 2.142 instructions: 249336417 cycles: 116384294
CPU 3 Branch Prediction Accuracy: 94.91% MPKI: 6.807 Average ROB Occupancy at Mispredict: 78.97
Branch type MPKI
BRANCH_DIRECT_JUMP: 0
BRANCH_INDIRECT: 0
BRANCH_CONDITIONAL: 6.79
BRANCH_DIRECT_CALL: 0
BRANCH_INDIRECT_CALL: 0
BRANCH_RETURN: 0.0164

LLC TOTAL        ACCESS:      64573 HIT:       3524 MISS:      61049
LLC LOAD         ACCESS:       1752 HIT:         10 MISS:       1742
LLC RFO          ACCESS:      16584 HIT:         88 MISS:      16496
LLC PREFETCH     ACCESS:      28965 HIT:       1075 MISS:      27890
LLC WRITE        ACCESS:      17167 HIT:       2351 MISS:      14816
LLC TRANSLATION  ACCESS:        105 HIT:          0 MISS:        105
LLC PREFETCH REQUESTED:          0 ISSUED:          0 USEFUL:          0 USELESS:          0
LLC AVERAGE MISS LATENCY: 2034 cycles
LLC TOTAL        ACCESS:    1216880 HIT:     613582 MISS:     603298
LLC LOAD         ACCESS:     100311 HIT:      32894 MISS:      67417
LLC RFO          ACCESS:     524825 HIT:      19452 MISS:     505373
LLC PREFETCH     ACCESS:      54339 HIT:      27834 MISS:      26505
LLC WRITE        ACCESS:     534719 HIT:     533044 MISS:       1675
LLC TRANSLATION  ACCESS:       2686 HIT:        358 MISS:       2328
LLC PREFETCH REQUESTED:          0 ISSUED:          0 USEFUL:          0 USELESS:          0
LLC AVERAGE MISS LATENCY: 2034 cycles
LLC TOTAL        ACCESS:    2046308 HIT:    1417611 MISS:     628697
LLC LOAD         ACCESS:     605906 HIT:     449517 MISS:     156389
LLC RFO          ACCESS:     397444 HIT:     174643 MISS:     222801
LLC PREFETCH     ACCESS:     454160 HIT:     210177 MISS:     243983
LLC WRITE        ACCESS:     582732 HIT:     581112 MISS:       1620
LLC TRANSLATION  ACCESS:       6066 HIT:       2162 MISS:       3904
LLC PREFETCH REQUESTED:          0 ISSUED:          0 USEFUL:          0 USELESS:          0
LLC AVERAGE MISS LATENCY: 2034 cycles
LLC TOTAL        ACCESS:       7935 HIT:        157 MISS:       7778
LLC LOAD         ACCESS:       1339 HIT:         12 MISS:       1327
LLC RFO          ACCESS:       3980 HIT:        117 MISS:       3863
LLC PREFETCH     ACCESS:       1583 HIT:         20 MISS:       1563
LLC WRITE        ACCESS:        874 HIT:          2 MISS:        872
LLC TRANSLATION  ACCESS:        159 HIT:          6 MISS:        153
LLC PREFETCH REQUESTED:          0 ISSUED:          0 USEFUL:          0 USELESS:          0
LLC AVERAGE MISS LATENCY: 2034 cycles
cpu0_DTLB TOTAL        ACCESS:   40834748 HIT:   40830538 MISS:       4210
cpu0_DTLB LOAD         ACCESS:   40834748 HIT:   40830538 MISS:       4210
cpu0_DTLB RFO          ACCESS:          0 HIT:          0 MISS:          0
cpu0_DTLB PREFETCH     ACCESS:          0 HIT:          0 MISS:          0
cpu0_DTLB WRITE        ACCESS:          0 HIT:          0 MISS:          0
cpu0_DTLB TRANSLATION  ACCESS:          0 HIT:          0 MISS:          0
cpu0_DTLB PREFETCH REQUESTED:          0 ISSUED:          0 USEFUL:          0 USELESS:          0
cpu0_DTLB AVERAGE MISS LATENCY: 90.71 cycles
cpu0_DTLB TOTAL        ACCESS:          0 HIT:          0 MISS:          0
cpu0_DTLB LOAD         ACCESS:          0 HIT:          0 MISS:          0
cpu0_DTLB RFO          ACCESS:          0 HIT:          0 MISS:          0
cpu0_DTLB PREFETCH     ACCESS:          0 HIT:          0 MISS:          0
cpu0_DTLB WRITE        ACCESS:          0 HIT:          0 MISS:          0
cpu0_DTLB TRANSLATION  ACCESS:          0 HIT:          0 MISS:          0
cpu0_DTLB PREFETCH REQUESTED:          0 ISSUED:          0 USEFUL:          0 USELESS:          0
cpu0_DTLB AVERAGE MISS LATENCY: 90.71 cycles
cpu0_DTLB TOTAL        ACCESS:          0 HIT:          0 MISS:          0
cpu0_DTLB LOAD         ACCESS:          0 HIT:          0 MISS:          0
cpu0_DTLB RFO          ACCESS:          0 HIT:          0 MISS:          0
cpu0_DTLB PREFETCH     ACCESS:          0 HIT:          0 MISS:          0
cpu0_DTLB WRITE        ACCESS:          0 HIT:          0 MISS:          0
cpu0_DTLB TRANSLATION  ACCESS:          0 HIT:          0 MISS:          0
cpu0_DTLB PREFETCH REQUESTED:          0 ISSUED:          0 USEFUL:          0 USELESS:          0
cpu0_DTLB AVERAGE MISS LATENCY: 90.71 cycles
cpu0_DTLB TOTAL        ACCESS:          0 HIT:          0 MISS:          0
cpu0_DTLB LOAD         ACCESS:          0 HIT:          0 MISS:          0
cpu0_DTLB RFO          ACCESS:          0 HIT:          0 MISS:          0
cpu0_DTLB PREFETCH     ACCESS:          0 HIT:          0 MISS:          0
cpu0_DTLB WRITE        ACCESS:          0 HIT:          0 MISS:          0
cpu0_DTLB TRANSLATION  ACCESS:          0 HIT:          0 MISS:          0
cpu0_DTLB PREFETCH REQUESTED:          0 ISSUED:          0 USEFUL:          0 USELESS:          0
cpu0_DTLB AVERAGE MISS LATENCY: 90.71 cycles
cpu0_ITLB TOTAL        ACCESS:    3273076 HIT:    3273076 MISS:          0
cpu0_ITLB LOAD         ACCESS:    3273076 HIT:    3273076 MISS:          0
cpu0_ITLB RFO          ACCESS:          0 HIT:          0 MISS:          0
cpu0_ITLB PREFETCH     ACCESS:          0 HIT:          0 MISS:          0
cpu0_ITLB WRITE        ACCESS:          0 HIT:          0 MISS:          0
cpu0_ITLB TRANSLATION  ACCESS:          0 HIT:          0 MISS:          0
cpu0_ITLB PREFETCH REQUESTED:          0 ISSUED:          0 USEFUL:          0 USELESS:          0
cpu0_ITLB AVERAGE MISS LATENCY: -nan cycles
cpu0_ITLB TOTAL        ACCESS:          0 HIT:          0 MISS:          0
cpu0_ITLB LOAD         ACCESS:          0 HIT:          0 MISS:          0
cpu0_ITLB RFO          ACCESS:          0 HIT:          0 MISS:          0
cpu0_ITLB PREFETCH     ACCESS:          0 HIT:          0 MISS:          0
cpu0_ITLB WRITE        ACCESS:          0 HIT:          0 MISS:          0
cpu0_ITLB TRANSLATION  ACCESS:          0 HIT:          0 MISS:          0
cpu0_ITLB PREFETCH REQUESTED:          0 ISSUED:          0 USEFUL:          0 USELESS:          0
cpu0_ITLB AVERAGE MISS LATENCY: -nan cycles
cpu0_ITLB TOTAL        ACCESS:          0 HIT:          0 MISS:          0
cpu0_ITLB LOAD         ACCESS:          0 HIT:          0 MISS:          0
cpu0_ITLB RFO          ACCESS:          0 HIT:          0 MISS:          0
cpu0_ITLB PREFETCH     ACCESS:          0 HIT:          0 MISS:          0
cpu0_ITLB WRITE        ACCESS:          0 HIT:          0 MISS:          0
cpu0_ITLB TRANSLATION  ACCESS:          0 HIT:          0 MISS:          0
cpu0_ITLB PREFETCH REQUESTED:          0 ISSUED:          0 USEFUL:          0 USELESS:          0
cpu0_ITLB AVERAGE MISS LATENCY: -nan cycles
cpu0_ITLB TOTAL        ACCESS:          0 HIT:          0 MISS:          0
cpu0_ITLB LOAD         ACCESS:          0 HIT:          0 MISS:          0
cpu0_ITLB RFO          ACCESS:          0 HIT:          0 MISS:          0
cpu0_ITLB PREFETCH     ACCESS:          0 HIT:          0 MISS:          0
cpu0_ITLB WRITE        ACCESS:          0 HIT:          0 MISS:          0
cpu0_ITLB TRANSLATION  ACCESS:          0 HIT:          0 MISS:          0
cpu0_ITLB PREFETCH REQUESTED:          0 ISSUED:          0 USEFUL:          0 USELESS:          0
cpu0_ITLB AVERAGE MISS LATENCY: -nan cycles
cpu0_L1D TOTAL        ACCESS:   57498406 HIT:   57142857 MISS:     355549
cpu0_L1D LOAD         ACCESS:   32054075 HIT:   32044789 MISS:       9286
cpu0_L1D RFO          ACCESS:          0 HIT:          0 MISS:          0
cpu0_L1D PREFETCH     ACCESS:    1363038 HIT:    1111399 MISS:     251639
cpu0_L1D WRITE        ACCESS:   24080390 HIT:   23985881 MISS:      94509
cpu0_L1D TRANSLATION  ACCESS:        903 HIT:        788 MISS:        115
cpu0_L1D PREFETCH REQUESTED:    1588312 ISSUED:    1363038 USEFUL:      21127 USELESS:       3336
cpu0_L1D AVERAGE MISS LATENCY: 229.9 cycles
cpu0_L1D TOTAL        ACCESS:          0 HIT:          0 MISS:          0
cpu0_L1D LOAD         ACCESS:          0 HIT:          0 MISS:          0
cpu0_L1D RFO          ACCESS:          0 HIT:          0 MISS:          0
cpu0_L1D PREFETCH     ACCESS:          0 HIT:          0 MISS:          0
cpu0_L1D WRITE        ACCESS:          0 HIT:          0 MISS:          0
cpu0_L1D TRANSLATION  ACCESS:          0 HIT:          0 MISS:          0
cpu0_L1D PREFETCH REQUESTED:    1588312 ISSUED:    1363038 USEFUL:      21127 USELESS:       3336
cpu0_L1D AVERAGE MISS LATENCY: 229.9 cycles
cpu0_L1D TOTAL        ACCESS:          0 HIT:          0 MISS:          0
cpu0_L1D LOAD         ACCESS:          0 HIT:          0 MISS:          0
cpu0_L1D RFO          ACCESS:          0 HIT:          0 MISS:          0
cpu0_L1D PREFETCH     ACCESS:          0 HIT:          0 MISS:          0
cpu0_L1D WRITE        ACCESS:          0 HIT:          0 MISS:          0
cpu0_L1D TRANSLATION  ACCESS:          0 HIT:          0 MISS:          0
cpu0_L1D PREFETCH REQUESTED:    1588312 ISSUED:    1363038 USEFUL:      21127 USELESS:       3336
cpu0_L1D AVERAGE MISS LATENCY: 229.9 cycles
cpu0_L1D TOTAL        ACCESS:          0 HIT:          0 MISS:          0
cpu0_L1D LOAD         ACCESS:          0 HIT:          0 MISS:          0
cpu0_L1D RFO          ACCESS:          0 HIT:          0 MISS:          0
cpu0_L1D PREFETCH     ACCESS:          0 HIT:          0 MISS:          0
cpu0_L1D WRITE        ACCESS:          0 HIT:          0 MISS:          0
cpu0_L1D TRANSLATION  ACCESS:          0 HIT:          0 MISS:          0
cpu0_L1D PREFETCH REQUESTED:    1588312 ISSUED:    1363038 USEFUL:      21127 USELESS:       3336
cpu0_L1D AVERAGE MISS LATENCY: 229.9 cycles
cpu0_L1I TOTAL        ACCESS:    3882722 HIT:    3882722 MISS:          0
cpu0_L1I LOAD         ACCESS:    3882722 HIT:    3882722 MISS:          0
cpu0_L1I RFO          ACCESS:          0 HIT:          0 MISS:          0
cpu0_L1I PREFETCH     ACCESS:          0 HIT:          0 MISS:          0
cpu0_L1I WRITE        ACCESS:          0 HIT:          0 MISS:          0
cpu0_L1I TRANSLATION  ACCESS:          0 HIT:          0 MISS:          0
cpu0_L1I PREFETCH REQUESTED:          0 ISSUED:          0 USEFUL:          0 USELESS:          0
cpu0_L1I AVERAGE MISS LATENCY: -nan cycles
cpu0_L1I TOTAL        ACCESS:          0 HIT:          0 MISS:          0
cpu0_L1I LOAD         ACCESS:          0 HIT:          0 MISS:          0
cpu0_L1I RFO          ACCESS:          0 HIT:          0 MISS:          0
cpu0_L1I PREFETCH     ACCESS:          0 HIT:          0 MISS:          0
cpu0_L1I WRITE        ACCESS:          0 HIT:          0 MISS:          0
cpu0_L1I TRANSLATION  ACCESS:          0 HIT:          0 MISS:          0
cpu0_L1I PREFETCH REQUESTED:          0 ISSUED:          0 USEFUL:          0 USELESS:          0
cpu0_L1I AVERAGE MISS LATENCY: -nan cycles
cpu0_L1I TOTAL        ACCESS:          0 HIT:          0 MISS:          0
cpu0_L1I LOAD         ACCESS:          0 HIT:          0 MISS:          0
cpu0_L1I RFO          ACCESS:          0 HIT:          0 MISS:          0
cpu0_L1I PREFETCH     ACCESS:          0 HIT:          0 MISS:          0
cpu0_L1I WRITE        ACCESS:          0 HIT:          0 MISS:          0
cpu0_L1I TRANSLATION  ACCESS:          0 HIT:          0 MISS:          0
cpu0_L1I PREFETCH REQUESTED:          0 ISSUED:          0 USEFUL:          0 USELESS:          0
cpu0_L1I AVERAGE MISS LATENCY: -nan cycles
cpu0_L1I TOTAL        ACCESS:          0 HIT:          0 MISS:          0
cpu0_L1I LOAD         ACCESS:          0 HIT:          0 MISS:          0
cpu0_L1I RFO          ACCESS:          0 HIT:          0 MISS:          0
cpu0_L1I PREFETCH     ACCESS:          0 HIT:          0 MISS:          0
cpu0_L1I WRITE        ACCESS:          0 HIT:          0 MISS:          0
cpu0_L1I TRANSLATION  ACCESS:          0 HIT:          0 MISS:          0
cpu0_L1I PREFETCH REQUESTED:          0 ISSUED:          0 USEFUL:          0 USELESS:          0
cpu0_L1I AVERAGE MISS LATENCY: -nan cycles
cpu0_L2C TOTAL        ACCESS:     289102 HIT:     140939 MISS:     148163
cpu0_L2C LOAD         ACCESS:       4517 HIT:       2268 MISS:       2249
cpu0_L2C RFO          ACCESS:      17494 HIT:        908 MISS:      16586
cpu0_L2C PREFETCH     ACCESS:     249360 HIT:     120142 MISS:     129218
cpu0_L2C WRITE        ACCESS:      17616 HIT:      17611 MISS:          5
cpu0_L2C TRANSLATION  ACCESS:        115 HIT:         10 MISS:        105
cpu0_L2C PREFETCH REQUESTED:          0 ISSUED:          0 USEFUL:          0 USELESS:          0
cpu0_L2C AVERAGE MISS LATENCY: 840.6 cycles
cpu0_L2C TOTAL        ACCESS:          0 HIT:          0 MISS:          0
cpu0_L2C LOAD         ACCESS:          0 HIT:          0 MISS:          0
cpu0_L2C RFO          ACCESS:          0 HIT:          0 MISS:          0
cpu0_L2C PREFETCH     ACCESS:          0 HIT:          0 MISS:          0
cpu0_L2C WRITE        ACCESS:          0 HIT:          0 MISS:          0
cpu0_L2C TRANSLATION  ACCESS:          0 HIT:          0 MISS:          0
cpu0_L2C PREFETCH REQUESTED:          0 ISSUED:          0 USEFUL:          0 USELESS:          0
cpu0_L2C AVERAGE MISS LATENCY: 840.6 cycles
cpu0_L2C TOTAL        ACCESS:          0 HIT:          0 MISS:          0
cpu0_L2C LOAD         ACCESS:          0 HIT:          0 MISS:          0
cpu0_L2C RFO          ACCESS:          0 HIT:          0 MISS:          0
cpu0_L2C PREFETCH     ACCESS:          0 HIT:          0 MISS:          0
cpu0_L2C WRITE        ACCESS:          0 HIT:          0 MISS:          0
cpu0_L2C TRANSLATION  ACCESS:          0 HIT:          0 MISS:          0
cpu0_L2C PREFETCH REQUESTED:          0 ISSUED:          0 USEFUL:          0 USELESS:          0
cpu0_L2C AVERAGE MISS LATENCY: 840.6 cycles
cpu0_L2C TOTAL        ACCESS:          0 HIT:          0 MISS:          0
cpu0_L2C LOAD         ACCESS:          0 HIT:          0 MISS:          0
cpu0_L2C RFO          ACCESS:          0 HIT:          0 MISS:          0
cpu0_L2C PREFETCH     ACCESS:          0 HIT:          0 MISS:          0
cpu0_L2C WRITE        ACCESS:          0 HIT:          0 MISS:          0
cpu0_L2C TRANSLATION  ACCESS:          0 HIT:          0 MISS:          0
cpu0_L2C PREFETCH REQUESTED:          0 ISSUED:          0 USEFUL:          0 USELESS:          0
cpu0_L2C AVERAGE MISS LATENCY: 840.6 cycles
cpu0_STLB TOTAL        ACCESS:        978 HIT:         77 MISS:        901
cpu0_STLB LOAD         ACCESS:        978 HIT:         77 MISS:        901
cpu0_STLB RFO          ACCESS:          0 HIT:          0 MISS:          0
cpu0_STLB PREFETCH     ACCESS:          0 HIT:          0 MISS:          0
cpu0_STLB WRITE        ACCESS:          0 HIT:          0 MISS:          0
cpu0_STLB TRANSLATION  ACCESS:          0 HIT:          0 MISS:          0
cpu0_STLB PREFETCH REQUESTED:          0 ISSUED:          0 USEFUL:          0 USELESS:          0
cpu0_STLB AVERAGE MISS LATENCY: 484 cycles
cpu0_STLB TOTAL        ACCESS:          0 HIT:          0 MISS:          0
cpu0_STLB LOAD         ACCESS:          0 HIT:          0 MISS:          0
cpu0_STLB RFO          ACCESS:          0 HIT:          0 MISS:          0
cpu0_STLB PREFETCH     ACCESS:          0 HIT:          0 MISS:          0
cpu0_STLB WRITE        ACCESS:          0 HIT:          0 MISS:          0
cpu0_STLB TRANSLATION  ACCESS:          0 HIT:          0 MISS:          0
cpu0_STLB PREFETCH REQUESTED:          0 ISSUED:          0 USEFUL:          0 USELESS:          0
cpu0_STLB AVERAGE MISS LATENCY: 484 cycles
cpu0_STLB TOTAL        ACCESS:          0 HIT:          0 MISS:          0
cpu0_STLB LOAD         ACCESS:          0 HIT:          0 MISS:          0
cpu0_STLB RFO          ACCESS:          0 HIT:          0 MISS:          0
cpu0_STLB PREFETCH     ACCESS:          0 HIT:          0 MISS:          0
cpu0_STLB WRITE        ACCESS:          0 HIT:          0 MISS:          0
cpu0_STLB TRANSLATION  ACCESS:          0 HIT:          0 MISS:          0
cpu0_STLB PREFETCH REQUESTED:          0 ISSUED:          0 USEFUL:          0 USELESS:          0
cpu0_STLB AVERAGE MISS LATENCY: 484 cycles
cpu0_STLB TOTAL        ACCESS:          0 HIT:          0 MISS:          0
cpu0_STLB LOAD         ACCESS:          0 HIT:          0 MISS:          0
cpu0_STLB RFO          ACCESS:          0 HIT:          0 MISS:          0
cpu0_STLB PREFETCH     ACCESS:          0 HIT:          0 MISS:          0
cpu0_STLB WRITE        ACCESS:          0 HIT:          0 MISS:          0
cpu0_STLB TRANSLATION  ACCESS:          0 HIT:          0 MISS:          0
cpu0_STLB PREFETCH REQUESTED:          0 ISSUED:          0 USEFUL:          0 USELESS:          0
cpu0_STLB AVERAGE MISS LATENCY: 484 cycles
cpu1_DTLB TOTAL        ACCESS:          0 HIT:          0 MISS:          0
cpu1_DTLB LOAD         ACCESS:          0 HIT:          0 MISS:          0
cpu1_DTLB RFO          ACCESS:          0 HIT:          0 MISS:          0
cpu1_DTLB PREFETCH     ACCESS:          0 HIT:          0 MISS:          0
cpu1_DTLB WRITE        ACCESS:          0 HIT:          0 MISS:          0
cpu1_DTLB TRANSLATION  ACCESS:          0 HIT:          0 MISS:          0
cpu1_DTLB PREFETCH REQUESTED:          0 ISSUED:          0 USEFUL:          0 USELESS:          0
cpu1_DTLB AVERAGE MISS LATENCY: 10.17 cycles
cpu1_DTLB TOTAL        ACCESS:   22270906 HIT:   22016897 MISS:     254009
cpu1_DTLB LOAD         ACCESS:   22270906 HIT:   22016897 MISS:     254009
cpu1_DTLB RFO          ACCESS:          0 HIT:          0 MISS:          0
cpu1_DTLB PREFETCH     ACCESS:          0 HIT:          0 MISS:          0
cpu1_DTLB WRITE        ACCESS:          0 HIT:          0 MISS:          0
cpu1_DTLB TRANSLATION  ACCESS:          0 HIT:          0 MISS:          0
cpu1_DTLB PREFETCH REQUESTED:          0 ISSUED:          0 USEFUL:          0 USELESS:          0
cpu1_DTLB AVERAGE MISS LATENCY: 10.17 cycles
cpu1_DTLB TOTAL        ACCESS:          0 HIT:          0 MISS:          0
cpu1_DTLB LOAD         ACCESS:          0 HIT:          0 MISS:          0
cpu1_DTLB RFO          ACCESS:          0 HIT:          0 MISS:          0
cpu1_DTLB PREFETCH     ACCESS:          0 HIT:          0 MISS:          0
cpu1_DTLB WRITE        ACCESS:          0 HIT:          0 MISS:          0
cpu1_DTLB TRANSLATION  ACCESS:          0 HIT:          0 MISS:          0
cpu1_DTLB PREFETCH REQUESTED:          0 ISSUED:          0 USEFUL:          0 USELESS:          0
cpu1_DTLB AVERAGE MISS LATENCY: 10.17 cycles
cpu1_DTLB TOTAL        ACCESS:          0 HIT:          0 MISS:          0
cpu1_DTLB LOAD         ACCESS:          0 HIT:          0 MISS:          0
cpu1_DTLB RFO          ACCESS:          0 HIT:          0 MISS:          0
cpu1_DTLB PREFETCH     ACCESS:          0 HIT:          0 MISS:          0
cpu1_DTLB WRITE        ACCESS:          0 HIT:          0 MISS:          0
cpu1_DTLB TRANSLATION  ACCESS:          0 HIT:          0 MISS:          0
cpu1_DTLB PREFETCH REQUESTED:          0 ISSUED:          0 USEFUL:          0 USELESS:          0
cpu1_DTLB AVERAGE MISS LATENCY: 10.17 cycles
cpu1_ITLB TOTAL        ACCESS:          0 HIT:          0 MISS:          0
cpu1_ITLB LOAD         ACCESS:          0 HIT:          0 MISS:          0
cpu1_ITLB RFO          ACCESS:          0 HIT:          0 MISS:          0
cpu1_ITLB PREFETCH     ACCESS:          0 HIT:          0 MISS:          0
cpu1_ITLB WRITE        ACCESS:          0 HIT:          0 MISS:          0
cpu1_ITLB TRANSLATION  ACCESS:          0 HIT:          0 MISS:          0
cpu1_ITLB PREFETCH REQUESTED:          0 ISSUED:          0 USEFUL:          0 USELESS:          0
cpu1_ITLB AVERAGE MISS LATENCY: 71.86 cycles
cpu1_ITLB TOTAL        ACCESS:    2820215 HIT:    2816923 MISS:       3292
cpu1_ITLB LOAD         ACCESS:    2820215 HIT:    2816923 MISS:       3292
cpu1_ITLB RFO          ACCESS:          0 HIT:          0 MISS:          0
cpu1_ITLB PREFETCH     ACCESS:          0 HIT:          0 MISS:          0
cpu1_ITLB WRITE        ACCESS:          0 HIT:          0 MISS:          0
cpu1_ITLB TRANSLATION  ACCESS:          0 HIT:          0 MISS:          0
cpu1_ITLB PREFETCH REQUESTED:          0 ISSUED:          0 USEFUL:          0 USELESS:          0
cpu1_ITLB AVERAGE MISS LATENCY: 71.86 cycles
cpu1_ITLB TOTAL        ACCESS:          0 HIT:          0 MISS:          0
cpu1_ITLB LOAD         ACCESS:          0 HIT:          0 MISS:          0
cpu1_ITLB RFO          ACCESS:          0 HIT:          0 MISS:          0
cpu1_ITLB PREFETCH     ACCESS:          0 HIT:          0 MISS:          0
cpu1_ITLB WRITE        ACCESS:          0 HIT:          0 MISS:          0
cpu1_ITLB TRANSLATION  ACCESS:          0 HIT:          0 MISS:          0
cpu1_ITLB PREFETCH REQUESTED:          0 ISSUED:          0 USEFUL:          0 USELESS:          0
cpu1_ITLB AVERAGE MISS LATENCY: 71.86 cycles
cpu1_ITLB TOTAL        ACCESS:          0 HIT:          0 MISS:          0
cpu1_ITLB LOAD         ACCESS:          0 HIT:          0 MISS:          0
cpu1_ITLB RFO          ACCESS:          0 HIT:          0 MISS:          0
cpu1_ITLB PREFETCH     ACCESS:          0 HIT:          0 MISS:          0
cpu1_ITLB WRITE        ACCESS:          0 HIT:          0 MISS:          0
cpu1_ITLB TRANSLATION  ACCESS:          0 HIT:          0 MISS:          0
cpu1_ITLB PREFETCH REQUESTED:          0 ISSUED:          0 USEFUL:          0 USELESS:          0
cpu1_ITLB AVERAGE MISS LATENCY: 71.86 cycles
cpu1_L1D TOTAL        ACCESS:          0 HIT:          0 MISS:          0
cpu1_L1D LOAD         ACCESS:          0 HIT:          0 MISS:          0
cpu1_L1D RFO          ACCESS:          0 HIT:          0 MISS:          0
cpu1_L1D PREFETCH     ACCESS:          0 HIT:          0 MISS:          0
cpu1_L1D WRITE        ACCESS:          0 HIT:          0 MISS:          0
cpu1_L1D TRANSLATION  ACCESS:          0 HIT:          0 MISS:          0
cpu1_L1D PREFETCH REQUESTED:   12648471 ISSUED:    2827106 USEFUL:     111914 USELESS:      45456
cpu1_L1D AVERAGE MISS LATENCY: 364.8 cycles
cpu1_L1D TOTAL        ACCESS:   32082954 HIT:   27865338 MISS:    4217616
cpu1_L1D LOAD         ACCESS:   15118842 HIT:   14514329 MISS:     604513
cpu1_L1D RFO          ACCESS:          0 HIT:          0 MISS:          0
cpu1_L1D PREFETCH     ACCESS:    2827093 HIT:    2134119 MISS:     692974
cpu1_L1D WRITE        ACCESS:   14125007 HIT:   11208620 MISS:    2916387
cpu1_L1D TRANSLATION  ACCESS:      12012 HIT:       8270 MISS:       3742
cpu1_L1D PREFETCH REQUESTED:   12648471 ISSUED:    2827106 USEFUL:     111914 USELESS:      45456
cpu1_L1D AVERAGE MISS LATENCY: 364.8 cycles
cpu1_L1D TOTAL        ACCESS:          0 HIT:          0 MISS:          0
cpu1_L1D LOAD         ACCESS:          0 HIT:          0 MISS:          0
cpu1_L1D RFO          ACCESS:          0 HIT:          0 MISS:          0
cpu1_L1D PREFETCH     ACCESS:          0 HIT:          0 MISS:          0
cpu1_L1D WRITE        ACCESS:          0 HIT:          0 MISS:          0
cpu1_L1D TRANSLATION  ACCESS:          0 HIT:          0 MISS:          0
cpu1_L1D PREFETCH REQUESTED:   12648471 ISSUED:    2827106 USEFUL:     111914 USELESS:      45456
cpu1_L1D AVERAGE MISS LATENCY: 364.8 cycles
cpu1_L1D TOTAL        ACCESS:          0 HIT:          0 MISS:          0
cpu1_L1D LOAD         ACCESS:          0 HIT:          0 MISS:          0
cpu1_L1D RFO          ACCESS:          0 HIT:          0 MISS:          0
cpu1_L1D PREFETCH     ACCESS:          0 HIT:          0 MISS:          0
cpu1_L1D WRITE        ACCESS:          0 HIT:          0 MISS:          0
cpu1_L1D TRANSLATION  ACCESS:          0 HIT:          0 MISS:          0
cpu1_L1D PREFETCH REQUESTED:   12648471 ISSUED:    2827106 USEFUL:     111914 USELESS:      45456
cpu1_L1D AVERAGE MISS LATENCY: 364.8 cycles
cpu1_L1I TOTAL        ACCESS:          0 HIT:          0 MISS:          0
cpu1_L1I LOAD         ACCESS:          0 HIT:          0 MISS:          0
cpu1_L1I RFO          ACCESS:          0 HIT:          0 MISS:          0
cpu1_L1I PREFETCH     ACCESS:          0 HIT:          0 MISS:          0
cpu1_L1I WRITE        ACCESS:          0 HIT:          0 MISS:          0
cpu1_L1I TRANSLATION  ACCESS:          0 HIT:          0 MISS:          0
cpu1_L1I PREFETCH REQUESTED:          0 ISSUED:          0 USEFUL:          0 USELESS:          0
cpu1_L1I AVERAGE MISS LATENCY: 129.6 cycles
cpu1_L1I TOTAL        ACCESS:    3619841 HIT:    3545954 MISS:      73887
cpu1_L1I LOAD         ACCESS:    3619841 HIT:    3545954 MISS:      73887
cpu1_L1I RFO          ACCESS:          0 HIT:          0 MISS:          0
cpu1_L1I PREFETCH     ACCESS:          0 HIT:          0 MISS:          0
cpu1_L1I WRITE        ACCESS:          0 HIT:          0 MISS:          0
cpu1_L1I TRANSLATION  ACCESS:          0 HIT:          0 MISS:          0
cpu1_L1I PREFETCH REQUESTED:          0 ISSUED:          0 USEFUL:          0 USELESS:          0
cpu1_L1I AVERAGE MISS LATENCY: 129.6 cycles
cpu1_L1I TOTAL        ACCESS:          0 HIT:          0 MISS:          0
cpu1_L1I LOAD         ACCESS:          0 HIT:          0 MISS:          0
cpu1_L1I RFO          ACCESS:          0 HIT:          0 MISS:          0
cpu1_L1I PREFETCH     ACCESS:          0 HIT:          0 MISS:          0
cpu1_L1I WRITE        ACCESS:          0 HIT:          0 MISS:          0
cpu1_L1I TRANSLATION  ACCESS:          0 HIT:          0 MISS:          0
cpu1_L1I PREFETCH REQUESTED:          0 ISSUED:          0 USEFUL:          0 USELESS:          0
cpu1_L1I AVERAGE MISS LATENCY: 129.6 cycles
cpu1_L1I TOTAL        ACCESS:          0 HIT:          0 MISS:          0
cpu1_L1I LOAD         ACCESS:          0 HIT:          0 MISS:          0
cpu1_L1I RFO          ACCESS:          0 HIT:          0 MISS:          0
cpu1_L1I PREFETCH     ACCESS:          0 HIT:          0 MISS:          0
cpu1_L1I WRITE        ACCESS:          0 HIT:          0 MISS:          0
cpu1_L1I TRANSLATION  ACCESS:          0 HIT:          0 MISS:          0
cpu1_L1I PREFETCH REQUESTED:          0 ISSUED:          0 USEFUL:          0 USELESS:          0
cpu1_L1I AVERAGE MISS LATENCY: 129.6 cycles
cpu1_L2C TOTAL        ACCESS:          0 HIT:          0 MISS:          0
cpu1_L2C LOAD         ACCESS:          0 HIT:          0 MISS:          0
cpu1_L2C RFO          ACCESS:          0 HIT:          0 MISS:          0
cpu1_L2C PREFETCH     ACCESS:          0 HIT:          0 MISS:          0
cpu1_L2C WRITE        ACCESS:          0 HIT:          0 MISS:          0
cpu1_L2C TRANSLATION  ACCESS:          0 HIT:          0 MISS:          0
cpu1_L2C PREFETCH REQUESTED:          0 ISSUED:          0 USEFUL:          0 USELESS:          0
cpu1_L2C AVERAGE MISS LATENCY: 2170 cycles
cpu1_L2C TOTAL        ACCESS:    2783464 HIT:    2064707 MISS:     718757
cpu1_L2C LOAD         ACCESS:     496429 HIT:     393261 MISS:     103168
cpu1_L2C RFO          ACCESS:     766610 HIT:     241728 MISS:     524882
cpu1_L2C PREFETCH     ACCESS:     673043 HIT:     585107 MISS:      87936
cpu1_L2C WRITE        ACCESS:     843670 HIT:     843585 MISS:         85
cpu1_L2C TRANSLATION  ACCESS:       3712 HIT:       1026 MISS:       2686
cpu1_L2C PREFETCH REQUESTED:          0 ISSUED:          0 USEFUL:          0 USELESS:          0
cpu1_L2C AVERAGE MISS LATENCY: 2170 cycles
cpu1_L2C TOTAL        ACCESS:          0 HIT:          0 MISS:          0
cpu1_L2C LOAD         ACCESS:          0 HIT:          0 MISS:          0
cpu1_L2C RFO          ACCESS:          0 HIT:          0 MISS:          0
cpu1_L2C PREFETCH     ACCESS:          0 HIT:          0 MISS:          0
cpu1_L2C WRITE        ACCESS:          0 HIT:          0 MISS:          0
cpu1_L2C TRANSLATION  ACCESS:          0 HIT:          0 MISS:          0
cpu1_L2C PREFETCH REQUESTED:          0 ISSUED:          0 USEFUL:          0 USELESS:          0
cpu1_L2C AVERAGE MISS LATENCY: 2170 cycles
cpu1_L2C TOTAL        ACCESS:          0 HIT:          0 MISS:          0
cpu1_L2C LOAD         ACCESS:          0 HIT:          0 MISS:          0
cpu1_L2C RFO          ACCESS:          0 HIT:          0 MISS:          0
cpu1_L2C PREFETCH     ACCESS:          0 HIT:          0 MISS:          0
cpu1_L2C WRITE        ACCESS:          0 HIT:          0 MISS:          0
cpu1_L2C TRANSLATION  ACCESS:          0 HIT:          0 MISS:          0
cpu1_L2C PREFETCH REQUESTED:          0 ISSUED:          0 USEFUL:          0 USELESS:          0
cpu1_L2C AVERAGE MISS LATENCY: 2170 cycles
cpu1_STLB TOTAL        ACCESS:          0 HIT:          0 MISS:          0
cpu1_STLB LOAD         ACCESS:          0 HIT:          0 MISS:          0
cpu1_STLB RFO          ACCESS:          0 HIT:          0 MISS:          0
cpu1_STLB PREFETCH     ACCESS:          0 HIT:          0 MISS:          0
cpu1_STLB WRITE        ACCESS:          0 HIT:          0 MISS:          0
cpu1_STLB TRANSLATION  ACCESS:          0 HIT:          0 MISS:          0
cpu1_STLB PREFETCH REQUESTED:          0 ISSUED:          0 USEFUL:          0 USELESS:          0
cpu1_STLB AVERAGE MISS LATENCY: 236.3 cycles
cpu1_STLB TOTAL        ACCESS:     105442 HIT:      93759 MISS:      11683
cpu1_STLB LOAD         ACCESS:     105442 HIT:      93759 MISS:      11683
cpu1_STLB RFO          ACCESS:          0 HIT:          0 MISS:          0
cpu1_STLB PREFETCH     ACCESS:          0 HIT:          0 MISS:          0
cpu1_STLB WRITE        ACCESS:          0 HIT:          0 MISS:          0
cpu1_STLB TRANSLATION  ACCESS:          0 HIT:          0 MISS:          0
cpu1_STLB PREFETCH REQUESTED:          0 ISSUED:          0 USEFUL:          0 USELESS:          0
cpu1_STLB AVERAGE MISS LATENCY: 236.3 cycles
cpu1_STLB TOTAL        ACCESS:          0 HIT:          0 MISS:          0
cpu1_STLB LOAD         ACCESS:          0 HIT:          0 MISS:          0
cpu1_STLB RFO          ACCESS:          0 HIT:          0 MISS:          0
cpu1_STLB PREFETCH     ACCESS:          0 HIT:          0 MISS:          0
cpu1_STLB WRITE        ACCESS:          0 HIT:          0 MISS:          0
cpu1_STLB TRANSLATION  ACCESS:          0 HIT:          0 MISS:          0
cpu1_STLB PREFETCH REQUESTED:          0 ISSUED:          0 USEFUL:          0 USELESS:          0
cpu1_STLB AVERAGE MISS LATENCY: 236.3 cycles
cpu1_STLB TOTAL        ACCESS:          0 HIT:          0 MISS:          0
cpu1_STLB LOAD         ACCESS:          0 HIT:          0 MISS:          0
cpu1_STLB RFO          ACCESS:          0 HIT:          0 MISS:          0
cpu1_STLB PREFETCH     ACCESS:          0 HIT:          0 MISS:          0
cpu1_STLB WRITE        ACCESS:          0 HIT:          0 MISS:          0
cpu1_STLB TRANSLATION  ACCESS:          0 HIT:          0 MISS:          0
cpu1_STLB PREFETCH REQUESTED:          0 ISSUED:          0 USEFUL:          0 USELESS:          0
cpu1_STLB AVERAGE MISS LATENCY: 236.3 cycles
cpu2_DTLB TOTAL        ACCESS:          0 HIT:          0 MISS:          0
cpu2_DTLB LOAD         ACCESS:          0 HIT:          0 MISS:          0
cpu2_DTLB RFO          ACCESS:          0 HIT:          0 MISS:          0
cpu2_DTLB PREFETCH     ACCESS:          0 HIT:          0 MISS:          0
cpu2_DTLB WRITE        ACCESS:          0 HIT:          0 MISS:          0
cpu2_DTLB TRANSLATION  ACCESS:          0 HIT:          0 MISS:          0
cpu2_DTLB PREFETCH REQUESTED:          0 ISSUED:          0 USEFUL:          0 USELESS:          0
cpu2_DTLB AVERAGE MISS LATENCY: 15.1 cycles
cpu2_DTLB TOTAL        ACCESS:          0 HIT:          0 MISS:          0
cpu2_DTLB LOAD         ACCESS:          0 HIT:          0 MISS:          0
cpu2_DTLB RFO          ACCESS:          0 HIT:          0 MISS:          0
cpu2_DTLB PREFETCH     ACCESS:          0 HIT:          0 MISS:          0
cpu2_DTLB WRITE        ACCESS:          0 HIT:          0 MISS:          0
cpu2_DTLB TRANSLATION  ACCESS:          0 HIT:          0 MISS:          0
cpu2_DTLB PREFETCH REQUESTED:          0 ISSUED:          0 USEFUL:          0 USELESS:          0
cpu2_DTLB AVERAGE MISS LATENCY: 15.1 cycles
cpu2_DTLB TOTAL        ACCESS:   26072342 HIT:   25833458 MISS:     238884
cpu2_DTLB LOAD         ACCESS:   26072342 HIT:   25833458 MISS:     238884
cpu2_DTLB RFO          ACCESS:          0 HIT:          0 MISS:          0
cpu2_DTLB PREFETCH     ACCESS:          0 HIT:          0 MISS:          0
cpu2_DTLB WRITE        ACCESS:          0 HIT:          0 MISS:          0
cpu2_DTLB TRANSLATION  ACCESS:          0 HIT:          0 MISS:          0
cpu2_DTLB PREFETCH REQUESTED:          0 ISSUED:          0 USEFUL:          0 USELESS:          0
cpu2_DTLB AVERAGE MISS LATENCY: 15.1 cycles
cpu2_DTLB TOTAL        ACCESS:          0 HIT:          0 MISS:          0
cpu2_DTLB LOAD         ACCESS:          0 HIT:          0 MISS:          0
cpu2_DTLB RFO          ACCESS:          0 HIT:          0 MISS:          0
cpu2_DTLB PREFETCH     ACCESS:          0 HIT:          0 MISS:          0
cpu2_DTLB WRITE        ACCESS:          0 HIT:          0 MISS:          0
cpu2_DTLB TRANSLATION  ACCESS:          0 HIT:          0 MISS:          0
cpu2_DTLB PREFETCH REQUESTED:          0 ISSUED:          0 USEFUL:          0 USELESS:          0
cpu2_DTLB AVERAGE MISS LATENCY: 15.1 cycles
cpu2_ITLB TOTAL        ACCESS:          0 HIT:          0 MISS:          0
cpu2_ITLB LOAD         ACCESS:          0 HIT:          0 MISS:          0
cpu2_ITLB RFO          ACCESS:          0 HIT:          0 MISS:          0
cpu2_ITLB PREFETCH     ACCESS:          0 HIT:          0 MISS:          0
cpu2_ITLB WRITE        ACCESS:          0 HIT:          0 MISS:          0
cpu2_ITLB TRANSLATION  ACCESS:          0 HIT:          0 MISS:          0
cpu2_ITLB PREFETCH REQUESTED:          0 ISSUED:          0 USEFUL:          0 USELESS:          0
cpu2_ITLB AVERAGE MISS LATENCY: 8.665 cycles
cpu2_ITLB TOTAL        ACCESS:          0 HIT:          0 MISS:          0
cpu2_ITLB LOAD         ACCESS:          0 HIT:          0 MISS:          0
cpu2_ITLB RFO          ACCESS:          0 HIT:          0 MISS:          0
cpu2_ITLB PREFETCH     ACCESS:          0 HIT:          0 MISS:          0
cpu2_ITLB WRITE        ACCESS:          0 HIT:          0 MISS:          0
cpu2_ITLB TRANSLATION  ACCESS:          0 HIT:          0 MISS:          0
cpu2_ITLB PREFETCH REQUESTED:          0 ISSUED:          0 USEFUL:          0 USELESS:          0
cpu2_ITLB AVERAGE MISS LATENCY: 8.665 cycles
cpu2_ITLB TOTAL        ACCESS:     426142 HIT:     415527 MISS:      10615
cpu2_ITLB LOAD         ACCESS:     426142 HIT:     415527 MISS:      10615
cpu2_ITLB RFO          ACCESS:          0 HIT:          0 MISS:          0
cpu2_ITLB PREFETCH     ACCESS:          0 HIT:          0 MISS:          0
cpu2_ITLB WRITE        ACCESS:          0 HIT:          0 MISS:          0
cpu2_ITLB TRANSLATION  ACCESS:          0 HIT:          0 MISS:          0
cpu2_ITLB PREFETCH REQUESTED:          0 ISSUED:          0 USEFUL:          0 USELESS:          0
cpu2_ITLB AVERAGE MISS LATENCY: 8.665 cycles
cpu2_ITLB TOTAL        ACCESS:          0 HIT:          0 MISS:          0
cpu2_ITLB LOAD         ACCESS:          0 HIT:          0 MISS:          0
cpu2_ITLB RFO          ACCESS:          0 HIT:          0 MISS:          0
cpu2_ITLB PREFETCH     ACCESS:          0 HIT:          0 MISS:          0
cpu2_ITLB WRITE        ACCESS:          0 HIT:          0 MISS:          0
cpu2_ITLB TRANSLATION  ACCESS:          0 HIT:          0 MISS:          0
cpu2_ITLB PREFETCH REQUESTED:          0 ISSUED:          0 USEFUL:          0 USELESS:          0
cpu2_ITLB AVERAGE MISS LATENCY: 8.665 cycles
cpu2_L1D TOTAL        ACCESS:          0 HIT:          0 MISS:          0
cpu2_L1D LOAD         ACCESS:          0 HIT:          0 MISS:          0
cpu2_L1D RFO          ACCESS:          0 HIT:          0 MISS:          0
cpu2_L1D PREFETCH     ACCESS:          0 HIT:          0 MISS:          0
cpu2_L1D WRITE        ACCESS:          0 HIT:          0 MISS:          0
cpu2_L1D TRANSLATION  ACCESS:          0 HIT:          0 MISS:          0
cpu2_L1D PREFETCH REQUESTED:   53956758 ISSUED:    6400220 USEFUL:     385347 USELESS:     199673
cpu2_L1D AVERAGE MISS LATENCY: 98.76 cycles
cpu2_L1D TOTAL        ACCESS:          0 HIT:          0 MISS:          0
cpu2_L1D LOAD         ACCESS:          0 HIT:          0 MISS:          0
cpu2_L1D RFO          ACCESS:          0 HIT:          0 MISS:          0
cpu2_L1D PREFETCH     ACCESS:          0 HIT:          0 MISS:          0
cpu2_L1D WRITE        ACCESS:          0 HIT:          0 MISS:          0
cpu2_L1D TRANSLATION  ACCESS:          0 HIT:          0 MISS:          0
cpu2_L1D PREFETCH REQUESTED:   53956758 ISSUED:    6400220 USEFUL:     385347 USELESS:     199673
cpu2_L1D AVERAGE MISS LATENCY: 98.76 cycles
cpu2_L1D TOTAL        ACCESS:   38617355 HIT:   30321024 MISS:    8296331
cpu2_L1D LOAD         ACCESS:   19279075 HIT:   16762659 MISS:    2516416
cpu2_L1D RFO          ACCESS:          0 HIT:          0 MISS:          0
cpu2_L1D PREFETCH     ACCESS:    6400247 HIT:    4517549 MISS:    1882698
cpu2_L1D WRITE        ACCESS:   12926944 HIT:    9038560 MISS:    3888384
cpu2_L1D TRANSLATION  ACCESS:      11089 HIT:       2256 MISS:       8833
cpu2_L1D PREFETCH REQUESTED:   53956758 ISSUED:    6400220 USEFUL:     385347 USELESS:     199673
cpu2_L1D AVERAGE MISS LATENCY: 98.76 cycles
cpu2_L1D TOTAL        ACCESS:          0 HIT:          0 MISS:          0
cpu2_L1D LOAD         ACCESS:          0 HIT:          0 MISS:          0
cpu2_L1D RFO          ACCESS:          0 HIT:          0 MISS:          0
cpu2_L1D PREFETCH     ACCESS:          0 HIT:          0 MISS:          0
cpu2_L1D WRITE        ACCESS:          0 HIT:          0 MISS:          0
cpu2_L1D TRANSLATION  ACCESS:          0 HIT:          0 MISS:          0
cpu2_L1D PREFETCH REQUESTED:   53956758 ISSUED:    6400220 USEFUL:     385347 USELESS:     199673
cpu2_L1D AVERAGE MISS LATENCY: 98.76 cycles
cpu2_L1I TOTAL        ACCESS:          0 HIT:          0 MISS:          0
cpu2_L1I LOAD         ACCESS:          0 HIT:          0 MISS:          0
cpu2_L1I RFO          ACCESS:          0 HIT:          0 MISS:          0
cpu2_L1I PREFETCH     ACCESS:          0 HIT:          0 MISS:          0
cpu2_L1I WRITE        ACCESS:          0 HIT:          0 MISS:          0
cpu2_L1I TRANSLATION  ACCESS:          0 HIT:          0 MISS:          0
cpu2_L1I PREFETCH REQUESTED:          0 ISSUED:          0 USEFUL:          0 USELESS:          0
cpu2_L1I AVERAGE MISS LATENCY: 34.8 cycles
cpu2_L1I TOTAL        ACCESS:          0 HIT:          0 MISS:          0
cpu2_L1I LOAD         ACCESS:          0 HIT:          0 MISS:          0
cpu2_L1I RFO          ACCESS:          0 HIT:          0 MISS:          0
cpu2_L1I PREFETCH     ACCESS:          0 HIT:          0 MISS:          0
cpu2_L1I WRITE        ACCESS:          0 HIT:          0 MISS:          0
cpu2_L1I TRANSLATION  ACCESS:          0 HIT:          0 MISS:          0
cpu2_L1I PREFETCH REQUESTED:          0 ISSUED:          0 USEFUL:          0 USELESS:          0
cpu2_L1I AVERAGE MISS LATENCY: 34.8 cycles
cpu2_L1I TOTAL        ACCESS:     524578 HIT:     342303 MISS:     182275
cpu2_L1I LOAD         ACCESS:     524578 HIT:     342303 MISS:     182275
cpu2_L1I RFO          ACCESS:          0 HIT:          0 MISS:          0
cpu2_L1I PREFETCH     ACCESS:          0 HIT:          0 MISS:          0
cpu2_L1I WRITE        ACCESS:          0 HIT:          0 MISS:          0
cpu2_L1I TRANSLATION  ACCESS:          0 HIT:          0 MISS:          0
cpu2_L1I PREFETCH REQUESTED:          0 ISSUED:          0 USEFUL:          0 USELESS:          0
cpu2_L1I AVERAGE MISS LATENCY: 34.8 cycles
cpu2_L1I TOTAL        ACCESS:          0 HIT:          0 MISS:          0
cpu2_L1I LOAD         ACCESS:          0 HIT:          0 MISS:          0
cpu2_L1I RFO          ACCESS:          0 HIT:          0 MISS:          0
cpu2_L1I PREFETCH     ACCESS:          0 HIT:          0 MISS:          0
cpu2_L1I WRITE        ACCESS:          0 HIT:          0 MISS:          0
cpu2_L1I TRANSLATION  ACCESS:          0 HIT:          0 MISS:          0
cpu2_L1I PREFETCH REQUESTED:          0 ISSUED:          0 USEFUL:          0 USELESS:          0
cpu2_L1I AVERAGE MISS LATENCY: 34.8 cycles
cpu2_L2C TOTAL        ACCESS:          0 HIT:          0 MISS:          0
cpu2_L2C LOAD         ACCESS:          0 HIT:          0 MISS:          0
cpu2_L2C RFO          ACCESS:          0 HIT:          0 MISS:          0
cpu2_L2C PREFETCH     ACCESS:          0 HIT:          0 MISS:          0
cpu2_L2C WRITE        ACCESS:          0 HIT:          0 MISS:          0
cpu2_L2C TRANSLATION  ACCESS:          0 HIT:          0 MISS:          0
cpu2_L2C PREFETCH REQUESTED:          0 ISSUED:          0 USEFUL:          0 USELESS:          0
cpu2_L2C AVERAGE MISS LATENCY: 535.9 cycles
cpu2_L2C TOTAL        ACCESS:          0 HIT:          0 MISS:          0
cpu2_L2C LOAD         ACCESS:          0 HIT:          0 MISS:          0
cpu2_L2C RFO          ACCESS:          0 HIT:          0 MISS:          0
cpu2_L2C PREFETCH     ACCESS:          0 HIT:          0 MISS:          0
cpu2_L2C WRITE        ACCESS:          0 HIT:          0 MISS:          0
cpu2_L2C TRANSLATION  ACCESS:          0 HIT:          0 MISS:          0
cpu2_L2C PREFETCH REQUESTED:          0 ISSUED:          0 USEFUL:          0 USELESS:          0
cpu2_L2C AVERAGE MISS LATENCY: 535.9 cycles
cpu2_L2C TOTAL        ACCESS:    5742419 HIT:    3917757 MISS:    1824662
cpu2_L2C LOAD         ACCESS:    1651900 HIT:    1026405 MISS:     625495
cpu2_L2C RFO          ACCESS:     975109 HIT:     577661 MISS:     397448
cpu2_L2C PREFETCH     ACCESS:    1794414 HIT:     999266 MISS:     795148
cpu2_L2C WRITE        ACCESS:    1312328 HIT:    1311823 MISS:        505
cpu2_L2C TRANSLATION  ACCESS:       8668 HIT:       2602 MISS:       6066
cpu2_L2C PREFETCH REQUESTED:          0 ISSUED:          0 USEFUL:          0 USELESS:          0
cpu2_L2C AVERAGE MISS LATENCY: 535.9 cycles
cpu2_L2C TOTAL        ACCESS:          0 HIT:          0 MISS:          0
cpu2_L2C LOAD         ACCESS:          0 HIT:          0 MISS:          0
cpu2_L2C RFO          ACCESS:          0 HIT:          0 MISS:          0
cpu2_L2C PREFETCH     ACCESS:          0 HIT:          0 MISS:          0
cpu2_L2C WRITE        ACCESS:          0 HIT:          0 MISS:          0
cpu2_L2C TRANSLATION  ACCESS:          0 HIT:          0 MISS:          0
cpu2_L2C PREFETCH REQUESTED:          0 ISSUED:          0 USEFUL:          0 USELESS:          0
cpu2_L2C AVERAGE MISS LATENCY: 535.9 cycles
cpu2_STLB TOTAL        ACCESS:          0 HIT:          0 MISS:          0
cpu2_STLB LOAD         ACCESS:          0 HIT:          0 MISS:          0
cpu2_STLB RFO          ACCESS:          0 HIT:          0 MISS:          0
cpu2_STLB PREFETCH     ACCESS:          0 HIT:          0 MISS:          0
cpu2_STLB WRITE        ACCESS:          0 HIT:          0 MISS:          0
cpu2_STLB TRANSLATION  ACCESS:          0 HIT:          0 MISS:          0
cpu2_STLB PREFETCH REQUESTED:          0 ISSUED:          0 USEFUL:          0 USELESS:          0
cpu2_STLB AVERAGE MISS LATENCY: 464.2 cycles
cpu2_STLB TOTAL        ACCESS:          0 HIT:          0 MISS:          0
cpu2_STLB LOAD         ACCESS:          0 HIT:          0 MISS:          0
cpu2_STLB RFO          ACCESS:          0 HIT:          0 MISS:          0
cpu2_STLB PREFETCH     ACCESS:          0 HIT:          0 MISS:          0
cpu2_STLB WRITE        ACCESS:          0 HIT:          0 MISS:          0
cpu2_STLB TRANSLATION  ACCESS:          0 HIT:          0 MISS:          0
cpu2_STLB PREFETCH REQUESTED:          0 ISSUED:          0 USEFUL:          0 USELESS:          0
cpu2_STLB AVERAGE MISS LATENCY: 464.2 cycles
cpu2_STLB TOTAL        ACCESS:      99347 HIT:      90028 MISS:       9319
cpu2_STLB LOAD         ACCESS:      99347 HIT:      90028 MISS:       9319
cpu2_STLB RFO          ACCESS:          0 HIT:          0 MISS:          0
cpu2_STLB PREFETCH     ACCESS:          0 HIT:          0 MISS:          0
cpu2_STLB WRITE        ACCESS:          0 HIT:          0 MISS:          0
cpu2_STLB TRANSLATION  ACCESS:          0 HIT:          0 MISS:          0
cpu2_STLB PREFETCH REQUESTED:          0 ISSUED:          0 USEFUL:          0 USELESS:          0
cpu2_STLB AVERAGE MISS LATENCY: 464.2 cycles
cpu2_STLB TOTAL        ACCESS:          0 HIT:          0 MISS:          0
cpu2_STLB LOAD         ACCESS:          0 HIT:          0 MISS:          0
cpu2_STLB RFO          ACCESS:          0 HIT:          0 MISS:          0
cpu2_STLB PREFETCH     ACCESS:          0 HIT:          0 MISS:          0
cpu2_STLB WRITE        ACCESS:          0 HIT:          0 MISS:          0
cpu2_STLB TRANSLATION  ACCESS:          0 HIT:          0 MISS:          0
cpu2_STLB PREFETCH REQUESTED:          0 ISSUED:          0 USEFUL:          0 USELESS:          0
cpu2_STLB AVERAGE MISS LATENCY: 464.2 cycles
cpu3_DTLB TOTAL        ACCESS:          0 HIT:          0 MISS:          0
cpu3_DTLB LOAD         ACCESS:          0 HIT:          0 MISS:          0
cpu3_DTLB RFO          ACCESS:          0 HIT:          0 MISS:          0
cpu3_DTLB PREFETCH     ACCESS:          0 HIT:          0 MISS:          0
cpu3_DTLB WRITE        ACCESS:          0 HIT:          0 MISS:          0
cpu3_DTLB TRANSLATION  ACCESS:          0 HIT:          0 MISS:          0
cpu3_DTLB PREFETCH REQUESTED:          0 ISSUED:          0 USEFUL:          0 USELESS:          0
cpu3_DTLB AVERAGE MISS LATENCY: 24.91 cycles
cpu3_DTLB TOTAL        ACCESS:          0 HIT:          0 MISS:          0
cpu3_DTLB LOAD         ACCESS:          0 HIT:          0 MISS:          0
cpu3_DTLB RFO          ACCESS:          0 HIT:          0 MISS:          0
cpu3_DTLB PREFETCH     ACCESS:          0 HIT:          0 MISS:          0
cpu3_DTLB WRITE        ACCESS:          0 HIT:          0 MISS:          0
cpu3_DTLB TRANSLATION  ACCESS:          0 HIT:          0 MISS:          0
cpu3_DTLB PREFETCH REQUESTED:          0 ISSUED:          0 USEFUL:          0 USELESS:          0
cpu3_DTLB AVERAGE MISS LATENCY: 24.91 cycles
cpu3_DTLB TOTAL        ACCESS:          0 HIT:          0 MISS:          0
cpu3_DTLB LOAD         ACCESS:          0 HIT:          0 MISS:          0
cpu3_DTLB RFO          ACCESS:          0 HIT:          0 MISS:          0
cpu3_DTLB PREFETCH     ACCESS:          0 HIT:          0 MISS:          0
cpu3_DTLB WRITE        ACCESS:          0 HIT:          0 MISS:          0
cpu3_DTLB TRANSLATION  ACCESS:          0 HIT:          0 MISS:          0
cpu3_DTLB PREFETCH REQUESTED:          0 ISSUED:          0 USEFUL:          0 USELESS:          0
cpu3_DTLB AVERAGE MISS LATENCY: 24.91 cycles
cpu3_DTLB TOTAL        ACCESS:   29758703 HIT:   29743945 MISS:      14758
cpu3_DTLB LOAD         ACCESS:   29758703 HIT:   29743945 MISS:      14758
cpu3_DTLB RFO          ACCESS:          0 HIT:          0 MISS:          0
cpu3_DTLB PREFETCH     ACCESS:          0 HIT:          0 MISS:          0
cpu3_DTLB WRITE        ACCESS:          0 HIT:          0 MISS:          0
cpu3_DTLB TRANSLATION  ACCESS:          0 HIT:          0 MISS:          0
cpu3_DTLB PREFETCH REQUESTED:          0 ISSUED:          0 USEFUL:          0 USELESS:          0
cpu3_DTLB AVERAGE MISS LATENCY: 24.91 cycles
cpu3_ITLB TOTAL        ACCESS:          0 HIT:          0 MISS:          0
cpu3_ITLB LOAD         ACCESS:          0 HIT:          0 MISS:          0
cpu3_ITLB RFO          ACCESS:          0 HIT:          0 MISS:          0
cpu3_ITLB PREFETCH     ACCESS:          0 HIT:          0 MISS:          0
cpu3_ITLB WRITE        ACCESS:          0 HIT:          0 MISS:          0
cpu3_ITLB TRANSLATION  ACCESS:          0 HIT:          0 MISS:          0
cpu3_ITLB PREFETCH REQUESTED:          0 ISSUED:          0 USEFUL:          0 USELESS:          0
cpu3_ITLB AVERAGE MISS LATENCY: -nan cycles
cpu3_ITLB TOTAL        ACCESS:          0 HIT:          0 MISS:          0
cpu3_ITLB LOAD         ACCESS:          0 HIT:          0 MISS:          0
cpu3_ITLB RFO          ACCESS:          0 HIT:          0 MISS:          0
cpu3_ITLB PREFETCH     ACCESS:          0 HIT:          0 MISS:          0
cpu3_ITLB WRITE        ACCESS:          0 HIT:          0 MISS:          0
cpu3_ITLB TRANSLATION  ACCESS:          0 HIT:          0 MISS:          0
cpu3_ITLB PREFETCH REQUESTED:          0 ISSUED:          0 USEFUL:          0 USELESS:          0
cpu3_ITLB AVERAGE MISS LATENCY: -nan cycles
cpu3_ITLB TOTAL        ACCESS:          0 HIT:          0 MISS:          0
cpu3_ITLB LOAD         ACCESS:          0 HIT:          0 MISS:          0
cpu3_ITLB RFO          ACCESS:          0 HIT:          0 MISS:          0
cpu3_ITLB PREFETCH     ACCESS:          0 HIT:          0 MISS:          0
cpu3_ITLB WRITE        ACCESS:          0 HIT:          0 MISS:          0
cpu3_ITLB TRANSLATION  ACCESS:          0 HIT:          0 MISS:          0
cpu3_ITLB PREFETCH REQUESTED:          0 ISSUED:          0 USEFUL:          0 USELESS:          0
cpu3_ITLB AVERAGE MISS LATENCY: -nan cycles
cpu3_ITLB TOTAL        ACCESS:     842029 HIT:     842029 MISS:          0
cpu3_ITLB LOAD         ACCESS:     842029 HIT:     842029 MISS:          0
cpu3_ITLB RFO          ACCESS:          0 HIT:          0 MISS:          0
cpu3_ITLB PREFETCH     ACCESS:          0 HIT:          0 MISS:          0
cpu3_ITLB WRITE        ACCESS:          0 HIT:          0 MISS:          0
cpu3_ITLB TRANSLATION  ACCESS:          0 HIT:          0 MISS:          0
cpu3_ITLB PREFETCH REQUESTED:          0 ISSUED:          0 USEFUL:          0 USELESS:          0
cpu3_ITLB AVERAGE MISS LATENCY: -nan cycles
cpu3_L1D TOTAL        ACCESS:          0 HIT:          0 MISS:          0
cpu3_L1D LOAD         ACCESS:          0 HIT:          0 MISS:          0
cpu3_L1D RFO          ACCESS:          0 HIT:          0 MISS:          0
cpu3_L1D PREFETCH     ACCESS:          0 HIT:          0 MISS:          0
cpu3_L1D WRITE        ACCESS:          0 HIT:          0 MISS:          0
cpu3_L1D TRANSLATION  ACCESS:          0 HIT:          0 MISS:          0
cpu3_L1D PREFETCH REQUESTED:      39270 ISSUED:      35954 USEFUL:       1123 USELESS:         55
cpu3_L1D AVERAGE MISS LATENCY: 209.6 cycles
cpu3_L1D TOTAL        ACCESS:          0 HIT:          0 MISS:          0
cpu3_L1D LOAD         ACCESS:          0 HIT:          0 MISS:          0
cpu3_L1D RFO          ACCESS:          0 HIT:          0 MISS:          0
cpu3_L1D PREFETCH     ACCESS:          0 HIT:          0 MISS:          0
cpu3_L1D WRITE        ACCESS:          0 HIT:          0 MISS:          0
cpu3_L1D TRANSLATION  ACCESS:          0 HIT:          0 MISS:          0
cpu3_L1D PREFETCH REQUESTED:      39270 ISSUED:      35954 USEFUL:       1123 USELESS:         55
cpu3_L1D AVERAGE MISS LATENCY: 209.6 cycles
cpu3_L1D TOTAL        ACCESS:          0 HIT:          0 MISS:          0
cpu3_L1D LOAD         ACCESS:          0 HIT:          0 MISS:          0
cpu3_L1D RFO          ACCESS:          0 HIT:          0 MISS:          0
cpu3_L1D PREFETCH     ACCESS:          0 HIT:          0 MISS:          0
cpu3_L1D WRITE        ACCESS:          0 HIT:          0 MISS:          0
cpu3_L1D TRANSLATION  ACCESS:          0 HIT:          0 MISS:          0
cpu3_L1D PREFETCH REQUESTED:      39270 ISSUED:      35954 USEFUL:       1123 USELESS:         55
cpu3_L1D AVERAGE MISS LATENCY: 209.6 cycles
cpu3_L1D TOTAL        ACCESS:   36600552 HIT:   36557382 MISS:      43170
cpu3_L1D LOAD         ACCESS:   27317223 HIT:   27313804 MISS:       3419
cpu3_L1D RFO          ACCESS:          0 HIT:          0 MISS:          0
cpu3_L1D PREFETCH     ACCESS:      35954 HIT:      17704 MISS:      18250
cpu3_L1D WRITE        ACCESS:    9247104 HIT:    9225845 MISS:      21259
cpu3_L1D TRANSLATION  ACCESS:        271 HIT:         29 MISS:        242
cpu3_L1D PREFETCH REQUESTED:      39270 ISSUED:      35954 USEFUL:       1123 USELESS:         55
cpu3_L1D AVERAGE MISS LATENCY: 209.6 cycles
cpu3_L1I TOTAL        ACCESS:          0 HIT:          0 MISS:          0
cpu3_L1I LOAD         ACCESS:          0 HIT:          0 MISS:          0
cpu3_L1I RFO          ACCESS:          0 HIT:          0 MISS:          0
cpu3_L1I PREFETCH     ACCESS:          0 HIT:          0 MISS:          0
cpu3_L1I WRITE        ACCESS:          0 HIT:          0 MISS:          0
cpu3_L1I TRANSLATION  ACCESS:          0 HIT:          0 MISS:          0
cpu3_L1I PREFETCH REQUESTED:          0 ISSUED:          0 USEFUL:          0 USELESS:          0
cpu3_L1I AVERAGE MISS LATENCY: 7.548 cycles
cpu3_L1I TOTAL        ACCESS:          0 HIT:          0 MISS:          0
cpu3_L1I LOAD         ACCESS:          0 HIT:          0 MISS:          0
cpu3_L1I RFO          ACCESS:          0 HIT:          0 MISS:          0
cpu3_L1I PREFETCH     ACCESS:          0 HIT:          0 MISS:          0
cpu3_L1I WRITE        ACCESS:          0 HIT:          0 MISS:          0
cpu3_L1I TRANSLATION  ACCESS:          0 HIT:          0 MISS:          0
cpu3_L1I PREFETCH REQUESTED:          0 ISSUED:          0 USEFUL:          0 USELESS:          0
cpu3_L1I AVERAGE MISS LATENCY: 7.548 cycles
cpu3_L1I TOTAL        ACCESS:          0 HIT:          0 MISS:          0
cpu3_L1I LOAD         ACCESS:          0 HIT:          0 MISS:          0
cpu3_L1I RFO          ACCESS:          0 HIT:          0 MISS:          0
cpu3_L1I PREFETCH     ACCESS:          0 HIT:          0 MISS:          0
cpu3_L1I WRITE        ACCESS:          0 HIT:          0 MISS:          0
cpu3_L1I TRANSLATION  ACCESS:          0 HIT:          0 MISS:          0
cpu3_L1I PREFETCH REQUESTED:          0 ISSUED:          0 USEFUL:          0 USELESS:          0
cpu3_L1I AVERAGE MISS LATENCY: 7.548 cycles
cpu3_L1I TOTAL        ACCESS:     937715 HIT:     935367 MISS:       2348
cpu3_L1I LOAD         ACCESS:     937715 HIT:     935367 MISS:       2348
cpu3_L1I RFO          ACCESS:          0 HIT:          0 MISS:          0
cpu3_L1I PREFETCH     ACCESS:          0 HIT:          0 MISS:          0
cpu3_L1I WRITE        ACCESS:          0 HIT:          0 MISS:          0
cpu3_L1I TRANSLATION  ACCESS:          0 HIT:          0 MISS:          0
cpu3_L1I PREFETCH REQUESTED:          0 ISSUED:          0 USEFUL:          0 USELESS:          0
cpu3_L1I AVERAGE MISS LATENCY: 7.548 cycles
cpu3_L2C TOTAL        ACCESS:          0 HIT:          0 MISS:          0
cpu3_L2C LOAD         ACCESS:          0 HIT:          0 MISS:          0
cpu3_L2C RFO          ACCESS:          0 HIT:          0 MISS:          0
cpu3_L2C PREFETCH     ACCESS:          0 HIT:          0 MISS:          0
cpu3_L2C WRITE        ACCESS:          0 HIT:          0 MISS:          0
cpu3_L2C TRANSLATION  ACCESS:          0 HIT:          0 MISS:          0
cpu3_L2C PREFETCH REQUESTED:          0 ISSUED:          0 USEFUL:          0 USELESS:          0
cpu3_L2C AVERAGE MISS LATENCY: 1187 cycles
cpu3_L2C TOTAL        ACCESS:          0 HIT:          0 MISS:          0
cpu3_L2C LOAD         ACCESS:          0 HIT:          0 MISS:          0
cpu3_L2C RFO          ACCESS:          0 HIT:          0 MISS:          0
cpu3_L2C PREFETCH     ACCESS:          0 HIT:          0 MISS:          0
cpu3_L2C WRITE        ACCESS:          0 HIT:          0 MISS:          0
cpu3_L2C TRANSLATION  ACCESS:          0 HIT:          0 MISS:          0
cpu3_L2C PREFETCH REQUESTED:          0 ISSUED:          0 USEFUL:          0 USELESS:          0
cpu3_L2C AVERAGE MISS LATENCY: 1187 cycles
cpu3_L2C TOTAL        ACCESS:          0 HIT:          0 MISS:          0
cpu3_L2C LOAD         ACCESS:          0 HIT:          0 MISS:          0
cpu3_L2C RFO          ACCESS:          0 HIT:          0 MISS:          0
cpu3_L2C PREFETCH     ACCESS:          0 HIT:          0 MISS:          0
cpu3_L2C WRITE        ACCESS:          0 HIT:          0 MISS:          0
cpu3_L2C TRANSLATION  ACCESS:          0 HIT:          0 MISS:          0
cpu3_L2C PREFETCH REQUESTED:          0 ISSUED:          0 USEFUL:          0 USELESS:          0
cpu3_L2C AVERAGE MISS LATENCY: 1187 cycles
cpu3_L2C TOTAL        ACCESS:      31181 HIT:      18014 MISS:      13167
cpu3_L2C LOAD         ACCESS:       3555 HIT:       2206 MISS:       1349
cpu3_L2C RFO          ACCESS:       4166 HIT:        183 MISS:       3983
cpu3_L2C PREFETCH     ACCESS:      18159 HIT:      10493 MISS:       7666
cpu3_L2C WRITE        ACCESS:       5059 HIT:       5049 MISS:         10
cpu3_L2C TRANSLATION  ACCESS:        242 HIT:         83 MISS:        159
cpu3_L2C PREFETCH REQUESTED:          0 ISSUED:          0 USEFUL:          0 USELESS:          0
cpu3_L2C AVERAGE MISS LATENCY: 1187 cycles
cpu3_STLB TOTAL        ACCESS:          0 HIT:          0 MISS:          0
cpu3_STLB LOAD         ACCESS:          0 HIT:          0 MISS:          0
cpu3_STLB RFO          ACCESS:          0 HIT:          0 MISS:          0
cpu3_STLB PREFETCH     ACCESS:          0 HIT:          0 MISS:          0
cpu3_STLB WRITE        ACCESS:          0 HIT:          0 MISS:          0
cpu3_STLB TRANSLATION  ACCESS:          0 HIT:          0 MISS:          0
cpu3_STLB PREFETCH REQUESTED:          0 ISSUED:          0 USEFUL:          0 USELESS:          0
cpu3_STLB AVERAGE MISS LATENCY: 1325 cycles
cpu3_STLB TOTAL        ACCESS:          0 HIT:          0 MISS:          0
cpu3_STLB LOAD         ACCESS:          0 HIT:          0 MISS:          0
cpu3_STLB RFO          ACCESS:          0 HIT:          0 MISS:          0
cpu3_STLB PREFETCH     ACCESS:          0 HIT:          0 MISS:          0
cpu3_STLB WRITE        ACCESS:          0 HIT:          0 MISS:          0
cpu3_STLB TRANSLATION  ACCESS:          0 HIT:          0 MISS:          0
cpu3_STLB PREFETCH REQUESTED:          0 ISSUED:          0 USEFUL:          0 USELESS:          0
cpu3_STLB AVERAGE MISS LATENCY: 1325 cycles
cpu3_STLB TOTAL        ACCESS:          0 HIT:          0 MISS:          0
cpu3_STLB LOAD         ACCESS:          0 HIT:          0 MISS:          0
cpu3_STLB RFO          ACCESS:          0 HIT:          0 MISS:          0
cpu3_STLB PREFETCH     ACCESS:          0 HIT:          0 MISS:          0
cpu3_STLB WRITE        ACCESS:          0 HIT:          0 MISS:          0
cpu3_STLB TRANSLATION  ACCESS:          0 HIT:          0 MISS:          0
cpu3_STLB PREFETCH REQUESTED:          0 ISSUED:          0 USEFUL:          0 USELESS:          0
cpu3_STLB AVERAGE MISS LATENCY: 1325 cycles
cpu3_STLB TOTAL        ACCESS:      12774 HIT:      12504 MISS:        270
cpu3_STLB LOAD         ACCESS:      12774 HIT:      12504 MISS:        270
cpu3_STLB RFO          ACCESS:          0 HIT:          0 MISS:          0
cpu3_STLB PREFETCH     ACCESS:          0 HIT:          0 MISS:          0
cpu3_STLB WRITE        ACCESS:          0 HIT:          0 MISS:          0
cpu3_STLB TRANSLATION  ACCESS:          0 HIT:          0 MISS:          0
cpu3_STLB PREFETCH REQUESTED:          0 ISSUED:          0 USEFUL:          0 USELESS:          0
cpu3_STLB AVERAGE MISS LATENCY: 1325 cycles

Region of Interest Statistics

CPU 0 cumulative IPC: 2.832 instructions: 150000003 cycles: 52969543
CPU 0 Branch Prediction Accuracy: 95.09% MPKI: 8.053 Average ROB Occupancy at Mispredict: 83.38
Branch type MPKI
BRANCH_DIRECT_JUMP: 0.154
BRANCH_INDIRECT: 0
BRANCH_CONDITIONAL: 6.66
BRANCH_DIRECT_CALL: 0
BRANCH_INDIRECT_CALL: 0
BRANCH_RETURN: 1.24


CPU 1 cumulative IPC: 1.289 instructions: 150000001 cycles: 116384294
CPU 1 Branch Prediction Accuracy: 94.56% MPKI: 7.708 Average ROB Occupancy at Mispredict: 61.2
Branch type MPKI
BRANCH_DIRECT_JUMP: 0.00711
BRANCH_INDIRECT: 0.00237
BRANCH_CONDITIONAL: 7.05
BRANCH_DIRECT_CALL: 0.0271
BRANCH_INDIRECT_CALL: 0
BRANCH_RETURN: 0.627


CPU 2 cumulative IPC: 1.578 instructions: 150000004 cycles: 95052589
CPU 2 Branch Prediction Accuracy: 97.85% MPKI: 3.55 Average ROB Occupancy at Mispredict: 98.05
Branch type MPKI
BRANCH_DIRECT_JUMP: 0.0257
BRANCH_INDIRECT: 0.00066
BRANCH_CONDITIONAL: 3.48
BRANCH_DIRECT_CALL: 0.00185
BRANCH_INDIRECT_CALL: 0
BRANCH_RETURN: 0.0405


CPU 3 cumulative IPC: 2.125 instructions: 150000002 cycles: 70581797
CPU 3 Branch Prediction Accuracy: 94.81% MPKI: 6.954 Average ROB Occupancy at Mispredict: 77.09
Branch type MPKI
BRANCH_DIRECT_JUMP: 0
BRANCH_INDIRECT: 0
BRANCH_CONDITIONAL: 6.94
BRANCH_DIRECT_CALL: 0
[...]
cpu2_L2C PREFETCH     ACCESS:          0 HIT:          0 MISS:          0
cpu2_L2C WRITE        ACCESS:          0 HIT:          0 MISS:          0
cpu2_L2C TRANSLATION  ACCESS:          0 HIT:          0 MISS:          0
cpu2_L2C PREFETCH REQUESTED:          0 ISSUED:          0 USEFUL:          0 USELESS:          0
cpu2_L2C AVERAGE MISS LATENCY: 535.9 cycles
cpu2_L2C TOTAL        ACCESS:          0 HIT:          0 MISS:          0
cpu2_L2C LOAD         ACCESS:          0 HIT:          0 MISS:          0
cpu2_L2C RFO          ACCESS:          0 HIT:          0 MISS:          0
cpu2_L2C PREFETCH     ACCESS:          0 HIT:          0 MISS:          0
cpu2_L2C WRITE        ACCESS:          0 HIT:          0 MISS:          0
cpu2_L2C TRANSLATION  ACCESS:          0 HIT:          0 MISS:          0
cpu2_L2C PREFETCH REQUESTED:          0 ISSUED:          0 USEFUL:          0 USELESS:          0
cpu2_L2C AVERAGE MISS LATENCY: 535.9 cycles
cpu2_L2C TOTAL        ACCESS:    4057670 HIT:    2781654 MISS:    1276016
cpu2_L2C LOAD         ACCESS:    1067794 HIT:     676967 MISS:     390827
cpu2_L2C RFO          ACCESS:     735174 HIT:     424900 MISS:     310274
cpu2_L2C PREFETCH     ACCESS:    1293265 HIT:     722517 MISS:     570748
cpu2_L2C WRITE        ACCESS:     955406 HIT:     954911 MISS:        495
cpu2_L2C TRANSLATION  ACCESS:       6031 HIT:       2359 MISS:       3672
cpu2_L2C PREFETCH REQUESTED:          0 ISSUED:          0 USEFUL:          0 USELESS:          0
cpu2_L2C AVERAGE MISS LATENCY: 535.9 cycles
cpu2_L2C TOTAL        ACCESS:          0 HIT:          0 MISS:          0
cpu2_L2C LOAD         ACCESS:          0 HIT:          0 MISS:          0
cpu2_L2C RFO          ACCESS:          0 HIT:          0 MISS:          0
cpu2_L2C PREFETCH     ACCESS:          0 HIT:          0 MISS:          0
cpu2_L2C WRITE        ACCESS:          0 HIT:          0 MISS:          0
cpu2_L2C TRANSLATION  ACCESS:          0 HIT:          0 MISS:          0
cpu2_L2C PREFETCH REQUESTED:          0 ISSUED:          0 USEFUL:          0 USELESS:          0
cpu2_L2C AVERAGE MISS LATENCY: 535.9 cycles
cpu2_STLB TOTAL        ACCESS:          0 HIT:          0 MISS:          0
cpu2_STLB LOAD         ACCESS:          0 HIT:          0 MISS:          0
cpu2_STLB RFO          ACCESS:          0 HIT:          0 MISS:          0
cpu2_STLB PREFETCH     ACCESS:          0 HIT:          0 MISS:          0
cpu2_STLB WRITE        ACCESS:          0 HIT:          0 MISS:          0
cpu2_STLB TRANSLATION  ACCESS:          0 HIT:          0 MISS:          0
cpu2_STLB PREFETCH REQUESTED:          0 ISSUED:          0 USEFUL:          0 USELESS:          0
cpu2_STLB AVERAGE MISS LATENCY: 464.2 cycles
cpu2_STLB TOTAL        ACCESS:          0 HIT:          0 MISS:          0
cpu2_STLB LOAD         ACCESS:          0 HIT:          0 MISS:          0
cpu2_STLB RFO          ACCESS:          0 HIT:          0 MISS:          0
cpu2_STLB PREFETCH     ACCESS:          0 HIT:          0 MISS:          0
cpu2_STLB WRITE        ACCESS:          0 HIT:          0 MISS:          0
cpu2_STLB TRANSLATION  ACCESS:          0 HIT:          0 MISS:          0
cpu2_STLB PREFETCH REQUESTED:          0 ISSUED:          0 USEFUL:          0 USELESS:          0
cpu2_STLB AVERAGE MISS LATENCY: 464.2 cycles
cpu2_STLB TOTAL        ACCESS:      62795 HIT:      55586 MISS:       7209
cpu2_STLB LOAD         ACCESS:      62795 HIT:      55586 MISS:       7209
cpu2_STLB RFO          ACCESS:          0 HIT:          0 MISS:          0
cpu2_STLB PREFETCH     ACCESS:          0 HIT:          0 MISS:          0
cpu2_STLB WRITE        ACCESS:          0 HIT:          0 MISS:          0
cpu2_STLB TRANSLATION  ACCESS:          0 HIT:          0 MISS:          0
cpu2_STLB PREFETCH REQUESTED:          0 ISSUED:          0 USEFUL:          0 USELESS:          0
cpu2_STLB AVERAGE MISS LATENCY: 464.2 cycles
cpu2_STLB TOTAL        ACCESS:          0 HIT:          0 MISS:          0
cpu2_STLB LOAD         ACCESS:          0 HIT:          0 MISS:          0
cpu2_STLB RFO          ACCESS:          0 HIT:          0 MISS:          0
cpu2_STLB PREFETCH     ACCESS:          0 HIT:          0 MISS:          0
cpu2_STLB WRITE        ACCESS:          0 HIT:          0 MISS:          0
cpu2_STLB TRANSLATION  ACCESS:          0 HIT:          0 MISS:          0
cpu2_STLB PREFETCH REQUESTED:          0 ISSUED:          0 USEFUL:          0 USELESS:          0
cpu2_STLB AVERAGE MISS LATENCY: 464.2 cycles
cpu3_DTLB TOTAL        ACCESS:          0 HIT:          0 MISS:          0
cpu3_DTLB LOAD         ACCESS:          0 HIT:          0 MISS:          0
cpu3_DTLB RFO          ACCESS:          0 HIT:          0 MISS:          0
cpu3_DTLB PREFETCH     ACCESS:          0 HIT:          0 MISS:          0
cpu3_DTLB WRITE        ACCESS:          0 HIT:          0 MISS:          0
cpu3_DTLB TRANSLATION  ACCESS:          0 HIT:          0 MISS:          0
cpu3_DTLB PREFETCH REQUESTED:          0 ISSUED:          0 USEFUL:          0 USELESS:          0
cpu3_DTLB AVERAGE MISS LATENCY: 24.91 cycles
cpu3_DTLB TOTAL        ACCESS:          0 HIT:          0 MISS:          0
cpu3_DTLB LOAD         ACCESS:          0 HIT:          0 MISS:          0
cpu3_DTLB RFO          ACCESS:          0 HIT:          0 MISS:          0
cpu3_DTLB PREFETCH     ACCESS:          0 HIT:          0 MISS:          0
cpu3_DTLB WRITE        ACCESS:          0 HIT:          0 MISS:          0
cpu3_DTLB TRANSLATION  ACCESS:          0 HIT:          0 MISS:          0
cpu3_DTLB PREFETCH REQUESTED:          0 ISSUED:          0 USEFUL:          0 USELESS:          0
cpu3_DTLB AVERAGE MISS LATENCY: 24.91 cycles
cpu3_DTLB TOTAL        ACCESS:          0 HIT:          0 MISS:          0
cpu3_DTLB LOAD         ACCESS:          0 HIT:          0 MISS:          0
cpu3_DTLB RFO          ACCESS:          0 HIT:          0 MISS:          0
cpu3_DTLB PREFETCH     ACCESS:          0 HIT:          0 MISS:          0
cpu3_DTLB WRITE        ACCESS:          0 HIT:          0 MISS:          0
cpu3_DTLB TRANSLATION  ACCESS:          0 HIT:          0 MISS:          0
cpu3_DTLB PREFETCH REQUESTED:          0 ISSUED:          0 USEFUL:          0 USELESS:          0
cpu3_DTLB AVERAGE MISS LATENCY: 24.91 cycles
cpu3_DTLB TOTAL        ACCESS:   18129582 HIT:   18117739 MISS:      11843
cpu3_DTLB LOAD         ACCESS:   18129582 HIT:   18117739 MISS:      11843
cpu3_DTLB RFO          ACCESS:          0 HIT:          0 MISS:          0
cpu3_DTLB PREFETCH     ACCESS:          0 HIT:          0 MISS:          0
cpu3_DTLB WRITE        ACCESS:          0 HIT:          0 MISS:          0
cpu3_DTLB TRANSLATION  ACCESS:          0 HIT:          0 MISS:          0
cpu3_DTLB PREFETCH REQUESTED:          0 ISSUED:          0 USEFUL:          0 USELESS:          0
cpu3_DTLB AVERAGE MISS LATENCY: 24.91 cycles
cpu3_ITLB TOTAL        ACCESS:          0 HIT:          0 MISS:          0
cpu3_ITLB LOAD         ACCESS:          0 HIT:          0 MISS:          0
cpu3_ITLB RFO          ACCESS:          0 HIT:          0 MISS:          0
cpu3_ITLB PREFETCH     ACCESS:          0 HIT:          0 MISS:          0
cpu3_ITLB WRITE        ACCESS:          0 HIT:          0 MISS:          0
cpu3_ITLB TRANSLATION  ACCESS:          0 HIT:          0 MISS:          0
cpu3_ITLB PREFETCH REQUESTED:          0 ISSUED:          0 USEFUL:          0 USELESS:          0
cpu3_ITLB AVERAGE MISS LATENCY: -nan cycles
cpu3_ITLB TOTAL        ACCESS:          0 HIT:          0 MISS:          0
cpu3_ITLB LOAD         ACCESS:          0 HIT:          0 MISS:          0
cpu3_ITLB RFO          ACCESS:          0 HIT:          0 MISS:          0
cpu3_ITLB PREFETCH     ACCESS:          0 HIT:          0 MISS:          0
cpu3_ITLB WRITE        ACCESS:          0 HIT:          0 MISS:          0
cpu3_ITLB TRANSLATION  ACCESS:          0 HIT:          0 MISS:          0
cpu3_ITLB PREFETCH REQUESTED:          0 ISSUED:          0 USEFUL:          0 USELESS:          0
cpu3_ITLB AVERAGE MISS LATENCY: -nan cycles
cpu3_ITLB TOTAL        ACCESS:          0 HIT:          0 MISS:          0
cpu3_ITLB LOAD         ACCESS:          0 HIT:          0 MISS:          0
cpu3_ITLB RFO          ACCESS:          0 HIT:          0 MISS:          0
cpu3_ITLB PREFETCH     ACCESS:          0 HIT:          0 MISS:          0
cpu3_ITLB WRITE        ACCESS:          0 HIT:          0 MISS:          0
cpu3_ITLB TRANSLATION  ACCESS:          0 HIT:          0 MISS:          0
cpu3_ITLB PREFETCH REQUESTED:          0 ISSUED:          0 USEFUL:          0 USELESS:          0
cpu3_ITLB AVERAGE MISS LATENCY: -nan cycles
cpu3_ITLB TOTAL        ACCESS:     552079 HIT:     552079 MISS:          0
cpu3_ITLB LOAD         ACCESS:     552079 HIT:     552079 MISS:          0
cpu3_ITLB RFO          ACCESS:          0 HIT:          0 MISS:          0
cpu3_ITLB PREFETCH     ACCESS:          0 HIT:          0 MISS:          0
cpu3_ITLB WRITE        ACCESS:          0 HIT:          0 MISS:          0
cpu3_ITLB TRANSLATION  ACCESS:          0 HIT:          0 MISS:          0
cpu3_ITLB PREFETCH REQUESTED:          0 ISSUED:          0 USEFUL:          0 USELESS:          0
cpu3_ITLB AVERAGE MISS LATENCY: -nan cycles
cpu3_L1D TOTAL        ACCESS:          0 HIT:          0 MISS:          0
cpu3_L1D LOAD         ACCESS:          0 HIT:          0 MISS:          0
cpu3_L1D RFO          ACCESS:          0 HIT:          0 MISS:          0
cpu3_L1D PREFETCH     ACCESS:          0 HIT:          0 MISS:          0
cpu3_L1D WRITE        ACCESS:          0 HIT:          0 MISS:          0
cpu3_L1D TRANSLATION  ACCESS:          0 HIT:          0 MISS:          0
cpu3_L1D PREFETCH REQUESTED:      39270 ISSUED:      35954 USEFUL:       1123 USELESS:         55
cpu3_L1D AVERAGE MISS LATENCY: 209.6 cycles
cpu3_L1D TOTAL        ACCESS:          0 HIT:          0 MISS:          0
cpu3_L1D LOAD         ACCESS:          0 HIT:          0 MISS:          0
cpu3_L1D RFO          ACCESS:          0 HIT:          0 MISS:          0
cpu3_L1D PREFETCH     ACCESS:          0 HIT:          0 MISS:          0
cpu3_L1D WRITE        ACCESS:          0 HIT:          0 MISS:          0
cpu3_L1D TRANSLATION  ACCESS:          0 HIT:          0 MISS:          0
cpu3_L1D PREFETCH REQUESTED:      39270 ISSUED:      35954 USEFUL:       1123 USELESS:         55
cpu3_L1D AVERAGE MISS LATENCY: 209.6 cycles
cpu3_L1D TOTAL        ACCESS:          0 HIT:          0 MISS:          0
cpu3_L1D LOAD         ACCESS:          0 HIT:          0 MISS:          0
cpu3_L1D RFO          ACCESS:          0 HIT:          0 MISS:          0
cpu3_L1D PREFETCH     ACCESS:          0 HIT:          0 MISS:          0
cpu3_L1D WRITE        ACCESS:          0 HIT:          0 MISS:          0
cpu3_L1D TRANSLATION  ACCESS:          0 HIT:          0 MISS:          0
cpu3_L1D PREFETCH REQUESTED:      39270 ISSUED:      35954 USEFUL:       1123 USELESS:         55
cpu3_L1D AVERAGE MISS LATENCY: 209.6 cycles
cpu3_L1D TOTAL        ACCESS:   22261634 HIT:   22232295 MISS:      29339
cpu3_L1D LOAD         ACCESS:   16605655 HIT:   16603542 MISS:       2113
cpu3_L1D RFO          ACCESS:          0 HIT:          0 MISS:          0
cpu3_L1D PREFETCH     ACCESS:      21316 HIT:      10352 MISS:      10964
cpu3_L1D WRITE        ACCESS:    5634498 HIT:    5618382 MISS:      16116
cpu3_L1D TRANSLATION  ACCESS:        165 HIT:         19 MISS:        146
cpu3_L1D PREFETCH REQUESTED:      39270 ISSUED:      35954 USEFUL:       1123 USELESS:         55
cpu3_L1D AVERAGE MISS LATENCY: 209.6 cycles
cpu3_L1I TOTAL        ACCESS:          0 HIT:          0 MISS:          0
cpu3_L1I LOAD         ACCESS:          0 HIT:          0 MISS:          0
cpu3_L1I RFO          ACCESS:          0 HIT:          0 MISS:          0
cpu3_L1I PREFETCH     ACCESS:          0 HIT:          0 MISS:          0
cpu3_L1I WRITE        ACCESS:          0 HIT:          0 MISS:          0
cpu3_L1I TRANSLATION  ACCESS:          0 HIT:          0 MISS:          0
cpu3_L1I PREFETCH REQUESTED:          0 ISSUED:          0 USEFUL:          0 USELESS:          0
cpu3_L1I AVERAGE MISS LATENCY: 7.548 cycles
cpu3_L1I TOTAL        ACCESS:          0 HIT:          0 MISS:          0
cpu3_L1I LOAD         ACCESS:          0 HIT:          0 MISS:          0
cpu3_L1I RFO          ACCESS:          0 HIT:          0 MISS:          0
cpu3_L1I PREFETCH     ACCESS:          0 HIT:          0 MISS:          0
cpu3_L1I WRITE        ACCESS:          0 HIT:          0 MISS:          0
cpu3_L1I TRANSLATION  ACCESS:          0 HIT:          0 MISS:          0
cpu3_L1I PREFETCH REQUESTED:          0 ISSUED:          0 USEFUL:          0 USELESS:          0
cpu3_L1I AVERAGE MISS LATENCY: 7.548 cycles
cpu3_L1I TOTAL        ACCESS:          0 HIT:          0 MISS:          0
cpu3_L1I LOAD         ACCESS:          0 HIT:          0 MISS:          0
cpu3_L1I RFO          ACCESS:          0 HIT:          0 MISS:          0
cpu3_L1I PREFETCH     ACCESS:          0 HIT:          0 MISS:          0
cpu3_L1I WRITE        ACCESS:          0 HIT:          0 MISS:          0
cpu3_L1I TRANSLATION  ACCESS:          0 HIT:          0 MISS:          0
cpu3_L1I PREFETCH REQUESTED:          0 ISSUED:          0 USEFUL:          0 USELESS:          0
cpu3_L1I AVERAGE MISS LATENCY: 7.548 cycles
cpu3_L1I TOTAL        ACCESS:     614743 HIT:     613353 MISS:       1390
cpu3_L1I LOAD         ACCESS:     614743 HIT:     613353 MISS:       1390
cpu3_L1I RFO          ACCESS:          0 HIT:          0 MISS:          0
cpu3_L1I PREFETCH     ACCESS:          0 HIT:          0 MISS:          0
cpu3_L1I WRITE        ACCESS:          0 HIT:          0 MISS:          0
cpu3_L1I TRANSLATION  ACCESS:          0 HIT:          0 MISS:          0
cpu3_L1I PREFETCH REQUESTED:          0 ISSUED:          0 USEFUL:          0 USELESS:          0
cpu3_L1I AVERAGE MISS LATENCY: 7.548 cycles
cpu3_L2C TOTAL        ACCESS:          0 HIT:          0 MISS:          0
cpu3_L2C LOAD         ACCESS:          0 HIT:          0 MISS:          0
cpu3_L2C RFO          ACCESS:          0 HIT:          0 MISS:          0
cpu3_L2C PREFETCH     ACCESS:          0 HIT:          0 MISS:          0
cpu3_L2C WRITE        ACCESS:          0 HIT:          0 MISS:          0
cpu3_L2C TRANSLATION  ACCESS:          0 HIT:          0 MISS:          0
cpu3_L2C PREFETCH REQUESTED:          0 ISSUED:          0 USEFUL:          0 USELESS:          0
cpu3_L2C AVERAGE MISS LATENCY: 1187 cycles
cpu3_L2C TOTAL        ACCESS:          0 HIT:          0 MISS:          0
cpu3_L2C LOAD         ACCESS:          0 HIT:          0 MISS:          0
cpu3_L2C RFO          ACCESS:          0 HIT:          0 MISS:          0
cpu3_L2C PREFETCH     ACCESS:          0 HIT:          0 MISS:          0
cpu3_L2C WRITE        ACCESS:          0 HIT:          0 MISS:          0
cpu3_L2C TRANSLATION  ACCESS:          0 HIT:          0 MISS:          0
cpu3_L2C PREFETCH REQUESTED:          0 ISSUED:          0 USEFUL:          0 USELESS:          0
cpu3_L2C AVERAGE MISS LATENCY: 1187 cycles
cpu3_L2C TOTAL        ACCESS:          0 HIT:          0 MISS:          0
cpu3_L2C LOAD         ACCESS:          0 HIT:          0 MISS:          0
cpu3_L2C RFO          ACCESS:          0 HIT:          0 MISS:          0
cpu3_L2C PREFETCH     ACCESS:          0 HIT:          0 MISS:          0
cpu3_L2C WRITE        ACCESS:          0 HIT:          0 MISS:          0
cpu3_L2C TRANSLATION  ACCESS:          0 HIT:          0 MISS:          0
cpu3_L2C PREFETCH REQUESTED:          0 ISSUED:          0 USEFUL:          0 USELESS:          0
cpu3_L2C AVERAGE MISS LATENCY: 1187 cycles
cpu3_L2C TOTAL        ACCESS:      18740 HIT:       9476 MISS:       9264
cpu3_L2C LOAD         ACCESS:       2138 HIT:       1314 MISS:        824
cpu3_L2C RFO          ACCESS:       2524 HIT:        108 MISS:       2416
cpu3_L2C PREFETCH     ACCESS:      10887 HIT:       4958 MISS:       5929
cpu3_L2C WRITE        ACCESS:       3045 HIT:       3043 MISS:          2
cpu3_L2C TRANSLATION  ACCESS:        146 HIT:         53 MISS:         93
cpu3_L2C PREFETCH REQUESTED:          0 ISSUED:          0 USEFUL:          0 USELESS:          0
cpu3_L2C AVERAGE MISS LATENCY: 1187 cycles
cpu3_STLB TOTAL        ACCESS:          0 HIT:          0 MISS:          0
cpu3_STLB LOAD         ACCESS:          0 HIT:          0 MISS:          0
cpu3_STLB RFO          ACCESS:          0 HIT:          0 MISS:          0
cpu3_STLB PREFETCH     ACCESS:          0 HIT:          0 MISS:          0
cpu3_STLB WRITE        ACCESS:          0 HIT:          0 MISS:          0
cpu3_STLB TRANSLATION  ACCESS:          0 HIT:          0 MISS:          0
cpu3_STLB PREFETCH REQUESTED:          0 ISSUED:          0 USEFUL:          0 USELESS:          0
cpu3_STLB AVERAGE MISS LATENCY: 1325 cycles
cpu3_STLB TOTAL        ACCESS:          0 HIT:          0 MISS:          0
cpu3_STLB LOAD         ACCESS:          0 HIT:          0 MISS:          0
cpu3_STLB RFO          ACCESS:          0 HIT:          0 MISS:          0
cpu3_STLB PREFETCH     ACCESS:          0 HIT:          0 MISS:          0
cpu3_STLB WRITE        ACCESS:          0 HIT:          0 MISS:          0
cpu3_STLB TRANSLATION  ACCESS:          0 HIT:          0 MISS:          0
cpu3_STLB PREFETCH REQUESTED:          0 ISSUED:          0 USEFUL:          0 USELESS:          0
cpu3_STLB AVERAGE MISS LATENCY: 1325 cycles
cpu3_STLB TOTAL        ACCESS:          0 HIT:          0 MISS:          0
cpu3_STLB LOAD         ACCESS:          0 HIT:          0 MISS:          0
cpu3_STLB RFO          ACCESS:          0 HIT:          0 MISS:          0
cpu3_STLB PREFETCH     ACCESS:          0 HIT:          0 MISS:          0
cpu3_STLB WRITE        ACCESS:          0 HIT:          0 MISS:          0
cpu3_STLB TRANSLATION  ACCESS:          0 HIT:          0 MISS:          0
cpu3_STLB PREFETCH REQUESTED:          0 ISSUED:          0 USEFUL:          0 USELESS:          0
cpu3_STLB AVERAGE MISS LATENCY: 1325 cycles
cpu3_STLB TOTAL        ACCESS:      10624 HIT:      10459 MISS:        165
cpu3_STLB LOAD         ACCESS:      10624 HIT:      10459 MISS:        165
cpu3_STLB RFO          ACCESS:          0 HIT:          0 MISS:          0
cpu3_STLB PREFETCH     ACCESS:          0 HIT:          0 MISS:          0
cpu3_STLB WRITE        ACCESS:          0 HIT:          0 MISS:          0
cpu3_STLB TRANSLATION  ACCESS:          0 HIT:          0 MISS:          0
cpu3_STLB PREFETCH REQUESTED:          0 ISSUED:          0 USEFUL:          0 USELESS:          0
cpu3_STLB AVERAGE MISS LATENCY: 1325 cycles

DRAM Statistics

Channel 0 RQ ROW_BUFFER_HIT:     466921
  ROW_BUFFER_MISS:     814777
 AVG DBUS CONGESTED CYCLE: 3.973
WQ ROW_BUFFER_HIT: Channel 0 
  ROW_BUFFER_MISS:      76888
  FULL:     756932
BERTI TO_L1: 42337404 TO_L2: 42793655 TO_L2_BC_MSHR: 12764503
BERTI AVG_LAT: 129.906 NUM_TRACK_LATENCY: 3602531 NUM_CANT_TRACK_LATENCY: 14519
BERTI CROSS_PAGE 12470563 NO_CROSS_PAGE: 72660496
BERTI FOUND_BERTI: 16482623 NO_FOUND_BERTI: 92705706
BERTI AVERAGE_ISSUED: 3.37581
BERTI TO_L1: 42337404 TO_L2: 42793655 TO_L2_BC_MSHR: 12764503
BERTI AVG_LAT: 129.906 NUM_TRACK_LATENCY: 3602531 NUM_CANT_TRACK_LATENCY: 14519
BERTI CROSS_PAGE 12470563 NO_CROSS_PAGE: 72660496
BERTI FOUND_BERTI: 16482623 NO_FOUND_BERTI: 92705706
BERTI AVERAGE_ISSUED: 3.37581
BERTI TO_L1: 42337404 TO_L2: 42793655 TO_L2_BC_MSHR: 12764503
BERTI AVG_LAT: 129.906 NUM_TRACK_LATENCY: 3602531 NUM_CANT_TRACK_LATENCY: 14519
BERTI CROSS_PAGE 12470563 NO_CROSS_PAGE: 72660496
BERTI FOUND_BERTI: 16482623 NO_FOUND_BERTI: 92705706
BERTI AVERAGE_ISSUED: 3.37581
BERTI TO_L1: 42337404 TO_L2: 42793655 TO_L2_BC_MSHR: 12764503
BERTI AVG_LAT: 129.906 NUM_TRACK_LATENCY: 3602531 NUM_CANT_TRACK_LATENCY: 14519
BERTI CROSS_PAGE 12470563 NO_CROSS_PAGE: 72660496
BERTI FOUND_BERTI: 16482623 NO_FOUND_BERTI: 92705706
BERTI AVERAGE_ISSUED: 3.37581
