WARNING: physical memory size is smaller than virtual memory size.
WARNING: option --warmup_instructions is deprecated. Use --warmup-instructions instead.
WARNING: option --simulation_instructions is deprecated. Use --simulation-instructions instead.

*** ChampSim Multicore Out-of-Order Simulator ***
Warmup Instructions: 50000000
Simulation Instructions: 150000000
Number of CPUs: 4
Page size: 4096

Berti Prefetcher
BERTI HASH ORIGINAL
BERTI IP MASK ffff
Berti Prefetcher
BERTI HASH ORIGINAL
BERTI IP MASK ffff
Berti Prefetcher
BERTI HASH ORIGINAL
BERTI IP MASK ffff
Berti Prefetcher
BERTI HASH ORIGINAL
BERTI IP MASK ffff
Off-chip DRAM Size: 4 GiB Channels: 1 Width: 64-bit Data Race: 3200 MT/s
Heartbeat CPU 2 instructions: 10000001 cycles: 2521924 heartbeat IPC: 3.965 cumulative IPC: 3.965 (Simulation time: 00 hr 02 min 09 sec)
Heartbeat CPU 3 instructions: 10000002 cycles: 2711601 heartbeat IPC: 3.688 cumulative IPC: 3.688 (Simulation time: 00 hr 02 min 19 sec)
Heartbeat CPU 1 instructions: 10000004 cycles: 3048944 heartbeat IPC: 3.28 cumulative IPC: 3.28 (Simulation time: 00 hr 02 min 38 sec)
Heartbeat CPU 0 instructions: 10000001 cycles: 3446598 heartbeat IPC: 2.901 cumulative IPC: 2.901 (Simulation time: 00 hr 02 min 59 sec)
Heartbeat CPU 2 instructions: 20000000 cycles: 5038320 heartbeat IPC: 3.974 cumulative IPC: 3.97 (Simulation time: 00 hr 04 min 25 sec)
Heartbeat CPU 3 instructions: 20000003 cycles: 5231215 heartbeat IPC: 3.969 cumulative IPC: 3.823 (Simulation time: 00 hr 04 min 35 sec)
Heartbeat CPU 1 instructions: 20000000 cycles: 6091415 heartbeat IPC: 3.287 cumulative IPC: 3.283 (Simulation time: 00 hr 05 min 23 sec)
Heartbeat CPU 0 instructions: 20000001 cycles: 6900884 heartbeat IPC: 2.895 cumulative IPC: 2.898 (Simulation time: 00 hr 06 min 05 sec)
Heartbeat CPU 2 instructions: 30000003 cycles: 7553376 heartbeat IPC: 3.976 cumulative IPC: 3.972 (Simulation time: 00 hr 06 min 41 sec)
Heartbeat CPU 3 instructions: 30000000 cycles: 7750640 heartbeat IPC: 3.969 cumulative IPC: 3.871 (Simulation time: 00 hr 06 min 52 sec)
Heartbeat CPU 1 instructions: 30000002 cycles: 9123551 heartbeat IPC: 3.298 cumulative IPC: 3.288 (Simulation time: 00 hr 08 min 07 sec)
Heartbeat CPU 2 instructions: 40000003 cycles: 10077430 heartbeat IPC: 3.962 cumulative IPC: 3.969 (Simulation time: 00 hr 08 min 58 sec)
Heartbeat CPU 3 instructions: 40000003 cycles: 10280918 heartbeat IPC: 3.952 cumulative IPC: 3.891 (Simulation time: 00 hr 09 min 09 sec)
Heartbeat CPU 0 instructions: 30000003 cycles: 10350520 heartbeat IPC: 2.899 cumulative IPC: 2.898 (Simulation time: 00 hr 09 min 12 sec)
Heartbeat CPU 1 instructions: 40000000 cycles: 12179502 heartbeat IPC: 3.272 cumulative IPC: 3.284 (Simulation time: 00 hr 10 min 58 sec)
Heartbeat CPU 2 instructions: 50000001 cycles: 12599284 heartbeat IPC: 3.965 cumulative IPC: 3.968 (Simulation time: 00 hr 11 min 22 sec)
Warmup finished CPU 2 instructions: 50000001 cycles: 12599285 cumulative IPC: 3.968 (Simulation time: 00 hr 11 min 22 sec)
Heartbeat CPU 3 instructions: 50000003 cycles: 12883312 heartbeat IPC: 3.843 cumulative IPC: 3.881 (Simulation time: 00 hr 11 min 37 sec)
Warmup finished CPU 3 instructions: 50000003 cycles: 12883313 cumulative IPC: 3.881 (Simulation time: 00 hr 11 min 37 sec)
Heartbeat CPU 0 instructions: 40000001 cycles: 13778273 heartbeat IPC: 2.917 cumulative IPC: 2.903 (Simulation time: 00 hr 12 min 30 sec)
Heartbeat CPU 2 instructions: 60000002 cycles: 15124319 heartbeat IPC: 3.96 cumulative IPC: 3.967 (Simulation time: 00 hr 13 min 42 sec)
Heartbeat CPU 1 instructions: 50000004 cycles: 15240142 heartbeat IPC: 3.267 cumulative IPC: 3.281 (Simulation time: 00 hr 13 min 49 sec)
Warmup finished CPU 1 instructions: 50000004 cycles: 15240143 cumulative IPC: 3.281 (Simulation time: 00 hr 13 min 49 sec)
Heartbeat CPU 3 instructions: 60000002 cycles: 15501735 heartbeat IPC: 3.819 cumulative IPC: 3.871 (Simulation time: 00 hr 14 min 04 sec)
Heartbeat CPU 0 instructions: 50000002 cycles: 17204426 heartbeat IPC: 2.919 cumulative IPC: 2.906 (Simulation time: 00 hr 15 min 42 sec)
Warmup finished CPU 0 instructions: 50000002 cycles: 17204427 cumulative IPC: 2.906 (Simulation time: 00 hr 15 min 42 sec)
Warmup complete CPU 0 instructions: 50000002 cycles: 17204427 cumulative IPC: 2.906 (Simulation time: 00 hr 15 min 42 sec)
Warmup complete CPU 1 instructions: 56360990 cycles: 17204427 cumulative IPC: 3.276 (Simulation time: 00 hr 15 min 42 sec)
Warmup complete CPU 2 instructions: 68240258 cycles: 17204427 cumulative IPC: 3.966 (Simulation time: 00 hr 15 min 42 sec)
Warmup complete CPU 3 instructions: 66530042 cycles: 17204427 cumulative IPC: 3.867 (Simulation time: 00 hr 15 min 42 sec)
Heartbeat CPU 2 instructions: 70000004 cycles: 17960757 heartbeat IPC: 3.526 cumulative IPC: 2.327 (Simulation time: 00 hr 16 min 11 sec)
Heartbeat CPU 3 instructions: 70000000 cycles: 19316187 heartbeat IPC: 2.622 cumulative IPC: 1.643 (Simulation time: 00 hr 17 min 03 sec)
Heartbeat CPU 0 instructions: 60000001 cycles: 22210108 heartbeat IPC: 1.998 cumulative IPC: 1.998 (Simulation time: 00 hr 18 min 49 sec)
Heartbeat CPU 2 instructions: 80000000 cycles: 22257436 heartbeat IPC: 2.327 cumulative IPC: 2.327 (Simulation time: 00 hr 18 min 51 sec)
Heartbeat CPU 2 instructions: 90000001 cycles: 26681781 heartbeat IPC: 2.26 cumulative IPC: 2.296 (Simulation time: 00 hr 21 min 32 sec)
Heartbeat CPU 0 instructions: 70000000 cycles: 27080174 heartbeat IPC: 2.053 cumulative IPC: 2.025 (Simulation time: 00 hr 21 min 50 sec)
Heartbeat CPU 3 instructions: 80000003 cycles: 28834713 heartbeat IPC: 1.051 cumulative IPC: 1.158 (Simulation time: 00 hr 22 min 57 sec)
Heartbeat CPU 2 instructions: 100000004 cycles: 31024560 heartbeat IPC: 2.303 cumulative IPC: 2.298 (Simulation time: 00 hr 24 min 13 sec)
Heartbeat CPU 0 instructions: 80000003 cycles: 31969450 heartbeat IPC: 2.045 cumulative IPC: 2.032 (Simulation time: 00 hr 24 min 51 sec)
Heartbeat CPU 3 instructions: 90000003 cycles: 34631863 heartbeat IPC: 1.725 cumulative IPC: 1.347 (Simulation time: 00 hr 26 min 34 sec)
Heartbeat CPU 2 instructions: 110000001 cycles: 35562762 heartbeat IPC: 2.204 cumulative IPC: 2.275 (Simulation time: 00 hr 27 min 08 sec)
Heartbeat CPU 1 instructions: 60000004 cycles: 36483329 heartbeat IPC: 0.4707 cumulative IPC: 0.1888 (Simulation time: 00 hr 27 min 39 sec)
Heartbeat CPU 0 instructions: 90000002 cycles: 37277575 heartbeat IPC: 1.884 cumulative IPC: 1.993 (Simulation time: 00 hr 28 min 05 sec)
Heartbeat CPU 2 instructions: 120000001 cycles: 39921026 heartbeat IPC: 2.294 cumulative IPC: 2.278 (Simulation time: 00 hr 29 min 30 sec)
Heartbeat CPU 0 instructions: 100000000 cycles: 42964944 heartbeat IPC: 1.758 cumulative IPC: 1.941 (Simulation time: 00 hr 31 min 05 sec)
Heartbeat CPU 2 instructions: 130000000 cycles: 44509855 heartbeat IPC: 2.179 cumulative IPC: 2.262 (Simulation time: 00 hr 31 min 55 sec)
Heartbeat CPU 0 instructions: 110000003 cycles: 48531711 heartbeat IPC: 1.796 cumulative IPC: 1.915 (Simulation time: 00 hr 34 min 02 sec)
Heartbeat CPU 2 instructions: 140000000 cycles: 49080609 heartbeat IPC: 2.188 cumulative IPC: 2.251 (Simulation time: 00 hr 34 min 20 sec)
Heartbeat CPU 2 instructions: 150000002 cycles: 53562230 heartbeat IPC: 2.231 cumulative IPC: 2.249 (Simulation time: 00 hr 36 min 42 sec)
Heartbeat CPU 0 instructions: 120000003 cycles: 53988614 heartbeat IPC: 1.833 cumulative IPC: 1.903 (Simulation time: 00 hr 36 min 56 sec)
Heartbeat CPU 2 instructions: 160000001 cycles: 58111465 heartbeat IPC: 2.198 cumulative IPC: 2.243 (Simulation time: 00 hr 39 min 12 sec)
Heartbeat CPU 0 instructions: 130000003 cycles: 59528787 heartbeat IPC: 1.805 cumulative IPC: 1.89 (Simulation time: 00 hr 39 min 59 sec)
Heartbeat CPU 2 instructions: 170000000 cycles: 62659088 heartbeat IPC: 2.199 cumulative IPC: 2.239 (Simulation time: 00 hr 41 min 36 sec)
Heartbeat CPU 0 instructions: 140000000 cycles: 65165866 heartbeat IPC: 1.774 cumulative IPC: 1.877 (Simulation time: 00 hr 42 min 53 sec)
Heartbeat CPU 2 instructions: 180000000 cycles: 67265414 heartbeat IPC: 2.171 cumulative IPC: 2.232 (Simulation time: 00 hr 44 min 00 sec)
Heartbeat CPU 3 instructions: 100000001 cycles: 68853409 heartbeat IPC: 0.2922 cumulative IPC: 0.648 (Simulation time: 00 hr 44 min 47 sec)
Heartbeat CPU 0 instructions: 150000003 cycles: 71149806 heartbeat IPC: 1.671 cumulative IPC: 1.854 (Simulation time: 00 hr 45 min 55 sec)
Heartbeat CPU 2 instructions: 190000000 cycles: 71883680 heartbeat IPC: 2.165 cumulative IPC: 2.227 (Simulation time: 00 hr 46 min 17 sec)
Heartbeat CPU 2 instructions: 200000004 cycles: 76457913 heartbeat IPC: 2.186 cumulative IPC: 2.224 (Simulation time: 00 hr 48 min 35 sec)
Heartbeat CPU 0 instructions: 160000000 cycles: 77533572 heartbeat IPC: 1.566 cumulative IPC: 1.823 (Simulation time: 00 hr 49 min 10 sec)
Heartbeat CPU 2 instructions: 210000001 cycles: 81297739 heartbeat IPC: 2.066 cumulative IPC: 2.212 (Simulation time: 00 hr 51 min 01 sec)
Heartbeat CPU 0 instructions: 170000003 cycles: 84191271 heartbeat IPC: 1.502 cumulative IPC: 1.791 (Simulation time: 00 hr 52 min 22 sec)
Simulation finished CPU 2 instructions: 150000001 cycles: 68458173 cumulative IPC: 2.191 (Simulation time: 00 hr 53 min 03 sec)
Heartbeat CPU 2 instructions: 220000002 cycles: 86422382 heartbeat IPC: 1.951 cumulative IPC: 2.192 (Simulation time: 00 hr 53 min 26 sec)
Heartbeat CPU 0 instructions: 180000002 cycles: 90586172 heartbeat IPC: 1.564 cumulative IPC: 1.772 (Simulation time: 00 hr 55 min 28 sec)
Heartbeat CPU 2 instructions: 230000000 cycles: 91237182 heartbeat IPC: 2.077 cumulative IPC: 2.185 (Simulation time: 00 hr 55 min 47 sec)
Heartbeat CPU 2 instructions: 240000001 cycles: 96108237 heartbeat IPC: 2.053 cumulative IPC: 2.177 (Simulation time: 00 hr 58 min 11 sec)
Heartbeat CPU 0 instructions: 190000000 cycles: 97224494 heartbeat IPC: 1.506 cumulative IPC: 1.75 (Simulation time: 00 hr 58 min 43 sec)
Heartbeat CPU 2 instructions: 250000001 cycles: 100856053 heartbeat IPC: 2.106 cumulative IPC: 2.173 (Simulation time: 01 hr 00 min 28 sec)
Heartbeat CPU 0 instructions: 200000004 cycles: 103682054 heartbeat IPC: 1.549 cumulative IPC: 1.735 (Simulation time: 01 hr 01 min 54 sec)
Simulation finished CPU 0 instructions: 150000002 cycles: 86477628 cumulative IPC: 1.735 (Simulation time: 01 hr 01 min 54 sec)
Heartbeat CPU 2 instructions: 260000000 cycles: 105533013 heartbeat IPC: 2.138 cumulative IPC: 2.171 (Simulation time: 01 hr 02 min 49 sec)
Heartbeat CPU 1 instructions: 70000000 cycles: 107760568 heartbeat IPC: 0.1403 cumulative IPC: 0.1506 (Simulation time: 01 hr 03 min 55 sec)
Heartbeat CPU 0 instructions: 210000003 cycles: 109915307 heartbeat IPC: 1.604 cumulative IPC: 1.726 (Simulation time: 01 hr 04 min 55 sec)
Heartbeat CPU 2 instructions: 270000003 cycles: 110308562 heartbeat IPC: 2.094 cumulative IPC: 2.167 (Simulation time: 01 hr 05 min 06 sec)
Heartbeat CPU 2 instructions: 280000000 cycles: 114987872 heartbeat IPC: 2.137 cumulative IPC: 2.166 (Simulation time: 01 hr 07 min 18 sec)
Heartbeat CPU 0 instructions: 220000000 cycles: 116268424 heartbeat IPC: 1.574 cumulative IPC: 1.716 (Simulation time: 01 hr 07 min 57 sec)
Heartbeat CPU 2 instructions: 290000001 cycles: 119625741 heartbeat IPC: 2.156 cumulative IPC: 2.165 (Simulation time: 01 hr 09 min 32 sec)
Heartbeat CPU 0 instructions: 230000002 cycles: 122307177 heartbeat IPC: 1.656 cumulative IPC: 1.713 (Simulation time: 01 hr 10 min 52 sec)
Heartbeat CPU 2 instructions: 300000002 cycles: 124378815 heartbeat IPC: 2.104 cumulative IPC: 2.162 (Simulation time: 01 hr 11 min 51 sec)
Heartbeat CPU 0 instructions: 240000002 cycles: 128742379 heartbeat IPC: 1.554 cumulative IPC: 1.703 (Simulation time: 01 hr 13 min 58 sec)
Heartbeat CPU 2 instructions: 310000000 cycles: 129038662 heartbeat IPC: 2.146 cumulative IPC: 2.162 (Simulation time: 01 hr 14 min 07 sec)
Heartbeat CPU 2 instructions: 320000002 cycles: 133759425 heartbeat IPC: 2.118 cumulative IPC: 2.16 (Simulation time: 01 hr 16 min 27 sec)
Heartbeat CPU 0 instructions: 250000003 cycles: 134831952 heartbeat IPC: 1.642 cumulative IPC: 1.7 (Simulation time: 01 hr 16 min 59 sec)
Heartbeat CPU 2 instructions: 330000004 cycles: 138570930 heartbeat IPC: 2.078 cumulative IPC: 2.157 (Simulation time: 01 hr 18 min 47 sec)
Heartbeat CPU 0 instructions: 260000001 cycles: 141024215 heartbeat IPC: 1.615 cumulative IPC: 1.696 (Simulation time: 01 hr 20 min 00 sec)
Heartbeat CPU 2 instructions: 340000001 cycles: 143328429 heartbeat IPC: 2.102 cumulative IPC: 2.155 (Simulation time: 01 hr 21 min 10 sec)
Heartbeat CPU 0 instructions: 270000001 cycles: 146982778 heartbeat IPC: 1.678 cumulative IPC: 1.695 (Simulation time: 01 hr 23 min 01 sec)
Heartbeat CPU 3 instructions: 110000001 cycles: 147779048 heartbeat IPC: 0.1267 cumulative IPC: 0.3329 (Simulation time: 01 hr 23 min 28 sec)
Heartbeat CPU 2 instructions: 350000001 cycles: 148100707 heartbeat IPC: 2.095 cumulative IPC: 2.153 (Simulation time: 01 hr 23 min 39 sec)
Heartbeat CPU 0 instructions: 280000001 cycles: 152455584 heartbeat IPC: 1.827 cumulative IPC: 1.701 (Simulation time: 01 hr 25 min 59 sec)
Heartbeat CPU 2 instructions: 360000004 cycles: 152834144 heartbeat IPC: 2.113 cumulative IPC: 2.151 (Simulation time: 01 hr 26 min 11 sec)
Heartbeat CPU 3 instructions: 120000000 cycles: 155271792 heartbeat IPC: 1.335 cumulative IPC: 0.3873 (Simulation time: 01 hr 27 min 36 sec)
Heartbeat CPU 2 instructions: 370000000 cycles: 157355438 heartbeat IPC: 2.212 cumulative IPC: 2.153 (Simulation time: 01 hr 28 min 49 sec)
Heartbeat CPU 0 instructions: 290000000 cycles: 157847560 heartbeat IPC: 1.855 cumulative IPC: 1.706 (Simulation time: 01 hr 29 min 08 sec)
Heartbeat CPU 3 instructions: 130000002 cycles: 159509590 heartbeat IPC: 2.36 cumulative IPC: 0.446 (Simulation time: 01 hr 30 min 10 sec)
Heartbeat CPU 2 instructions: 380000000 cycles: 161932559 heartbeat IPC: 2.185 cumulative IPC: 2.154 (Simulation time: 01 hr 31 min 37 sec)
Heartbeat CPU 0 instructions: 300000004 cycles: 162685968 heartbeat IPC: 2.067 cumulative IPC: 1.718 (Simulation time: 01 hr 32 min 05 sec)
Heartbeat CPU 3 instructions: 140000000 cycles: 163698301 heartbeat IPC: 2.387 cumulative IPC: 0.5015 (Simulation time: 01 hr 32 min 42 sec)
Heartbeat CPU 2 instructions: 390000000 cycles: 166510900 heartbeat IPC: 2.184 cumulative IPC: 2.155 (Simulation time: 01 hr 34 min 19 sec)
Heartbeat CPU 0 instructions: 310000000 cycles: 167856811 heartbeat IPC: 1.934 cumulative IPC: 1.726 (Simulation time: 01 hr 35 min 05 sec)
Heartbeat CPU 2 instructions: 400000000 cycles: 171050446 heartbeat IPC: 2.203 cumulative IPC: 2.156 (Simulation time: 01 hr 36 min 49 sec)
Heartbeat CPU 3 instructions: 150000003 cycles: 171089647 heartbeat IPC: 1.353 cumulative IPC: 0.5424 (Simulation time: 01 hr 36 min 50 sec)
Heartbeat CPU 0 instructions: 320000000 cycles: 173462444 heartbeat IPC: 1.784 cumulative IPC: 1.728 (Simulation time: 01 hr 38 min 04 sec)
Heartbeat CPU 2 instructions: 410000000 cycles: 175593822 heartbeat IPC: 2.201 cumulative IPC: 2.158 (Simulation time: 01 hr 39 min 13 sec)
Heartbeat CPU 1 instructions: 80000001 cycles: 176098264 heartbeat IPC: 0.1463 cumulative IPC: 0.1488 (Simulation time: 01 hr 39 min 29 sec)
Heartbeat CPU 3 instructions: 160000000 cycles: 178656793 heartbeat IPC: 1.322 cumulative IPC: 0.5789 (Simulation time: 01 hr 40 min 50 sec)
Heartbeat CPU 2 instructions: 420000004 cycles: 180185260 heartbeat IPC: 2.178 cumulative IPC: 2.158 (Simulation time: 01 hr 41 min 33 sec)
Heartbeat CPU 0 instructions: 330000000 cycles: 180478371 heartbeat IPC: 1.425 cumulative IPC: 1.715 (Simulation time: 01 hr 41 min 42 sec)
Heartbeat CPU 2 instructions: 430000004 cycles: 184839654 heartbeat IPC: 2.149 cumulative IPC: 2.158 (Simulation time: 01 hr 44 min 03 sec)
Heartbeat CPU 0 instructions: 340000002 cycles: 185970722 heartbeat IPC: 1.821 cumulative IPC: 1.718 (Simulation time: 01 hr 44 min 37 sec)
Heartbeat CPU 3 instructions: 170000000 cycles: 187264429 heartbeat IPC: 1.162 cumulative IPC: 0.6084 (Simulation time: 01 hr 45 min 20 sec)
Heartbeat CPU 2 instructions: 440000003 cycles: 189484866 heartbeat IPC: 2.153 cumulative IPC: 2.158 (Simulation time: 01 hr 46 min 40 sec)
Heartbeat CPU 0 instructions: 350000002 cycles: 190589959 heartbeat IPC: 2.165 cumulative IPC: 1.73 (Simulation time: 01 hr 47 min 20 sec)
Heartbeat CPU 2 instructions: 450000003 cycles: 193954057 heartbeat IPC: 2.238 cumulative IPC: 2.16 (Simulation time: 01 hr 49 min 08 sec)
Heartbeat CPU 0 instructions: 360000002 cycles: 194897563 heartbeat IPC: 2.321 cumulative IPC: 1.745 (Simulation time: 01 hr 49 min 41 sec)
Heartbeat CPU 3 instructions: 180000000 cycles: 195694668 heartbeat IPC: 1.186 cumulative IPC: 0.6357 (Simulation time: 01 hr 50 min 07 sec)
Heartbeat CPU 2 instructions: 460000003 cycles: 198581515 heartbeat IPC: 2.161 cumulative IPC: 2.16 (Simulation time: 01 hr 51 min 43 sec)
Heartbeat CPU 0 instructions: 370000000 cycles: 199498667 heartbeat IPC: 2.173 cumulative IPC: 1.755 (Simulation time: 01 hr 52 min 12 sec)
Heartbeat CPU 3 instructions: 190000002 cycles: 202288456 heartbeat IPC: 1.517 cumulative IPC: 0.6671 (Simulation time: 01 hr 53 min 53 sec)
Heartbeat CPU 2 instructions: 470000002 cycles: 202927986 heartbeat IPC: 2.301 cumulative IPC: 2.163 (Simulation time: 01 hr 54 min 17 sec)
Heartbeat CPU 0 instructions: 380000004 cycles: 203811865 heartbeat IPC: 2.318 cumulative IPC: 1.768 (Simulation time: 01 hr 54 min 48 sec)
Heartbeat CPU 2 instructions: 480000000 cycles: 207391633 heartbeat IPC: 2.24 cumulative IPC: 2.165 (Simulation time: 01 hr 56 min 44 sec)
Heartbeat CPU 0 instructions: 390000001 cycles: 208446013 heartbeat IPC: 2.158 cumulative IPC: 1.778 (Simulation time: 01 hr 57 min 16 sec)
Heartbeat CPU 2 instructions: 490000002 cycles: 211726386 heartbeat IPC: 2.307 cumulative IPC: 2.168 (Simulation time: 01 hr 58 min 58 sec)
Heartbeat CPU 0 instructions: 400000001 cycles: 212791009 heartbeat IPC: 2.301 cumulative IPC: 1.789 (Simulation time: 01 hr 59 min 31 sec)
Heartbeat CPU 2 instructions: 500000000 cycles: 216129559 heartbeat IPC: 2.271 cumulative IPC: 2.17 (Simulation time: 02 hr 01 min 14 sec)
Heartbeat CPU 0 instructions: 410000002 cycles: 217161028 heartbeat IPC: 2.288 cumulative IPC: 1.8 (Simulation time: 02 hr 01 min 48 sec)
Heartbeat CPU 2 instructions: 510000004 cycles: 220463557 heartbeat IPC: 2.307 cumulative IPC: 2.173 (Simulation time: 02 hr 03 min 29 sec)
Heartbeat CPU 0 instructions: 420000004 cycles: 221835891 heartbeat IPC: 2.139 cumulative IPC: 1.808 (Simulation time: 02 hr 04 min 14 sec)
Heartbeat CPU 2 instructions: 520000000 cycles: 224910202 heartbeat IPC: 2.249 cumulative IPC: 2.175 (Simulation time: 02 hr 05 min 56 sec)
Heartbeat CPU 0 instructions: 430000000 cycles: 226466753 heartbeat IPC: 2.159 cumulative IPC: 1.816 (Simulation time: 02 hr 06 min 48 sec)
Heartbeat CPU 1 instructions: 90000000 cycles: 227091304 heartbeat IPC: 0.1961 cumulative IPC: 0.1603 (Simulation time: 02 hr 07 min 07 sec)
Heartbeat CPU 3 instructions: 200000004 cycles: 228668635 heartbeat IPC: 0.3791 cumulative IPC: 0.6312 (Simulation time: 02 hr 07 min 54 sec)
Heartbeat CPU 0 instructions: 440000000 cycles: 232434073 heartbeat IPC: 1.676 cumulative IPC: 1.812 (Simulation time: 02 hr 09 min 37 sec)
Heartbeat CPU 2 instructions: 530000002 cycles: 234330584 heartbeat IPC: 1.062 cumulative IPC: 2.127 (Simulation time: 02 hr 10 min 32 sec)
Heartbeat CPU 0 instructions: 450000003 cycles: 237927939 heartbeat IPC: 1.82 cumulative IPC: 1.812 (Simulation time: 02 hr 12 min 12 sec)
Heartbeat CPU 2 instructions: 540000003 cycles: 241745755 heartbeat IPC: 1.349 cumulative IPC: 2.101 (Simulation time: 02 hr 14 min 01 sec)
Heartbeat CPU 0 instructions: 460000003 cycles: 243337707 heartbeat IPC: 1.849 cumulative IPC: 1.813 (Simulation time: 02 hr 14 min 48 sec)
Heartbeat CPU 2 instructions: 550000002 cycles: 246077206 heartbeat IPC: 2.309 cumulative IPC: 2.105 (Simulation time: 02 hr 16 min 12 sec)
Heartbeat CPU 0 instructions: 470000002 cycles: 248401831 heartbeat IPC: 1.975 cumulative IPC: 1.817 (Simulation time: 02 hr 17 min 20 sec)
Heartbeat CPU 2 instructions: 560000002 cycles: 250554152 heartbeat IPC: 2.234 cumulative IPC: 2.107 (Simulation time: 02 hr 18 min 24 sec)
Heartbeat CPU 0 instructions: 480000001 cycles: 253706755 heartbeat IPC: 1.885 cumulative IPC: 1.818 (Simulation time: 02 hr 19 min 54 sec)
Heartbeat CPU 2 instructions: 570000001 cycles: 254899483 heartbeat IPC: 2.301 cumulative IPC: 2.111 (Simulation time: 02 hr 20 min 29 sec)
Heartbeat CPU 0 instructions: 490000002 cycles: 259111402 heartbeat IPC: 1.85 cumulative IPC: 1.819 (Simulation time: 02 hr 22 min 28 sec)
Heartbeat CPU 2 instructions: 580000002 cycles: 259359458 heartbeat IPC: 2.242 cumulative IPC: 2.113 (Simulation time: 02 hr 22 min 34 sec)
Heartbeat CPU 2 instructions: 590000002 cycles: 263648823 heartbeat IPC: 2.331 cumulative IPC: 2.117 (Simulation time: 02 hr 24 min 37 sec)
Heartbeat CPU 0 instructions: 500000002 cycles: 264631672 heartbeat IPC: 1.812 cumulative IPC: 1.819 (Simulation time: 02 hr 25 min 07 sec)
Heartbeat CPU 2 instructions: 600000000 cycles: 267912819 heartbeat IPC: 2.345 cumulative IPC: 2.121 (Simulation time: 02 hr 26 min 44 sec)
Heartbeat CPU 0 instructions: 510000004 cycles: 270115558 heartbeat IPC: 1.824 cumulative IPC: 1.819 (Simulation time: 02 hr 27 min 50 sec)
Heartbeat CPU 2 instructions: 610000000 cycles: 272323532 heartbeat IPC: 2.267 cumulative IPC: 2.124 (Simulation time: 02 hr 28 min 53 sec)
Heartbeat CPU 0 instructions: 520000004 cycles: 276132996 heartbeat IPC: 1.662 cumulative IPC: 1.815 (Simulation time: 02 hr 30 min 43 sec)
Heartbeat CPU 2 instructions: 620000001 cycles: 276784824 heartbeat IPC: 2.242 cumulative IPC: 2.126 (Simulation time: 02 hr 31 min 04 sec)
Heartbeat CPU 2 instructions: 630000001 cycles: 281295805 heartbeat IPC: 2.217 cumulative IPC: 2.127 (Simulation time: 02 hr 33 min 13 sec)
Heartbeat CPU 0 instructions: 530000002 cycles: 281829736 heartbeat IPC: 1.755 cumulative IPC: 1.814 (Simulation time: 02 hr 33 min 28 sec)
Heartbeat CPU 2 instructions: 640000001 cycles: 285641827 heartbeat IPC: 2.301 cumulative IPC: 2.13 (Simulation time: 02 hr 35 min 15 sec)
Heartbeat CPU 0 instructions: 540000004 cycles: 287531701 heartbeat IPC: 1.754 cumulative IPC: 1.813 (Simulation time: 02 hr 36 min 08 sec)
Heartbeat CPU 2 instructions: 650000000 cycles: 290092044 heartbeat IPC: 2.247 cumulative IPC: 2.132 (Simulation time: 02 hr 37 min 19 sec)
Heartbeat CPU 0 instructions: 550000001 cycles: 293649240 heartbeat IPC: 1.635 cumulative IPC: 1.809 (Simulation time: 02 hr 38 min 58 sec)
Heartbeat CPU 2 instructions: 660000002 cycles: 294622322 heartbeat IPC: 2.207 cumulative IPC: 2.133 (Simulation time: 02 hr 39 min 25 sec)
Heartbeat CPU 2 instructions: 670000001 cycles: 299210813 heartbeat IPC: 2.179 cumulative IPC: 2.134 (Simulation time: 02 hr 41 min 33 sec)
Heartbeat CPU 0 instructions: 560000002 cycles: 299696201 heartbeat IPC: 1.654 cumulative IPC: 1.805 (Simulation time: 02 hr 41 min 47 sec)
Heartbeat CPU 2 instructions: 680000004 cycles: 303996891 heartbeat IPC: 2.089 cumulative IPC: 2.133 (Simulation time: 02 hr 43 min 53 sec)
Heartbeat CPU 0 instructions: 570000001 cycles: 305331193 heartbeat IPC: 1.775 cumulative IPC: 1.805 (Simulation time: 02 hr 44 min 32 sec)
Heartbeat CPU 2 instructions: 690000001 cycles: 308681497 heartbeat IPC: 2.135 cumulative IPC: 2.133 (Simulation time: 02 hr 46 min 07 sec)
Heartbeat CPU 0 instructions: 580000004 cycles: 310904018 heartbeat IPC: 1.794 cumulative IPC: 1.805 (Simulation time: 02 hr 47 min 10 sec)
Heartbeat CPU 2 instructions: 700000000 cycles: 313491082 heartbeat IPC: 2.079 cumulative IPC: 2.132 (Simulation time: 02 hr 48 min 23 sec)
Heartbeat CPU 1 instructions: 100000000 cycles: 315428102 heartbeat IPC: 0.1132 cumulative IPC: 0.1463 (Simulation time: 02 hr 49 min 18 sec)
Heartbeat CPU 0 instructions: 590000004 cycles: 316147380 heartbeat IPC: 1.907 cumulative IPC: 1.806 (Simulation time: 02 hr 49 min 40 sec)
Heartbeat CPU 2 instructions: 710000002 cycles: 318125923 heartbeat IPC: 2.158 cumulative IPC: 2.133 (Simulation time: 02 hr 50 min 37 sec)
Heartbeat CPU 3 instructions: 210000003 cycles: 319086187 heartbeat IPC: 0.1106 cumulative IPC: 0.4753 (Simulation time: 02 hr 51 min 07 sec)
Heartbeat CPU 0 instructions: 600000002 cycles: 321147842 heartbeat IPC: 2 cumulative IPC: 1.81 (Simulation time: 02 hr 52 min 16 sec)
Heartbeat CPU 2 instructions: 720000004 cycles: 322767664 heartbeat IPC: 2.154 cumulative IPC: 2.133 (Simulation time: 02 hr 53 min 05 sec)
Simulation finished CPU 3 instructions: 150000000 cycles: 308419826 cumulative IPC: 0.4864 (Simulation time: 02 hr 54 min 32 sec)
Heartbeat CPU 0 instructions: 610000000 cycles: 325843621 heartbeat IPC: 2.13 cumulative IPC: 1.814 (Simulation time: 02 hr 54 min 39 sec)
Heartbeat CPU 3 instructions: 220000001 cycles: 327143645 heartbeat IPC: 1.241 cumulative IPC: 0.4952 (Simulation time: 02 hr 55 min 24 sec)
Heartbeat CPU 2 instructions: 730000002 cycles: 327345588 heartbeat IPC: 2.184 cumulative IPC: 2.134 (Simulation time: 02 hr 55 min 31 sec)
Heartbeat CPU 0 instructions: 620000003 cycles: 330425819 heartbeat IPC: 2.182 cumulative IPC: 1.82 (Simulation time: 02 hr 57 min 21 sec)
Heartbeat CPU 3 instructions: 230000001 cycles: 331181235 heartbeat IPC: 2.477 cumulative IPC: 0.5206 (Simulation time: 02 hr 57 min 46 sec)
Heartbeat CPU 2 instructions: 740000004 cycles: 331903903 heartbeat IPC: 2.194 cumulative IPC: 2.135 (Simulation time: 02 hr 58 min 09 sec)
Heartbeat CPU 0 instructions: 630000002 cycles: 335176443 heartbeat IPC: 2.105 cumulative IPC: 1.824 (Simulation time: 02 hr 59 min 59 sec)
Heartbeat CPU 3 instructions: 240000000 cycles: 335379459 heartbeat IPC: 2.382 cumulative IPC: 0.5452 (Simulation time: 03 hr 00 min 06 sec)
Heartbeat CPU 2 instructions: 750000001 cycles: 336535515 heartbeat IPC: 2.159 cumulative IPC: 2.135 (Simulation time: 03 hr 00 min 41 sec)
Heartbeat CPU 0 instructions: 640000004 cycles: 339802642 heartbeat IPC: 2.162 cumulative IPC: 1.829 (Simulation time: 03 hr 02 min 23 sec)
Heartbeat CPU 2 instructions: 760000000 cycles: 341135331 heartbeat IPC: 2.174 cumulative IPC: 2.136 (Simulation time: 03 hr 03 min 03 sec)
Heartbeat CPU 3 instructions: 250000004 cycles: 341989897 heartbeat IPC: 1.513 cumulative IPC: 0.5649 (Simulation time: 03 hr 03 min 28 sec)
Heartbeat CPU 0 instructions: 650000002 cycles: 344445196 heartbeat IPC: 2.154 cumulative IPC: 1.834 (Simulation time: 03 hr 04 min 42 sec)
Heartbeat CPU 2 instructions: 770000002 cycles: 345695398 heartbeat IPC: 2.193 cumulative IPC: 2.136 (Simulation time: 03 hr 05 min 20 sec)
Heartbeat CPU 0 instructions: 660000000 cycles: 348873952 heartbeat IPC: 2.258 cumulative IPC: 1.839 (Simulation time: 03 hr 07 min 02 sec)
Heartbeat CPU 3 instructions: 260000000 cycles: 350017699 heartbeat IPC: 1.246 cumulative IPC: 0.5813 (Simulation time: 03 hr 07 min 38 sec)
Heartbeat CPU 2 instructions: 780000002 cycles: 350226226 heartbeat IPC: 2.207 cumulative IPC: 2.137 (Simulation time: 03 hr 07 min 44 sec)
Heartbeat CPU 0 instructions: 670000003 cycles: 353468918 heartbeat IPC: 2.176 cumulative IPC: 1.844 (Simulation time: 03 hr 09 min 27 sec)
Heartbeat CPU 2 instructions: 790000002 cycles: 354727160 heartbeat IPC: 2.222 cumulative IPC: 2.138 (Simulation time: 03 hr 10 min 06 sec)
Heartbeat CPU 3 instructions: 270000000 cycles: 357732722 heartbeat IPC: 1.296 cumulative IPC: 0.5975 (Simulation time: 03 hr 11 min 43 sec)
Heartbeat CPU 0 instructions: 680000002 cycles: 357999073 heartbeat IPC: 2.207 cumulative IPC: 1.849 (Simulation time: 03 hr 11 min 52 sec)
Heartbeat CPU 2 instructions: 800000001 cycles: 359211743 heartbeat IPC: 2.23 cumulative IPC: 2.14 (Simulation time: 03 hr 12 min 28 sec)
Heartbeat CPU 0 instructions: 690000002 cycles: 362415834 heartbeat IPC: 2.264 cumulative IPC: 1.854 (Simulation time: 03 hr 14 min 12 sec)
Heartbeat CPU 2 instructions: 810000000 cycles: 363763992 heartbeat IPC: 2.197 cumulative IPC: 2.14 (Simulation time: 03 hr 14 min 59 sec)
Heartbeat CPU 3 instructions: 280000001 cycles: 365381847 heartbeat IPC: 1.307 cumulative IPC: 0.6131 (Simulation time: 03 hr 15 min 45 sec)
Heartbeat CPU 0 instructions: 700000004 cycles: 367185657 heartbeat IPC: 2.097 cumulative IPC: 1.857 (Simulation time: 03 hr 16 min 38 sec)
Heartbeat CPU 2 instructions: 820000000 cycles: 368281918 heartbeat IPC: 2.213 cumulative IPC: 2.141 (Simulation time: 03 hr 17 min 12 sec)
Heartbeat CPU 1 instructions: 110000002 cycles: 368556955 heartbeat IPC: 0.1882 cumulative IPC: 0.1527 (Simulation time: 03 hr 17 min 20 sec)
Heartbeat CPU 2 instructions: 830000004 cycles: 372826093 heartbeat IPC: 2.201 cumulative IPC: 2.142 (Simulation time: 03 hr 19 min 18 sec)
Heartbeat CPU 0 instructions: 710000001 cycles: 373428433 heartbeat IPC: 1.602 cumulative IPC: 1.853 (Simulation time: 03 hr 19 min 35 sec)
Heartbeat CPU 3 instructions: 290000002 cycles: 374515726 heartbeat IPC: 1.095 cumulative IPC: 0.6254 (Simulation time: 03 hr 20 min 13 sec)
Heartbeat CPU 2 instructions: 840000003 cycles: 377416937 heartbeat IPC: 2.178 cumulative IPC: 2.143 (Simulation time: 03 hr 21 min 47 sec)
Heartbeat CPU 0 instructions: 720000002 cycles: 378077149 heartbeat IPC: 2.151 cumulative IPC: 1.857 (Simulation time: 03 hr 22 min 08 sec)
Heartbeat CPU 2 instructions: 850000001 cycles: 381930101 heartbeat IPC: 2.216 cumulative IPC: 2.143 (Simulation time: 03 hr 24 min 04 sec)
Heartbeat CPU 0 instructions: 730000000 cycles: 382652480 heartbeat IPC: 2.186 cumulative IPC: 1.861 (Simulation time: 03 hr 24 min 24 sec)
Heartbeat CPU 2 instructions: 860000003 cycles: 386494766 heartbeat IPC: 2.191 cumulative IPC: 2.144 (Simulation time: 03 hr 26 min 17 sec)
Heartbeat CPU 0 instructions: 740000001 cycles: 387069760 heartbeat IPC: 2.264 cumulative IPC: 1.866 (Simulation time: 03 hr 26 min 34 sec)
Heartbeat CPU 3 instructions: 300000002 cycles: 390407221 heartbeat IPC: 0.6293 cumulative IPC: 0.6256 (Simulation time: 03 hr 28 min 10 sec)
Heartbeat CPU 2 instructions: 870000003 cycles: 391018047 heartbeat IPC: 2.211 cumulative IPC: 2.145 (Simulation time: 03 hr 28 min 27 sec)
Heartbeat CPU 0 instructions: 750000002 cycles: 391559868 heartbeat IPC: 2.227 cumulative IPC: 1.87 (Simulation time: 03 hr 28 min 43 sec)
Heartbeat CPU 2 instructions: 880000000 cycles: 395544184 heartbeat IPC: 2.209 cumulative IPC: 2.146 (Simulation time: 03 hr 30 min 33 sec)
Heartbeat CPU 0 instructions: 760000002 cycles: 395968247 heartbeat IPC: 2.268 cumulative IPC: 1.875 (Simulation time: 03 hr 30 min 45 sec)
Heartbeat CPU 2 instructions: 890000004 cycles: 400087061 heartbeat IPC: 2.201 cumulative IPC: 2.146 (Simulation time: 03 hr 32 min 44 sec)
Heartbeat CPU 0 instructions: 770000000 cycles: 400674006 heartbeat IPC: 2.125 cumulative IPC: 1.878 (Simulation time: 03 hr 33 min 02 sec)
Heartbeat CPU 2 instructions: 900000000 cycles: 404636781 heartbeat IPC: 2.198 cumulative IPC: 2.147 (Simulation time: 03 hr 34 min 57 sec)
Heartbeat CPU 0 instructions: 780000002 cycles: 405422116 heartbeat IPC: 2.106 cumulative IPC: 1.88 (Simulation time: 03 hr 35 min 20 sec)
Heartbeat CPU 2 instructions: 910000003 cycles: 409296487 heartbeat IPC: 2.146 cumulative IPC: 2.147 (Simulation time: 03 hr 37 min 14 sec)
Heartbeat CPU 0 instructions: 790000000 cycles: 410238592 heartbeat IPC: 2.076 cumulative IPC: 1.883 (Simulation time: 03 hr 37 min 44 sec)
Heartbeat CPU 2 instructions: 920000001 cycles: 413847973 heartbeat IPC: 2.197 cumulative IPC: 2.147 (Simulation time: 03 hr 39 min 30 sec)
Heartbeat CPU 0 instructions: 800000000 cycles: 415971190 heartbeat IPC: 1.744 cumulative IPC: 1.881 (Simulation time: 03 hr 40 min 30 sec)
Heartbeat CPU 2 instructions: 930000001 cycles: 418520364 heartbeat IPC: 2.14 cumulative IPC: 2.147 (Simulation time: 03 hr 41 min 41 sec)
Heartbeat CPU 0 instructions: 810000003 cycles: 421668932 heartbeat IPC: 1.755 cumulative IPC: 1.879 (Simulation time: 03 hr 43 min 07 sec)
Heartbeat CPU 2 instructions: 940000000 cycles: 423343887 heartbeat IPC: 2.073 cumulative IPC: 2.146 (Simulation time: 03 hr 43 min 55 sec)
Heartbeat CPU 0 instructions: 820000003 cycles: 427447152 heartbeat IPC: 1.731 cumulative IPC: 1.877 (Simulation time: 03 hr 46 min 01 sec)
Heartbeat CPU 2 instructions: 950000000 cycles: 428101663 heartbeat IPC: 2.102 cumulative IPC: 2.146 (Simulation time: 03 hr 46 min 19 sec)
Heartbeat CPU 1 instructions: 120000003 cycles: 430130123 heartbeat IPC: 0.1624 cumulative IPC: 0.1541 (Simulation time: 03 hr 47 min 20 sec)
Heartbeat CPU 2 instructions: 960000003 cycles: 432903822 heartbeat IPC: 2.082 cumulative IPC: 2.145 (Simulation time: 03 hr 48 min 44 sec)
Heartbeat CPU 0 instructions: 830000001 cycles: 433332100 heartbeat IPC: 1.699 cumulative IPC: 1.874 (Simulation time: 03 hr 48 min 57 sec)
Heartbeat CPU 2 instructions: 970000001 cycles: 437550676 heartbeat IPC: 2.152 cumulative IPC: 2.145 (Simulation time: 03 hr 51 min 00 sec)
Heartbeat CPU 0 instructions: 840000000 cycles: 439207349 heartbeat IPC: 1.702 cumulative IPC: 1.872 (Simulation time: 03 hr 51 min 45 sec)
Heartbeat CPU 2 instructions: 980000000 cycles: 442331460 heartbeat IPC: 2.092 cumulative IPC: 2.145 (Simulation time: 03 hr 53 min 39 sec)
Heartbeat CPU 0 instructions: 850000002 cycles: 444861354 heartbeat IPC: 1.769 cumulative IPC: 1.871 (Simulation time: 03 hr 54 min 50 sec)
Heartbeat CPU 2 instructions: 990000004 cycles: 447035543 heartbeat IPC: 2.126 cumulative IPC: 2.144 (Simulation time: 03 hr 56 min 01 sec)
Heartbeat CPU 0 instructions: 860000004 cycles: 450537412 heartbeat IPC: 1.762 cumulative IPC: 1.869 (Simulation time: 03 hr 57 min 54 sec)
Heartbeat CPU 2 instructions: 1000000004 cycles: 451730317 heartbeat IPC: 2.13 cumulative IPC: 2.144 (Simulation time: 03 hr 58 min 35 sec)
Heartbeat CPU 0 instructions: 870000002 cycles: 456083948 heartbeat IPC: 1.803 cumulative IPC: 1.868 (Simulation time: 04 hr 00 min 49 sec)
Heartbeat CPU 2 instructions: 1010000000 cycles: 456506292 heartbeat IPC: 2.094 cumulative IPC: 2.144 (Simulation time: 04 hr 01 min 03 sec)
Heartbeat CPU 2 instructions: 1020000002 cycles: 461100155 heartbeat IPC: 2.177 cumulative IPC: 2.144 (Simulation time: 04 hr 03 min 11 sec)
Heartbeat CPU 0 instructions: 880000000 cycles: 461633174 heartbeat IPC: 1.802 cumulative IPC: 1.868 (Simulation time: 04 hr 03 min 25 sec)
Heartbeat CPU 2 instructions: 1030000004 cycles: 465683752 heartbeat IPC: 2.182 cumulative IPC: 2.144 (Simulation time: 04 hr 05 min 17 sec)
Heartbeat CPU 0 instructions: 890000003 cycles: 467178162 heartbeat IPC: 1.803 cumulative IPC: 1.867 (Simulation time: 04 hr 06 min 00 sec)
Heartbeat CPU 2 instructions: 1040000001 cycles: 470223112 heartbeat IPC: 2.203 cumulative IPC: 2.145 (Simulation time: 04 hr 07 min 22 sec)
Heartbeat CPU 0 instructions: 900000000 cycles: 472905918 heartbeat IPC: 1.746 cumulative IPC: 1.865 (Simulation time: 04 hr 08 min 30 sec)
Heartbeat CPU 2 instructions: 1050000001 cycles: 474525601 heartbeat IPC: 2.324 cumulative IPC: 2.147 (Simulation time: 04 hr 09 min 12 sec)
Heartbeat CPU 2 instructions: 1060000001 cycles: 478901418 heartbeat IPC: 2.285 cumulative IPC: 2.148 (Simulation time: 04 hr 11 min 19 sec)
Heartbeat CPU 0 instructions: 910000000 cycles: 479327849 heartbeat IPC: 1.557 cumulative IPC: 1.861 (Simulation time: 04 hr 11 min 36 sec)
Heartbeat CPU 2 instructions: 1070000000 cycles: 483443577 heartbeat IPC: 2.202 cumulative IPC: 2.149 (Simulation time: 04 hr 13 min 33 sec)
Heartbeat CPU 0 instructions: 920000004 cycles: 486441808 heartbeat IPC: 1.406 cumulative IPC: 1.854 (Simulation time: 04 hr 15 min 03 sec)
Heartbeat CPU 3 instructions: 310000000 cycles: 486551920 heartbeat IPC: 0.104 cumulative IPC: 0.5187 (Simulation time: 04 hr 15 min 06 sec)
Heartbeat CPU 2 instructions: 1080000000 cycles: 487902179 heartbeat IPC: 2.243 cumulative IPC: 2.149 (Simulation time: 04 hr 15 min 42 sec)
Heartbeat CPU 2 instructions: 1090000000 cycles: 492209111 heartbeat IPC: 2.322 cumulative IPC: 2.151 (Simulation time: 04 hr 17 min 52 sec)
Heartbeat CPU 0 instructions: 930000002 cycles: 493193613 heartbeat IPC: 1.481 cumulative IPC: 1.849 (Simulation time: 04 hr 18 min 24 sec)
Heartbeat CPU 2 instructions: 1100000000 cycles: 496498577 heartbeat IPC: 2.331 cumulative IPC: 2.153 (Simulation time: 04 hr 20 min 10 sec)
Heartbeat CPU 3 instructions: 320000004 cycles: 496761172 heartbeat IPC: 0.9795 cumulative IPC: 0.5286 (Simulation time: 04 hr 20 min 22 sec)
Heartbeat CPU 0 instructions: 940000000 cycles: 498065889 heartbeat IPC: 2.052 cumulative IPC: 1.851 (Simulation time: 04 hr 21 min 11 sec)
Heartbeat CPU 2 instructions: 1110000001 cycles: 500935032 heartbeat IPC: 2.254 cumulative IPC: 2.154 (Simulation time: 04 hr 23 min 01 sec)
Heartbeat CPU 3 instructions: 330000002 cycles: 500948450 heartbeat IPC: 2.388 cumulative IPC: 0.5446 (Simulation time: 04 hr 23 min 01 sec)
Heartbeat CPU 0 instructions: 950000000 cycles: 502566299 heartbeat IPC: 2.222 cumulative IPC: 1.854 (Simulation time: 04 hr 23 min 59 sec)
Heartbeat CPU 3 instructions: 340000004 cycles: 504953632 heartbeat IPC: 2.497 cumulative IPC: 0.5607 (Simulation time: 04 hr 25 min 22 sec)
Heartbeat CPU 2 instructions: 1120000004 cycles: 505250980 heartbeat IPC: 2.317 cumulative IPC: 2.155 (Simulation time: 04 hr 25 min 33 sec)
Heartbeat CPU 1 instructions: 130000000 cycles: 506787759 heartbeat IPC: 0.1305 cumulative IPC: 0.1504 (Simulation time: 04 hr 26 min 22 sec)
Heartbeat CPU 0 instructions: 960000001 cycles: 507036430 heartbeat IPC: 2.237 cumulative IPC: 1.858 (Simulation time: 04 hr 26 min 31 sec)
Heartbeat CPU 2 instructions: 1130000000 cycles: 509763465 heartbeat IPC: 2.216 cumulative IPC: 2.156 (Simulation time: 04 hr 28 min 04 sec)
Heartbeat CPU 3 instructions: 350000004 cycles: 510441083 heartbeat IPC: 1.822 cumulative IPC: 0.5747 (Simulation time: 04 hr 28 min 25 sec)
Heartbeat CPU 0 instructions: 970000002 cycles: 511504826 heartbeat IPC: 2.238 cumulative IPC: 1.861 (Simulation time: 04 hr 28 min 59 sec)
Heartbeat CPU 2 instructions: 1140000002 cycles: 514231333 heartbeat IPC: 2.238 cumulative IPC: 2.156 (Simulation time: 04 hr 30 min 22 sec)
Heartbeat CPU 0 instructions: 980000001 cycles: 516147526 heartbeat IPC: 2.154 cumulative IPC: 1.864 (Simulation time: 04 hr 31 min 26 sec)
Heartbeat CPU 3 instructions: 360000001 cycles: 517268014 heartbeat IPC: 1.465 cumulative IPC: 0.5869 (Simulation time: 04 hr 32 min 03 sec)
Heartbeat CPU 2 instructions: 1150000000 cycles: 518507851 heartbeat IPC: 2.338 cumulative IPC: 2.158 (Simulation time: 04 hr 32 min 43 sec)
Heartbeat CPU 0 instructions: 990000003 cycles: 521277184 heartbeat IPC: 1.949 cumulative IPC: 1.865 (Simulation time: 04 hr 33 min 58 sec)
Heartbeat CPU 3 instructions: 370000002 cycles: 526077711 heartbeat IPC: 1.135 cumulative IPC: 0.5964 (Simulation time: 04 hr 36 min 22 sec)
Heartbeat CPU 0 instructions: 1000000002 cycles: 526823333 heartbeat IPC: 1.803 cumulative IPC: 1.864 (Simulation time: 04 hr 36 min 43 sec)
Heartbeat CPU 2 instructions: 1160000001 cycles: 530719969 heartbeat IPC: 0.8189 cumulative IPC: 2.126 (Simulation time: 04 hr 38 min 41 sec)
Heartbeat CPU 0 instructions: 1010000001 cycles: 532022811 heartbeat IPC: 1.923 cumulative IPC: 1.865 (Simulation time: 04 hr 39 min 20 sec)
Heartbeat CPU 3 instructions: 380000002 cycles: 534477882 heartbeat IPC: 1.19 cumulative IPC: 0.606 (Simulation time: 04 hr 40 min 35 sec)
Heartbeat CPU 2 instructions: 1170000004 cycles: 535224214 heartbeat IPC: 2.22 cumulative IPC: 2.127 (Simulation time: 04 hr 41 min 03 sec)
Heartbeat CPU 0 instructions: 1020000003 cycles: 536491483 heartbeat IPC: 2.238 cumulative IPC: 1.868 (Simulation time: 04 hr 41 min 49 sec)
Heartbeat CPU 2 instructions: 1180000001 cycles: 539539880 heartbeat IPC: 2.317 cumulative IPC: 2.128 (Simulation time: 04 hr 43 min 20 sec)
Heartbeat CPU 0 instructions: 1030000001 cycles: 540940320 heartbeat IPC: 2.248 cumulative IPC: 1.871 (Simulation time: 04 hr 44 min 05 sec)
Heartbeat CPU 3 instructions: 390000000 cycles: 543399216 heartbeat IPC: 1.121 cumulative IPC: 0.6147 (Simulation time: 04 hr 45 min 27 sec)
Heartbeat CPU 2 instructions: 1190000001 cycles: 543948121 heartbeat IPC: 2.268 cumulative IPC: 2.13 (Simulation time: 04 hr 45 min 46 sec)
Heartbeat CPU 0 instructions: 1040000001 cycles: 545293278 heartbeat IPC: 2.297 cumulative IPC: 1.875 (Simulation time: 04 hr 46 min 26 sec)
Heartbeat CPU 2 instructions: 1200000001 cycles: 548234177 heartbeat IPC: 2.333 cumulative IPC: 2.131 (Simulation time: 04 hr 48 min 03 sec)
Heartbeat CPU 3 instructions: 400000001 cycles: 549408327 heartbeat IPC: 1.664 cumulative IPC: 0.6266 (Simulation time: 04 hr 48 min 44 sec)
Heartbeat CPU 0 instructions: 1050000000 cycles: 549850022 heartbeat IPC: 2.195 cumulative IPC: 1.877 (Simulation time: 04 hr 48 min 57 sec)
Heartbeat CPU 2 instructions: 1210000002 cycles: 552526488 heartbeat IPC: 2.33 cumulative IPC: 2.133 (Simulation time: 04 hr 50 min 18 sec)
Heartbeat CPU 0 instructions: 1060000001 cycles: 554492392 heartbeat IPC: 2.154 cumulative IPC: 1.88 (Simulation time: 04 hr 51 min 14 sec)
Heartbeat CPU 2 instructions: 1220000003 cycles: 556902408 heartbeat IPC: 2.285 cumulative IPC: 2.134 (Simulation time: 04 hr 52 min 23 sec)
Heartbeat CPU 0 instructions: 1070000001 cycles: 558915374 heartbeat IPC: 2.261 cumulative IPC: 1.883 (Simulation time: 04 hr 53 min 23 sec)
Heartbeat CPU 2 instructions: 1230000002 cycles: 561207067 heartbeat IPC: 2.323 cumulative IPC: 2.136 (Simulation time: 04 hr 54 min 32 sec)
Heartbeat CPU 1 instructions: 140000003 cycles: 561739806 heartbeat IPC: 0.182 cumulative IPC: 0.1536 (Simulation time: 04 hr 54 min 47 sec)
Heartbeat CPU 0 instructions: 1080000003 cycles: 563366241 heartbeat IPC: 2.247 cumulative IPC: 1.886 (Simulation time: 04 hr 55 min 41 sec)
Heartbeat CPU 2 instructions: 1240000002 cycles: 565507189 heartbeat IPC: 2.326 cumulative IPC: 2.137 (Simulation time: 04 hr 56 min 41 sec)
Heartbeat CPU 0 instructions: 1090000001 cycles: 567975097 heartbeat IPC: 2.17 cumulative IPC: 1.888 (Simulation time: 04 hr 57 min 59 sec)
Heartbeat CPU 2 instructions: 1250000003 cycles: 569957698 heartbeat IPC: 2.247 cumulative IPC: 2.138 (Simulation time: 04 hr 59 min 02 sec)
Heartbeat CPU 0 instructions: 1100000001 cycles: 572747364 heartbeat IPC: 2.095 cumulative IPC: 1.89 (Simulation time: 05 hr 00 min 25 sec)
Heartbeat CPU 2 instructions: 1260000000 cycles: 574237298 heartbeat IPC: 2.337 cumulative IPC: 2.139 (Simulation time: 05 hr 01 min 11 sec)
Heartbeat CPU 0 instructions: 1110000003 cycles: 577696736 heartbeat IPC: 2.02 cumulative IPC: 1.891 (Simulation time: 05 hr 02 min 50 sec)
Heartbeat CPU 2 instructions: 1270000000 cycles: 578513945 heartbeat IPC: 2.338 cumulative IPC: 2.141 (Simulation time: 05 hr 03 min 13 sec)
Heartbeat CPU 2 instructions: 1280000001 cycles: 582774088 heartbeat IPC: 2.347 cumulative IPC: 2.143 (Simulation time: 05 hr 05 min 10 sec)
Heartbeat CPU 0 instructions: 1120000002 cycles: 583000698 heartbeat IPC: 1.885 cumulative IPC: 1.891 (Simulation time: 05 hr 05 min 15 sec)
Heartbeat CPU 2 instructions: 1290000002 cycles: 587235737 heartbeat IPC: 2.241 cumulative IPC: 2.143 (Simulation time: 05 hr 07 min 08 sec)
Heartbeat CPU 0 instructions: 1130000002 cycles: 588715058 heartbeat IPC: 1.75 cumulative IPC: 1.89 (Simulation time: 05 hr 07 min 50 sec)
Heartbeat CPU 2 instructions: 1300000001 cycles: 591573591 heartbeat IPC: 2.305 cumulative IPC: 2.145 (Simulation time: 05 hr 09 min 14 sec)
Heartbeat CPU 3 instructions: 410000000 cycles: 591726572 heartbeat IPC: 0.2363 cumulative IPC: 0.5978 (Simulation time: 05 hr 09 min 20 sec)
Heartbeat CPU 0 instructions: 1140000000 cycles: 594870279 heartbeat IPC: 1.625 cumulative IPC: 1.887 (Simulation time: 05 hr 10 min 41 sec)
Heartbeat CPU 2 instructions: 1310000003 cycles: 596065952 heartbeat IPC: 2.226 cumulative IPC: 2.145 (Simulation time: 05 hr 11 min 11 sec)
Heartbeat CPU 2 instructions: 1320000003 cycles: 600597753 heartbeat IPC: 2.207 cumulative IPC: 2.146 (Simulation time: 05 hr 13 min 21 sec)
Heartbeat CPU 0 instructions: 1150000000 cycles: 601265844 heartbeat IPC: 1.564 cumulative IPC: 1.883 (Simulation time: 05 hr 13 min 41 sec)
Heartbeat CPU 2 instructions: 1330000004 cycles: 605172216 heartbeat IPC: 2.186 cumulative IPC: 2.146 (Simulation time: 05 hr 15 min 36 sec)
Heartbeat CPU 0 instructions: 1160000000 cycles: 607555713 heartbeat IPC: 1.59 cumulative IPC: 1.88 (Simulation time: 05 hr 16 min 40 sec)
Heartbeat CPU 2 instructions: 1340000000 cycles: 609769512 heartbeat IPC: 2.175 cumulative IPC: 2.146 (Simulation time: 05 hr 17 min 37 sec)
Heartbeat CPU 2 instructions: 1350000002 cycles: 614473055 heartbeat IPC: 2.126 cumulative IPC: 2.146 (Simulation time: 05 hr 19 min 40 sec)
Heartbeat CPU 0 instructions: 1170000000 cycles: 616361705 heartbeat IPC: 1.136 cumulative IPC: 1.869 (Simulation time: 05 hr 20 min 29 sec)
Heartbeat CPU 2 instructions: 1360000003 cycles: 619129216 heartbeat IPC: 2.148 cumulative IPC: 2.146 (Simulation time: 05 hr 21 min 38 sec)
Heartbeat CPU 2 instructions: 1370000001 cycles: 623828194 heartbeat IPC: 2.128 cumulative IPC: 2.146 (Simulation time: 05 hr 24 min 07 sec)
Heartbeat CPU 0 instructions: 1180000004 cycles: 625776066 heartbeat IPC: 1.062 cumulative IPC: 1.857 (Simulation time: 05 hr 25 min 06 sec)
Heartbeat CPU 2 instructions: 1380000002 cycles: 628507988 heartbeat IPC: 2.137 cumulative IPC: 2.146 (Simulation time: 05 hr 26 min 21 sec)
Heartbeat CPU 0 instructions: 1190000001 cycles: 631453106 heartbeat IPC: 1.761 cumulative IPC: 1.856 (Simulation time: 05 hr 27 min 48 sec)
Heartbeat CPU 2 instructions: 1390000000 cycles: 633323886 heartbeat IPC: 2.076 cumulative IPC: 2.145 (Simulation time: 05 hr 28 min 36 sec)
Heartbeat CPU 0 instructions: 1200000001 cycles: 636906507 heartbeat IPC: 1.834 cumulative IPC: 1.856 (Simulation time: 05 hr 30 min 19 sec)
Heartbeat CPU 2 instructions: 1400000003 cycles: 637925744 heartbeat IPC: 2.173 cumulative IPC: 2.146 (Simulation time: 05 hr 30 min 49 sec)
Heartbeat CPU 1 instructions: 150000000 cycles: 641693705 heartbeat IPC: 0.1251 cumulative IPC: 0.1499 (Simulation time: 05 hr 32 min 35 sec)
Heartbeat CPU 0 instructions: 1210000000 cycles: 642141636 heartbeat IPC: 1.91 cumulative IPC: 1.856 (Simulation time: 05 hr 32 min 47 sec)
Heartbeat CPU 2 instructions: 1410000002 cycles: 642483515 heartbeat IPC: 2.194 cumulative IPC: 2.146 (Simulation time: 05 hr 32 min 56 sec)
Heartbeat CPU 2 instructions: 1420000001 cycles: 647279063 heartbeat IPC: 2.085 cumulative IPC: 2.145 (Simulation time: 05 hr 35 min 14 sec)
Heartbeat CPU 0 instructions: 1220000002 cycles: 647523401 heartbeat IPC: 1.858 cumulative IPC: 1.856 (Simulation time: 05 hr 35 min 20 sec)
Heartbeat CPU 2 instructions: 1430000002 cycles: 651908489 heartbeat IPC: 2.16 cumulative IPC: 2.146 (Simulation time: 05 hr 37 min 17 sec)
Heartbeat CPU 0 instructions: 1230000004 cycles: 652935793 heartbeat IPC: 1.848 cumulative IPC: 1.856 (Simulation time: 05 hr 37 min 52 sec)
Heartbeat CPU 2 instructions: 1440000000 cycles: 656555382 heartbeat IPC: 2.152 cumulative IPC: 2.146 (Simulation time: 05 hr 39 min 42 sec)
Heartbeat CPU 0 instructions: 1240000003 cycles: 657980072 heartbeat IPC: 1.982 cumulative IPC: 1.857 (Simulation time: 05 hr 40 min 21 sec)
Heartbeat CPU 2 instructions: 1450000001 cycles: 661191918 heartbeat IPC: 2.157 cumulative IPC: 2.146 (Simulation time: 05 hr 41 min 54 sec)
Heartbeat CPU 3 instructions: 420000002 cycles: 662580217 heartbeat IPC: 0.1411 cumulative IPC: 0.5477 (Simulation time: 05 hr 42 min 41 sec)
Heartbeat CPU 0 instructions: 1250000001 cycles: 662855975 heartbeat IPC: 2.051 cumulative IPC: 1.859 (Simulation time: 05 hr 42 min 50 sec)
Heartbeat CPU 2 instructions: 1460000004 cycles: 665684700 heartbeat IPC: 2.226 cumulative IPC: 2.146 (Simulation time: 05 hr 44 min 11 sec)
Heartbeat CPU 0 instructions: 1260000000 cycles: 667462171 heartbeat IPC: 2.171 cumulative IPC: 1.861 (Simulation time: 05 hr 45 min 08 sec)
Heartbeat CPU 3 instructions: 430000000 cycles: 669939208 heartbeat IPC: 1.359 cumulative IPC: 0.5568 (Simulation time: 05 hr 46 min 33 sec)
Heartbeat CPU 2 instructions: 1470000004 cycles: 670221798 heartbeat IPC: 2.204 cumulative IPC: 2.147 (Simulation time: 05 hr 46 min 42 sec)
Heartbeat CPU 0 instructions: 1270000003 cycles: 672363268 heartbeat IPC: 2.04 cumulative IPC: 1.862 (Simulation time: 05 hr 47 min 55 sec)
Heartbeat CPU 3 instructions: 440000003 cycles: 674694901 heartbeat IPC: 2.103 cumulative IPC: 0.568 (Simulation time: 05 hr 49 min 12 sec)
Heartbeat CPU 2 instructions: 1480000001 cycles: 674827675 heartbeat IPC: 2.171 cumulative IPC: 2.147 (Simulation time: 05 hr 49 min 16 sec)
Heartbeat CPU 0 instructions: 1280000001 cycles: 677044625 heartbeat IPC: 2.136 cumulative IPC: 1.864 (Simulation time: 05 hr 50 min 33 sec)
Heartbeat CPU 2 instructions: 1490000000 cycles: 679349008 heartbeat IPC: 2.212 cumulative IPC: 2.147 (Simulation time: 05 hr 51 min 47 sec)
Heartbeat CPU 3 instructions: 450000002 cycles: 679633162 heartbeat IPC: 2.025 cumulative IPC: 0.5789 (Simulation time: 05 hr 51 min 55 sec)
Heartbeat CPU 0 instructions: 1290000000 cycles: 681499515 heartbeat IPC: 2.245 cumulative IPC: 1.867 (Simulation time: 05 hr 52 min 57 sec)
Heartbeat CPU 2 instructions: 1500000003 cycles: 683856547 heartbeat IPC: 2.219 cumulative IPC: 2.148 (Simulation time: 05 hr 54 min 09 sec)
Heartbeat CPU 0 instructions: 1300000001 cycles: 685994467 heartbeat IPC: 2.225 cumulative IPC: 1.869 (Simulation time: 05 hr 55 min 20 sec)
Heartbeat CPU 3 instructions: 460000001 cycles: 686273131 heartbeat IPC: 1.506 cumulative IPC: 0.5881 (Simulation time: 05 hr 55 min 29 sec)
Heartbeat CPU 2 instructions: 1510000002 cycles: 688391252 heartbeat IPC: 2.205 cumulative IPC: 2.148 (Simulation time: 05 hr 56 min 35 sec)
Heartbeat CPU 0 instructions: 1310000001 cycles: 690426888 heartbeat IPC: 2.256 cumulative IPC: 1.872 (Simulation time: 05 hr 57 min 40 sec)
Heartbeat CPU 2 instructions: 1520000003 cycles: 692934407 heartbeat IPC: 2.201 cumulative IPC: 2.148 (Simulation time: 05 hr 59 min 00 sec)
Heartbeat CPU 3 instructions: 470000000 cycles: 693621675 heartbeat IPC: 1.361 cumulative IPC: 0.5965 (Simulation time: 05 hr 59 min 24 sec)
Heartbeat CPU 0 instructions: 1320000000 cycles: 695034306 heartbeat IPC: 2.17 cumulative IPC: 1.874 (Simulation time: 06 hr 00 min 10 sec)
Heartbeat CPU 2 instructions: 1530000002 cycles: 697446584 heartbeat IPC: 2.216 cumulative IPC: 2.149 (Simulation time: 06 hr 01 min 33 sec)
Heartbeat CPU 0 instructions: 1330000000 cycles: 699436151 heartbeat IPC: 2.272 cumulative IPC: 1.876 (Simulation time: 06 hr 02 min 32 sec)
Heartbeat CPU 3 instructions: 480000004 cycles: 701469227 heartbeat IPC: 1.274 cumulative IPC: 0.6043 (Simulation time: 06 hr 03 min 36 sec)
Heartbeat CPU 1 instructions: 160000004 cycles: 701594495 heartbeat IPC: 0.1669 cumulative IPC: 0.1514 (Simulation time: 06 hr 03 min 40 sec)
Heartbeat CPU 2 instructions: 1540000001 cycles: 701933478 heartbeat IPC: 2.229 cumulative IPC: 2.149 (Simulation time: 06 hr 03 min 51 sec)
Heartbeat CPU 0 instructions: 1340000003 cycles: 703844443 heartbeat IPC: 2.268 cumulative IPC: 1.879 (Simulation time: 06 hr 04 min 57 sec)
Heartbeat CPU 2 instructions: 1550000003 cycles: 706421258 heartbeat IPC: 2.228 cumulative IPC: 2.15 (Simulation time: 06 hr 06 min 11 sec)
Heartbeat CPU 0 instructions: 1350000002 cycles: 708314929 heartbeat IPC: 2.237 cumulative IPC: 1.881 (Simulation time: 06 hr 07 min 06 sec)
Heartbeat CPU 3 instructions: 490000001 cycles: 710295753 heartbeat IPC: 1.133 cumulative IPC: 0.611 (Simulation time: 06 hr 08 min 09 sec)
Heartbeat CPU 2 instructions: 1560000002 cycles: 710863203 heartbeat IPC: 2.251 cumulative IPC: 2.151 (Simulation time: 06 hr 08 min 29 sec)
Heartbeat CPU 0 instructions: 1360000000 cycles: 712737495 heartbeat IPC: 2.261 cumulative IPC: 1.883 (Simulation time: 06 hr 09 min 25 sec)
Heartbeat CPU 2 instructions: 1570000000 cycles: 715315575 heartbeat IPC: 2.246 cumulative IPC: 2.151 (Simulation time: 06 hr 10 min 50 sec)
Heartbeat CPU 3 instructions: 500000004 cycles: 716072483 heartbeat IPC: 1.731 cumulative IPC: 0.6202 (Simulation time: 06 hr 11 min 18 sec)
Heartbeat CPU 0 instructions: 1370000002 cycles: 717219578 heartbeat IPC: 2.231 cumulative IPC: 1.886 (Simulation time: 06 hr 11 min 55 sec)
Heartbeat CPU 2 instructions: 1580000000 cycles: 719782491 heartbeat IPC: 2.239 cumulative IPC: 2.152 (Simulation time: 06 hr 13 min 12 sec)
Heartbeat CPU 0 instructions: 1380000000 cycles: 721824004 heartbeat IPC: 2.172 cumulative IPC: 1.888 (Simulation time: 06 hr 14 min 12 sec)
Heartbeat CPU 2 instructions: 1590000000 cycles: 724298718 heartbeat IPC: 2.214 cumulative IPC: 2.152 (Simulation time: 06 hr 15 min 23 sec)
Heartbeat CPU 0 instructions: 1390000002 cycles: 726581923 heartbeat IPC: 2.102 cumulative IPC: 1.889 (Simulation time: 06 hr 16 min 28 sec)
Heartbeat CPU 2 instructions: 1600000003 cycles: 728754643 heartbeat IPC: 2.244 cumulative IPC: 2.153 (Simulation time: 06 hr 17 min 28 sec)
Heartbeat CPU 0 instructions: 1400000002 cycles: 731310763 heartbeat IPC: 2.115 cumulative IPC: 1.89 (Simulation time: 06 hr 18 min 42 sec)
Heartbeat CPU 2 instructions: 1610000001 cycles: 733344515 heartbeat IPC: 2.179 cumulative IPC: 2.153 (Simulation time: 06 hr 19 min 40 sec)
Heartbeat CPU 0 instructions: 1410000000 cycles: 735822707 heartbeat IPC: 2.216 cumulative IPC: 1.893 (Simulation time: 06 hr 20 min 55 sec)
Heartbeat CPU 2 instructions: 1620000004 cycles: 737797830 heartbeat IPC: 2.246 cumulative IPC: 2.153 (Simulation time: 06 hr 21 min 55 sec)
Heartbeat CPU 0 instructions: 1420000001 cycles: 740536526 heartbeat IPC: 2.121 cumulative IPC: 1.894 (Simulation time: 06 hr 23 min 15 sec)
Heartbeat CPU 2 instructions: 1630000000 cycles: 742368194 heartbeat IPC: 2.188 cumulative IPC: 2.154 (Simulation time: 06 hr 24 min 09 sec)
Heartbeat CPU 0 instructions: 1430000003 cycles: 745401654 heartbeat IPC: 2.055 cumulative IPC: 1.895 (Simulation time: 06 hr 25 min 35 sec)
Heartbeat CPU 2 instructions: 1640000001 cycles: 746861144 heartbeat IPC: 2.226 cumulative IPC: 2.154 (Simulation time: 06 hr 26 min 17 sec)
Heartbeat CPU 3 instructions: 510000000 cycles: 748447517 heartbeat IPC: 0.3089 cumulative IPC: 0.6065 (Simulation time: 06 hr 27 min 00 sec)
Heartbeat CPU 0 instructions: 1440000002 cycles: 750222622 heartbeat IPC: 2.074 cumulative IPC: 1.896 (Simulation time: 06 hr 27 min 51 sec)
Heartbeat CPU 2 instructions: 1650000001 cycles: 751439768 heartbeat IPC: 2.184 cumulative IPC: 2.154 (Simulation time: 06 hr 28 min 24 sec)
Heartbeat CPU 0 instructions: 1450000001 cycles: 755769341 heartbeat IPC: 1.803 cumulative IPC: 1.896 (Simulation time: 06 hr 30 min 20 sec)
Heartbeat CPU 2 instructions: 1660000004 cycles: 756009820 heartbeat IPC: 2.188 cumulative IPC: 2.155 (Simulation time: 06 hr 30 min 27 sec)
Heartbeat CPU 1 instructions: 170000000 cycles: 757569474 heartbeat IPC: 0.1787 cumulative IPC: 0.1535 (Simulation time: 06 hr 31 min 10 sec)
Heartbeat CPU 2 instructions: 1670000004 cycles: 760657696 heartbeat IPC: 2.152 cumulative IPC: 2.154 (Simulation time: 06 hr 32 min 34 sec)
Heartbeat CPU 0 instructions: 1460000000 cycles: 761156019 heartbeat IPC: 1.856 cumulative IPC: 1.895 (Simulation time: 06 hr 32 min 47 sec)
Heartbeat CPU 2 instructions: 1680000000 cycles: 765358004 heartbeat IPC: 2.128 cumulative IPC: 2.154 (Simulation time: 06 hr 34 min 40 sec)
Heartbeat CPU 0 instructions: 1470000003 cycles: 767037729 heartbeat IPC: 1.7 cumulative IPC: 1.894 (Simulation time: 06 hr 35 min 23 sec)
Heartbeat CPU 2 instructions: 1690000003 cycles: 769988136 heartbeat IPC: 2.16 cumulative IPC: 2.154 (Simulation time: 06 hr 36 min 39 sec)
Heartbeat CPU 0 instructions: 1480000001 cycles: 773319808 heartbeat IPC: 1.592 cumulative IPC: 1.891 (Simulation time: 06 hr 38 min 04 sec)
Heartbeat CPU 2 instructions: 1700000002 cycles: 774640444 heartbeat IPC: 2.149 cumulative IPC: 2.154 (Simulation time: 06 hr 38 min 38 sec)
Heartbeat CPU 0 instructions: 1490000001 cycles: 779292292 heartbeat IPC: 1.674 cumulative IPC: 1.89 (Simulation time: 06 hr 40 min 39 sec)
Heartbeat CPU 2 instructions: 1710000000 cycles: 779343498 heartbeat IPC: 2.126 cumulative IPC: 2.154 (Simulation time: 06 hr 40 min 40 sec)
Heartbeat CPU 2 instructions: 1720000002 cycles: 784115087 heartbeat IPC: 2.096 cumulative IPC: 2.154 (Simulation time: 06 hr 42 min 44 sec)
Heartbeat CPU 0 instructions: 1500000001 cycles: 785310131 heartbeat IPC: 1.662 cumulative IPC: 1.888 (Simulation time: 06 hr 43 min 17 sec)
Heartbeat CPU 2 instructions: 1730000001 cycles: 788701534 heartbeat IPC: 2.18 cumulative IPC: 2.154 (Simulation time: 06 hr 44 min 44 sec)
Heartbeat CPU 0 instructions: 1510000002 cycles: 790900508 heartbeat IPC: 1.789 cumulative IPC: 1.887 (Simulation time: 06 hr 45 min 45 sec)
Heartbeat CPU 2 instructions: 1740000002 cycles: 793238090 heartbeat IPC: 2.204 cumulative IPC: 2.154 (Simulation time: 06 hr 46 min 50 sec)
Heartbeat CPU 0 instructions: 1520000002 cycles: 796591698 heartbeat IPC: 1.757 cumulative IPC: 1.886 (Simulation time: 06 hr 48 min 18 sec)
Heartbeat CPU 2 instructions: 1750000001 cycles: 797493983 heartbeat IPC: 2.35 cumulative IPC: 2.155 (Simulation time: 06 hr 48 min 42 sec)
Heartbeat CPU 2 instructions: 1760000003 cycles: 801725837 heartbeat IPC: 2.363 cumulative IPC: 2.156 (Simulation time: 06 hr 50 min 32 sec)
Heartbeat CPU 0 instructions: 1530000001 cycles: 802825322 heartbeat IPC: 1.604 cumulative IPC: 1.884 (Simulation time: 06 hr 51 min 01 sec)
Heartbeat CPU 2 instructions: 1770000001 cycles: 806181713 heartbeat IPC: 2.244 cumulative IPC: 2.157 (Simulation time: 06 hr 52 min 31 sec)
Heartbeat CPU 0 instructions: 1540000003 cycles: 808547033 heartbeat IPC: 1.748 cumulative IPC: 1.883 (Simulation time: 06 hr 53 min 32 sec)
Heartbeat CPU 2 instructions: 1780000001 cycles: 810372597 heartbeat IPC: 2.386 cumulative IPC: 2.158 (Simulation time: 06 hr 54 min 20 sec)
Heartbeat CPU 0 instructions: 1550000004 cycles: 814236636 heartbeat IPC: 1.758 cumulative IPC: 1.882 (Simulation time: 06 hr 56 min 00 sec)
Heartbeat CPU 2 instructions: 1790000004 cycles: 814620801 heartbeat IPC: 2.354 cumulative IPC: 2.159 (Simulation time: 06 hr 56 min 10 sec)
Heartbeat CPU 2 instructions: 1800000003 cycles: 818909520 heartbeat IPC: 2.332 cumulative IPC: 2.16 (Simulation time: 06 hr 58 min 00 sec)
Heartbeat CPU 0 instructions: 1560000002 cycles: 820024354 heartbeat IPC: 1.728 cumulative IPC: 1.881 (Simulation time: 06 hr 58 min 29 sec)
Heartbeat CPU 2 instructions: 1810000002 cycles: 823337116 heartbeat IPC: 2.259 cumulative IPC: 2.161 (Simulation time: 06 hr 59 min 50 sec)
Heartbeat CPU 0 instructions: 1570000002 cycles: 826193484 heartbeat IPC: 1.621 cumulative IPC: 1.879 (Simulation time: 07 hr 01 min 02 sec)
Heartbeat CPU 2 instructions: 1820000002 cycles: 827542141 heartbeat IPC: 2.378 cumulative IPC: 2.162 (Simulation time: 07 hr 01 min 35 sec)
Heartbeat CPU 3 instructions: 520000003 cycles: 830375444 heartbeat IPC: 0.1221 cumulative IPC: 0.5577 (Simulation time: 07 hr 02 min 50 sec)
Heartbeat CPU 2 instructions: 1830000001 cycles: 831905997 heartbeat IPC: 2.292 cumulative IPC: 2.162 (Simulation time: 07 hr 03 min 26 sec)
Heartbeat CPU 0 instructions: 1580000000 cycles: 833937219 heartbeat IPC: 1.291 cumulative IPC: 1.873 (Simulation time: 07 hr 04 min 21 sec)
Heartbeat CPU 2 instructions: 1840000001 cycles: 836151213 heartbeat IPC: 2.356 cumulative IPC: 2.163 (Simulation time: 07 hr 05 min 25 sec)
Heartbeat CPU 3 instructions: 530000003 cycles: 837928128 heartbeat IPC: 1.324 cumulative IPC: 0.5647 (Simulation time: 07 hr 06 min 21 sec)
Heartbeat CPU 0 instructions: 1590000003 cycles: 838518369 heartbeat IPC: 2.183 cumulative IPC: 1.875 (Simulation time: 07 hr 06 min 39 sec)
Heartbeat CPU 2 instructions: 1850000001 cycles: 840389985 heartbeat IPC: 2.359 cumulative IPC: 2.164 (Simulation time: 07 hr 07 min 37 sec)
Heartbeat CPU 1 instructions: 180000002 cycles: 841164838 heartbeat IPC: 0.1196 cumulative IPC: 0.1501 (Simulation time: 07 hr 08 min 01 sec)
Heartbeat CPU 3 instructions: 540000004 cycles: 842093814 heartbeat IPC: 2.401 cumulative IPC: 0.574 (Simulation time: 07 hr 08 min 30 sec)
Heartbeat CPU 0 instructions: 1600000003 cycles: 843034044 heartbeat IPC: 2.215 cumulative IPC: 1.877 (Simulation time: 07 hr 08 min 57 sec)
Heartbeat CPU 2 instructions: 1860000001 cycles: 844625263 heartbeat IPC: 2.361 cumulative IPC: 2.165 (Simulation time: 07 hr 09 min 45 sec)
Heartbeat CPU 3 instructions: 550000001 cycles: 847289485 heartbeat IPC: 1.925 cumulative IPC: 0.5824 (Simulation time: 07 hr 11 min 00 sec)
Heartbeat CPU 0 instructions: 1610000000 cycles: 847850644 heartbeat IPC: 2.076 cumulative IPC: 1.878 (Simulation time: 07 hr 11 min 17 sec)
Heartbeat CPU 2 instructions: 1870000004 cycles: 849039217 heartbeat IPC: 2.266 cumulative IPC: 2.166 (Simulation time: 07 hr 11 min 54 sec)
Heartbeat CPU 0 instructions: 1620000001 cycles: 852490795 heartbeat IPC: 2.155 cumulative IPC: 1.88 (Simulation time: 07 hr 13 min 35 sec)
Heartbeat CPU 2 instructions: 1880000003 cycles: 853277729 heartbeat IPC: 2.359 cumulative IPC: 2.167 (Simulation time: 07 hr 13 min 58 sec)
Heartbeat CPU 3 instructions: 560000000 cycles: 853458325 heartbeat IPC: 1.621 cumulative IPC: 0.5901 (Simulation time: 07 hr 14 min 03 sec)
Heartbeat CPU 0 instructions: 1630000000 cycles: 857598579 heartbeat IPC: 1.958 cumulative IPC: 1.88 (Simulation time: 07 hr 15 min 56 sec)
Heartbeat CPU 2 instructions: 1890000000 cycles: 857883910 heartbeat IPC: 2.171 cumulative IPC: 2.167 (Simulation time: 07 hr 16 min 04 sec)
Heartbeat CPU 3 instructions: 570000004 cycles: 861785040 heartbeat IPC: 1.201 cumulative IPC: 0.5961 (Simulation time: 07 hr 17 min 55 sec)
Heartbeat CPU 2 instructions: 1900000000 cycles: 862222569 heartbeat IPC: 2.305 cumulative IPC: 2.168 (Simulation time: 07 hr 18 min 08 sec)
Heartbeat CPU 0 instructions: 1640000000 cycles: 862380572 heartbeat IPC: 2.091 cumulative IPC: 1.881 (Simulation time: 07 hr 18 min 13 sec)
Heartbeat CPU 0 instructions: 1650000000 cycles: 871196060 heartbeat IPC: 1.134 cumulative IPC: 1.874 (Simulation time: 07 hr 21 min 36 sec)
Heartbeat CPU 3 instructions: 580000003 cycles: 872340909 heartbeat IPC: 0.9473 cumulative IPC: 0.6005 (Simulation time: 07 hr 22 min 04 sec)
Heartbeat CPU 2 instructions: 1910000002 cycles: 874274668 heartbeat IPC: 0.8297 cumulative IPC: 2.149 (Simulation time: 07 hr 22 min 58 sec)
Heartbeat CPU 0 instructions: 1660000003 cycles: 877026026 heartbeat IPC: 1.715 cumulative IPC: 1.872 (Simulation time: 07 hr 24 min 13 sec)
Heartbeat CPU 2 instructions: 1920000001 cycles: 878679201 heartbeat IPC: 2.27 cumulative IPC: 2.15 (Simulation time: 07 hr 24 min 56 sec)
Heartbeat CPU 3 instructions: 590000000 cycles: 881632932 heartbeat IPC: 1.076 cumulative IPC: 0.6056 (Simulation time: 07 hr 26 min 18 sec)
Heartbeat CPU 0 instructions: 1670000000 cycles: 881806144 heartbeat IPC: 2.092 cumulative IPC: 1.874 (Simulation time: 07 hr 26 min 23 sec)
Heartbeat CPU 2 instructions: 1930000002 cycles: 882972232 heartbeat IPC: 2.329 cumulative IPC: 2.15 (Simulation time: 07 hr 26 min 58 sec)
Heartbeat CPU 0 instructions: 1680000003 cycles: 886192042 heartbeat IPC: 2.28 cumulative IPC: 1.876 (Simulation time: 07 hr 28 min 30 sec)
Heartbeat CPU 2 instructions: 1940000000 cycles: 887361551 heartbeat IPC: 2.278 cumulative IPC: 2.151 (Simulation time: 07 hr 29 min 08 sec)
Heartbeat CPU 3 instructions: 600000000 cycles: 887548368 heartbeat IPC: 1.69 cumulative IPC: 0.6129 (Simulation time: 07 hr 29 min 13 sec)
Heartbeat CPU 0 instructions: 1690000002 cycles: 890627040 heartbeat IPC: 2.255 cumulative IPC: 1.878 (Simulation time: 07 hr 30 min 44 sec)
Heartbeat CPU 2 instructions: 1950000004 cycles: 891610455 heartbeat IPC: 2.354 cumulative IPC: 2.152 (Simulation time: 07 hr 31 min 09 sec)
Heartbeat CPU 0 instructions: 1700000004 cycles: 895056380 heartbeat IPC: 2.258 cumulative IPC: 1.88 (Simulation time: 07 hr 32 min 40 sec)
Heartbeat CPU 2 instructions: 1960000000 cycles: 895840700 heartbeat IPC: 2.364 cumulative IPC: 2.153 (Simulation time: 07 hr 33 min 02 sec)
Heartbeat CPU 1 instructions: 190000002 cycles: 898037097 heartbeat IPC: 0.1758 cumulative IPC: 0.1517 (Simulation time: 07 hr 34 min 02 sec)
Heartbeat CPU 0 instructions: 1710000004 cycles: 899459871 heartbeat IPC: 2.271 cumulative IPC: 1.882 (Simulation time: 07 hr 34 min 41 sec)
Heartbeat CPU 2 instructions: 1970000004 cycles: 900177125 heartbeat IPC: 2.306 cumulative IPC: 2.154 (Simulation time: 07 hr 35 min 00 sec)
Heartbeat CPU 0 instructions: 1720000002 cycles: 904041861 heartbeat IPC: 2.182 cumulative IPC: 1.883 (Simulation time: 07 hr 36 min 41 sec)
Heartbeat CPU 2 instructions: 1980000000 cycles: 904419828 heartbeat IPC: 2.357 cumulative IPC: 2.155 (Simulation time: 07 hr 36 min 51 sec)
Heartbeat CPU 0 instructions: 1730000000 cycles: 908601331 heartbeat IPC: 2.193 cumulative IPC: 1.885 (Simulation time: 07 hr 38 min 47 sec)
Heartbeat CPU 2 instructions: 1990000002 cycles: 908654465 heartbeat IPC: 2.361 cumulative IPC: 2.156 (Simulation time: 07 hr 38 min 49 sec)
*** Reached end of trace: (2, "/home/das/dpc3_traces/603.bwaves_s-3699B.champsimtrace.xz")
Heartbeat CPU 2 instructions: 2000000001 cycles: 912922521 heartbeat IPC: 2.343 cumulative IPC: 2.157 (Simulation time: 07 hr 40 min 47 sec)
Heartbeat CPU 0 instructions: 1740000001 cycles: 913136712 heartbeat IPC: 2.205 cumulative IPC: 1.886 (Simulation time: 07 hr 40 min 53 sec)
Heartbeat CPU 3 instructions: 610000004 cycles: 916869349 heartbeat IPC: 0.3411 cumulative IPC: 0.6041 (Simulation time: 07 hr 42 min 33 sec)
Heartbeat CPU 2 instructions: 2010000004 cycles: 917248284 heartbeat IPC: 2.312 cumulative IPC: 2.157 (Simulation time: 07 hr 42 min 43 sec)
Heartbeat CPU 0 instructions: 1750000004 cycles: 918003551 heartbeat IPC: 2.055 cumulative IPC: 1.887 (Simulation time: 07 hr 43 min 04 sec)
Heartbeat CPU 0 instructions: 1760000000 cycles: 925066237 heartbeat IPC: 1.416 cumulative IPC: 1.884 (Simulation time: 07 hr 45 min 44 sec)
Heartbeat CPU 2 instructions: 2020000004 cycles: 926789951 heartbeat IPC: 1.048 cumulative IPC: 2.146 (Simulation time: 07 hr 46 min 20 sec)
Heartbeat CPU 0 instructions: 1770000000 cycles: 934390379 heartbeat IPC: 1.072 cumulative IPC: 1.875 (Simulation time: 07 hr 49 min 00 sec)
Heartbeat CPU 2 instructions: 2030000000 cycles: 938566730 heartbeat IPC: 0.8491 cumulative IPC: 2.129 (Simulation time: 07 hr 50 min 43 sec)
Heartbeat CPU 0 instructions: 1780000001 cycles: 940687282 heartbeat IPC: 1.588 cumulative IPC: 1.873 (Simulation time: 07 hr 51 min 34 sec)
Heartbeat CPU 2 instructions: 2040000001 cycles: 943040426 heartbeat IPC: 2.235 cumulative IPC: 2.13 (Simulation time: 07 hr 52 min 31 sec)
Heartbeat CPU 0 instructions: 1790000001 cycles: 947083623 heartbeat IPC: 1.563 cumulative IPC: 1.871 (Simulation time: 07 hr 54 min 11 sec)
Heartbeat CPU 2 instructions: 2050000002 cycles: 947476671 heartbeat IPC: 2.254 cumulative IPC: 2.13 (Simulation time: 07 hr 54 min 21 sec)
Heartbeat CPU 2 instructions: 2060000001 cycles: 951809640 heartbeat IPC: 2.308 cumulative IPC: 2.131 (Simulation time: 07 hr 56 min 10 sec)
Heartbeat CPU 0 instructions: 1800000001 cycles: 953804790 heartbeat IPC: 1.488 cumulative IPC: 1.868 (Simulation time: 07 hr 56 min 56 sec)
Heartbeat CPU 2 instructions: 2070000003 cycles: 956199987 heartbeat IPC: 2.278 cumulative IPC: 2.132 (Simulation time: 07 hr 57 min 53 sec)
Heartbeat CPU 2 instructions: 2080000002 cycles: 960480567 heartbeat IPC: 2.336 cumulative IPC: 2.133 (Simulation time: 07 hr 59 min 35 sec)
Heartbeat CPU 0 instructions: 1810000000 cycles: 961735081 heartbeat IPC: 1.261 cumulative IPC: 1.863 (Simulation time: 08 hr 00 min 05 sec)
Heartbeat CPU 2 instructions: 2090000001 cycles: 964904117 heartbeat IPC: 2.261 cumulative IPC: 2.133 (Simulation time: 08 hr 01 min 15 sec)
Heartbeat CPU 2 instructions: 2100000004 cycles: 969315706 heartbeat IPC: 2.267 cumulative IPC: 2.134 (Simulation time: 08 hr 03 min 06 sec)
Heartbeat CPU 0 instructions: 1820000000 cycles: 969675436 heartbeat IPC: 1.259 cumulative IPC: 1.858 (Simulation time: 08 hr 03 min 15 sec)
Heartbeat CPU 2 instructions: 2110000000 cycles: 974026229 heartbeat IPC: 2.123 cumulative IPC: 2.134 (Simulation time: 08 hr 05 min 03 sec)
Heartbeat CPU 0 instructions: 1830000001 cycles: 975390313 heartbeat IPC: 1.75 cumulative IPC: 1.858 (Simulation time: 08 hr 05 min 36 sec)
Heartbeat CPU 2 instructions: 2120000000 cycles: 978518724 heartbeat IPC: 2.226 cumulative IPC: 2.134 (Simulation time: 08 hr 06 min 55 sec)
Heartbeat CPU 0 instructions: 1840000000 cycles: 980993436 heartbeat IPC: 1.785 cumulative IPC: 1.857 (Simulation time: 08 hr 07 min 57 sec)
Heartbeat CPU 1 instructions: 200000003 cycles: 982678497 heartbeat IPC: 0.1181 cumulative IPC: 0.1488 (Simulation time: 08 hr 08 min 39 sec)
Heartbeat CPU 2 instructions: 2130000004 cycles: 983308727 heartbeat IPC: 2.088 cumulative IPC: 2.134 (Simulation time: 08 hr 08 min 55 sec)
Heartbeat CPU 0 instructions: 1850000004 cycles: 986687415 heartbeat IPC: 1.756 cumulative IPC: 1.857 (Simulation time: 08 hr 10 min 20 sec)
Heartbeat CPU 2 instructions: 2140000004 cycles: 988030159 heartbeat IPC: 2.118 cumulative IPC: 2.134 (Simulation time: 08 hr 10 min 54 sec)
Heartbeat CPU 0 instructions: 1860000000 cycles: 992476650 heartbeat IPC: 1.727 cumulative IPC: 1.856 (Simulation time: 08 hr 12 min 51 sec)
Heartbeat CPU 2 instructions: 2150000001 cycles: 992589674 heartbeat IPC: 2.193 cumulative IPC: 2.134 (Simulation time: 08 hr 12 min 55 sec)
Heartbeat CPU 2 instructions: 2160000000 cycles: 997238893 heartbeat IPC: 2.151 cumulative IPC: 2.134 (Simulation time: 08 hr 14 min 58 sec)
Heartbeat CPU 0 instructions: 1870000000 cycles: 998055584 heartbeat IPC: 1.792 cumulative IPC: 1.856 (Simulation time: 08 hr 15 min 18 sec)
Heartbeat CPU 2 instructions: 2170000000 cycles: 1001822470 heartbeat IPC: 2.182 cumulative IPC: 2.135 (Simulation time: 08 hr 17 min 01 sec)
Heartbeat CPU 0 instructions: 1880000000 cycles: 1002987020 heartbeat IPC: 2.028 cumulative IPC: 1.856 (Simulation time: 08 hr 17 min 35 sec)
Heartbeat CPU 3 instructions: 620000001 cycles: 1003772691 heartbeat IPC: 0.1151 cumulative IPC: 0.561 (Simulation time: 08 hr 18 min 02 sec)
Heartbeat CPU 2 instructions: 2180000002 cycles: 1006483387 heartbeat IPC: 2.146 cumulative IPC: 2.135 (Simulation time: 08 hr 19 min 18 sec)
Heartbeat CPU 0 instructions: 1890000003 cycles: 1007498490 heartbeat IPC: 2.217 cumulative IPC: 1.858 (Simulation time: 08 hr 19 min 48 sec)
Heartbeat CPU 2 instructions: 2190000000 cycles: 1011067903 heartbeat IPC: 2.181 cumulative IPC: 2.135 (Simulation time: 08 hr 21 min 45 sec)
Heartbeat CPU 3 instructions: 630000002 cycles: 1011454376 heartbeat IPC: 1.302 cumulative IPC: 0.5667 (Simulation time: 08 hr 21 min 59 sec)
Heartbeat CPU 0 instructions: 1900000000 cycles: 1012078764 heartbeat IPC: 2.183 cumulative IPC: 1.86 (Simulation time: 08 hr 22 min 18 sec)
Heartbeat CPU 2 instructions: 2200000003 cycles: 1015586301 heartbeat IPC: 2.213 cumulative IPC: 2.135 (Simulation time: 08 hr 24 min 06 sec)
Heartbeat CPU 3 instructions: 640000004 cycles: 1015897168 heartbeat IPC: 2.251 cumulative IPC: 0.5742 (Simulation time: 08 hr 24 min 16 sec)
Heartbeat CPU 0 instructions: 1910000002 cycles: 1016857329 heartbeat IPC: 2.093 cumulative IPC: 1.861 (Simulation time: 08 hr 24 min 45 sec)
Heartbeat CPU 2 instructions: 2210000000 cycles: 1020267175 heartbeat IPC: 2.136 cumulative IPC: 2.135 (Simulation time: 08 hr 26 min 26 sec)
Heartbeat CPU 3 instructions: 650000000 cycles: 1021660293 heartbeat IPC: 1.735 cumulative IPC: 0.5809 (Simulation time: 08 hr 27 min 06 sec)
Heartbeat CPU 0 instructions: 1920000002 cycles: 1021740369 heartbeat IPC: 2.048 cumulative IPC: 1.862 (Simulation time: 08 hr 27 min 08 sec)
Heartbeat CPU 2 instructions: 2220000001 cycles: 1025092612 heartbeat IPC: 2.072 cumulative IPC: 2.135 (Simulation time: 08 hr 28 min 44 sec)
Simulation finished CPU 1 instructions: 150000003 cycles: 1008176653 cumulative IPC: 0.1488 (Simulation time: 08 hr 28 min 52 sec)
Simulation complete CPU 0 instructions: 1877265739 cycles: 1008176653 cumulative IPC: 1.862 (Simulation time: 08 hr 28 min 52 sec)
Simulation complete CPU 1 instructions: 150000003 cycles: 1008176653 cumulative IPC: 0.1488 (Simulation time: 08 hr 28 min 52 sec)
Simulation complete CPU 2 instructions: 2152408558 cycles: 1008176653 cumulative IPC: 2.135 (Simulation time: 08 hr 28 min 52 sec)
Simulation complete CPU 3 instructions: 588165892 cycles: 1008176653 cumulative IPC: 0.5834 (Simulation time: 08 hr 28 min 52 sec)

ChampSim completed all CPUs

=== Simulation ===
CPU 0 runs /home/das/dpc3_traces/644.nab_s-5853B.champsimtrace.xzCPU 1 runs /home/das/dpc3_traces/619.lbm_s-4268B.champsimtrace.xzCPU 2 runs /home/das/dpc3_traces/603.bwaves_s-3699B.champsimtrace.xzCPU 3 runs /home/das/dpc3_traces/627.cam4_s-573B.champsimtrace.xz
Total Simulation Statistics (not including warmup)

CPU 0 cumulative IPC: 1.862 instructions: 1877265739 cycles: 1008176653
CPU 0 Branch Prediction Accuracy: 88.14% MPKI: 11.48 Average ROB Occupancy at Mispredict: 205.8
Branch type MPKI
BRANCH_DIRECT_JUMP: 0.000115
BRANCH_INDIRECT: 5.33e-07
BRANCH_CONDITIONAL: 5.95
BRANCH_DIRECT_CALL: 5.33e-07
BRANCH_INDIRECT_CALL: 0
BRANCH_RETURN: 5.53


CPU 1 cumulative IPC: 0.1488 instructions: 150000003 cycles: 1008176653
CPU 1 Branch Prediction Accuracy: 97.12% MPKI: 0.5201 Average ROB Occupancy at Mispredict: 245.4
Branch type MPKI
BRANCH_DIRECT_JUMP: 0
BRANCH_INDIRECT: 0
BRANCH_CONDITIONAL: 0.52
BRANCH_DIRECT_CALL: 0
BRANCH_INDIRECT_CALL: 0
BRANCH_RETURN: 0


CPU 2 cumulative IPC: 2.135 instructions: 2152408558 cycles: 1008176653
CPU 2 Branch Prediction Accuracy: 90.15% MPKI: 14.31 Average ROB Occupancy at Mispredict: 30.47
Branch type MPKI
BRANCH_DIRECT_JUMP: 0.0568
BRANCH_INDIRECT: 0
BRANCH_CONDITIONAL: 14.2
BRANCH_DIRECT_CALL: 0
BRANCH_INDIRECT_CALL: 0
BRANCH_RETURN: 0.0619


CPU 3 cumulative IPC: 0.5834 instructions: 588165892 cycles: 1008176653
CPU 3 Branch Prediction Accuracy: 94.66% MPKI: 7.078 Average ROB Occupancy at Mispredict: 67.41
Branch type MPKI
BRANCH_DIRECT_JUMP: 0.00536
BRANCH_INDIRECT: 0.00154
BRANCH_CONDITIONAL: 6.39
BRANCH_DIRECT_CALL: 0.0184
BRANCH_INDIRECT_CALL: 0
BRANCH_RETURN: 0.658

LLC TOTAL        ACCESS:     505529 HIT:      50698 MISS:     454831
LLC LOAD         ACCESS:      60451 HIT:       7989 MISS:      52462
LLC RFO          ACCESS:        965 HIT:        374 MISS:        591
LLC PREFETCH     ACCESS:     423956 HIT:      40533 MISS:     383423
LLC WRITE        ACCESS:      13301 HIT:        937 MISS:      12364
LLC TRANSLATION  ACCESS:       6856 HIT:        865 MISS:       5991
LLC PREFETCH REQUESTED:          0 ISSUED:          0 USEFUL:          0 USELESS:          0
LLC AVERAGE MISS LATENCY: 4572 cycles
LLC TOTAL        ACCESS:   12960281 HIT:    5629758 MISS:    7330523
LLC LOAD         ACCESS:     356512 HIT:       1377 MISS:     355135
LLC RFO          ACCESS:    5178654 HIT:      98121 MISS:    5080533
LLC PREFETCH     ACCESS:    1960992 HIT:      66807 MISS:    1894185
LLC WRITE        ACCESS:    5463353 HIT:    5463340 MISS:         13
LLC TRANSLATION  ACCESS:        770 HIT:        113 MISS:        657
LLC PREFETCH REQUESTED:          0 ISSUED:          0 USEFUL:          0 USELESS:          0
LLC AVERAGE MISS LATENCY: 4572 cycles
LLC TOTAL        ACCESS:     741525 HIT:     174327 MISS:     567198
LLC LOAD         ACCESS:       5467 HIT:        208 MISS:       5259
LLC RFO          ACCESS:     320385 HIT:       7721 MISS:     312664
LLC PREFETCH     ACCESS:      89658 HIT:       6704 MISS:      82954
LLC WRITE        ACCESS:     325974 HIT:     159688 MISS:     166286
LLC TRANSLATION  ACCESS:         41 HIT:          6 MISS:         35
LLC PREFETCH REQUESTED:          0 ISSUED:          0 USEFUL:          0 USELESS:          0
LLC AVERAGE MISS LATENCY: 4572 cycles
LLC TOTAL        ACCESS:    6561136 HIT:    3160733 MISS:    3400403
LLC LOAD         ACCESS:     377636 HIT:      81025 MISS:     296611
LLC RFO          ACCESS:    2938124 HIT:      62712 MISS:    2875412
LLC PREFETCH     ACCESS:     244320 HIT:      56039 MISS:     188281
LLC WRITE        ACCESS:    2991216 HIT:    2960090 MISS:      31126
LLC TRANSLATION  ACCESS:       9840 HIT:        867 MISS:       8973
LLC PREFETCH REQUESTED:          0 ISSUED:          0 USEFUL:          0 USELESS:          0
LLC AVERAGE MISS LATENCY: 4572 cycles
cpu0_DTLB TOTAL        ACCESS:  324810140 HIT:  321737401 MISS:    3072739
cpu0_DTLB LOAD         ACCESS:  324810140 HIT:  321737401 MISS:    3072739
cpu0_DTLB RFO          ACCESS:          0 HIT:          0 MISS:          0
cpu0_DTLB PREFETCH     ACCESS:          0 HIT:          0 MISS:          0
cpu0_DTLB WRITE        ACCESS:          0 HIT:          0 MISS:          0
cpu0_DTLB TRANSLATION  ACCESS:          0 HIT:          0 MISS:          0
cpu0_DTLB PREFETCH REQUESTED:          0 ISSUED:          0 USEFUL:          0 USELESS:          0
cpu0_DTLB AVERAGE MISS LATENCY: 17.42 cycles
cpu0_DTLB TOTAL        ACCESS:          0 HIT:          0 MISS:          0
cpu0_DTLB LOAD         ACCESS:          0 HIT:          0 MISS:          0
cpu0_DTLB RFO          ACCESS:          0 HIT:          0 MISS:          0
cpu0_DTLB PREFETCH     ACCESS:          0 HIT:          0 MISS:          0
cpu0_DTLB WRITE        ACCESS:          0 HIT:          0 MISS:          0
cpu0_DTLB TRANSLATION  ACCESS:          0 HIT:          0 MISS:          0
cpu0_DTLB PREFETCH REQUESTED:          0 ISSUED:          0 USEFUL:          0 USELESS:          0
cpu0_DTLB AVERAGE MISS LATENCY: 17.42 cycles
cpu0_DTLB TOTAL        ACCESS:          0 HIT:          0 MISS:          0
cpu0_DTLB LOAD         ACCESS:          0 HIT:          0 MISS:          0
cpu0_DTLB RFO          ACCESS:          0 HIT:          0 MISS:          0
cpu0_DTLB PREFETCH     ACCESS:          0 HIT:          0 MISS:          0
cpu0_DTLB WRITE        ACCESS:          0 HIT:          0 MISS:          0
cpu0_DTLB TRANSLATION  ACCESS:          0 HIT:          0 MISS:          0
cpu0_DTLB PREFETCH REQUESTED:          0 ISSUED:          0 USEFUL:          0 USELESS:          0
cpu0_DTLB AVERAGE MISS LATENCY: 17.42 cycles
cpu0_DTLB TOTAL        ACCESS:          0 HIT:          0 MISS:          0
cpu0_DTLB LOAD         ACCESS:          0 HIT:          0 MISS:          0
cpu0_DTLB RFO          ACCESS:          0 HIT:          0 MISS:          0
cpu0_DTLB PREFETCH     ACCESS:          0 HIT:          0 MISS:          0
cpu0_DTLB WRITE        ACCESS:          0 HIT:          0 MISS:          0
cpu0_DTLB TRANSLATION  ACCESS:          0 HIT:          0 MISS:          0
cpu0_DTLB PREFETCH REQUESTED:          0 ISSUED:          0 USEFUL:          0 USELESS:          0
cpu0_DTLB AVERAGE MISS LATENCY: 17.42 cycles
cpu0_ITLB TOTAL        ACCESS:      16968 HIT:      16968 MISS:          0
cpu0_ITLB LOAD         ACCESS:      16968 HIT:      16968 MISS:          0
cpu0_ITLB RFO          ACCESS:          0 HIT:          0 MISS:          0
cpu0_ITLB PREFETCH     ACCESS:          0 HIT:          0 MISS:          0
cpu0_ITLB WRITE        ACCESS:          0 HIT:          0 MISS:          0
cpu0_ITLB TRANSLATION  ACCESS:          0 HIT:          0 MISS:          0
cpu0_ITLB PREFETCH REQUESTED:          0 ISSUED:          0 USEFUL:          0 USELESS:          0
cpu0_ITLB AVERAGE MISS LATENCY: -nan cycles
cpu0_ITLB TOTAL        ACCESS:          0 HIT:          0 MISS:          0
cpu0_ITLB LOAD         ACCESS:          0 HIT:          0 MISS:          0
cpu0_ITLB RFO          ACCESS:          0 HIT:          0 MISS:          0
cpu0_ITLB PREFETCH     ACCESS:          0 HIT:          0 MISS:          0
[...]
cpu2_L2C PREFETCH     ACCESS:          0 HIT:          0 MISS:          0
cpu2_L2C WRITE        ACCESS:          0 HIT:          0 MISS:          0
cpu2_L2C TRANSLATION  ACCESS:          0 HIT:          0 MISS:          0
cpu2_L2C PREFETCH REQUESTED:          0 ISSUED:          0 USEFUL:          0 USELESS:          0
cpu2_L2C AVERAGE MISS LATENCY: 5781 cycles
cpu2_L2C TOTAL        ACCESS:          0 HIT:          0 MISS:          0
cpu2_L2C LOAD         ACCESS:          0 HIT:          0 MISS:          0
cpu2_L2C RFO          ACCESS:          0 HIT:          0 MISS:          0
cpu2_L2C PREFETCH     ACCESS:          0 HIT:          0 MISS:          0
cpu2_L2C WRITE        ACCESS:          0 HIT:          0 MISS:          0
cpu2_L2C TRANSLATION  ACCESS:          0 HIT:          0 MISS:          0
cpu2_L2C PREFETCH REQUESTED:          0 ISSUED:          0 USEFUL:          0 USELESS:          0
cpu2_L2C AVERAGE MISS LATENCY: 5781 cycles
cpu2_L2C TOTAL        ACCESS:      57080 HIT:      37968 MISS:      19112
cpu2_L2C LOAD         ACCESS:       1521 HIT:       1233 MISS:        288
cpu2_L2C RFO          ACCESS:      13161 HIT:        213 MISS:      12948
cpu2_L2C PREFETCH     ACCESS:      29239 HIT:      23390 MISS:       5849
cpu2_L2C WRITE        ACCESS:      13137 HIT:      13112 MISS:         25
cpu2_L2C TRANSLATION  ACCESS:         22 HIT:         20 MISS:          2
cpu2_L2C PREFETCH REQUESTED:          0 ISSUED:          0 USEFUL:          0 USELESS:          0
cpu2_L2C AVERAGE MISS LATENCY: 5781 cycles
cpu2_L2C TOTAL        ACCESS:          0 HIT:          0 MISS:          0
cpu2_L2C LOAD         ACCESS:          0 HIT:          0 MISS:          0
cpu2_L2C RFO          ACCESS:          0 HIT:          0 MISS:          0
cpu2_L2C PREFETCH     ACCESS:          0 HIT:          0 MISS:          0
cpu2_L2C WRITE        ACCESS:          0 HIT:          0 MISS:          0
cpu2_L2C TRANSLATION  ACCESS:          0 HIT:          0 MISS:          0
cpu2_L2C PREFETCH REQUESTED:          0 ISSUED:          0 USEFUL:          0 USELESS:          0
cpu2_L2C AVERAGE MISS LATENCY: 5781 cycles
cpu2_STLB TOTAL        ACCESS:          0 HIT:          0 MISS:          0
cpu2_STLB LOAD         ACCESS:          0 HIT:          0 MISS:          0
cpu2_STLB RFO          ACCESS:          0 HIT:          0 MISS:          0
cpu2_STLB PREFETCH     ACCESS:          0 HIT:          0 MISS:          0
cpu2_STLB WRITE        ACCESS:          0 HIT:          0 MISS:          0
cpu2_STLB TRANSLATION  ACCESS:          0 HIT:          0 MISS:          0
cpu2_STLB PREFETCH REQUESTED:          0 ISSUED:          0 USEFUL:          0 USELESS:          0
cpu2_STLB AVERAGE MISS LATENCY: 204.3 cycles
cpu2_STLB TOTAL        ACCESS:          0 HIT:          0 MISS:          0
cpu2_STLB LOAD         ACCESS:          0 HIT:          0 MISS:          0
cpu2_STLB RFO          ACCESS:          0 HIT:          0 MISS:          0
cpu2_STLB PREFETCH     ACCESS:          0 HIT:          0 MISS:          0
cpu2_STLB WRITE        ACCESS:          0 HIT:          0 MISS:          0
cpu2_STLB TRANSLATION  ACCESS:          0 HIT:          0 MISS:          0
cpu2_STLB PREFETCH REQUESTED:          0 ISSUED:          0 USEFUL:          0 USELESS:          0
cpu2_STLB AVERAGE MISS LATENCY: 204.3 cycles
cpu2_STLB TOTAL        ACCESS:        249 HIT:          4 MISS:        245
cpu2_STLB LOAD         ACCESS:        249 HIT:          4 MISS:        245
cpu2_STLB RFO          ACCESS:          0 HIT:          0 MISS:          0
cpu2_STLB PREFETCH     ACCESS:          0 HIT:          0 MISS:          0
cpu2_STLB WRITE        ACCESS:          0 HIT:          0 MISS:          0
cpu2_STLB TRANSLATION  ACCESS:          0 HIT:          0 MISS:          0
cpu2_STLB PREFETCH REQUESTED:          0 ISSUED:          0 USEFUL:          0 USELESS:          0
cpu2_STLB AVERAGE MISS LATENCY: 204.3 cycles
cpu2_STLB TOTAL        ACCESS:          0 HIT:          0 MISS:          0
cpu2_STLB LOAD         ACCESS:          0 HIT:          0 MISS:          0
cpu2_STLB RFO          ACCESS:          0 HIT:          0 MISS:          0
cpu2_STLB PREFETCH     ACCESS:          0 HIT:          0 MISS:          0
cpu2_STLB WRITE        ACCESS:          0 HIT:          0 MISS:          0
cpu2_STLB TRANSLATION  ACCESS:          0 HIT:          0 MISS:          0
cpu2_STLB PREFETCH REQUESTED:          0 ISSUED:          0 USEFUL:          0 USELESS:          0
cpu2_STLB AVERAGE MISS LATENCY: 204.3 cycles
cpu3_DTLB TOTAL        ACCESS:          0 HIT:          0 MISS:          0
cpu3_DTLB LOAD         ACCESS:          0 HIT:          0 MISS:          0
cpu3_DTLB RFO          ACCESS:          0 HIT:          0 MISS:          0
cpu3_DTLB PREFETCH     ACCESS:          0 HIT:          0 MISS:          0
cpu3_DTLB WRITE        ACCESS:          0 HIT:          0 MISS:          0
cpu3_DTLB TRANSLATION  ACCESS:          0 HIT:          0 MISS:          0
cpu3_DTLB PREFETCH REQUESTED:          0 ISSUED:          0 USEFUL:          0 USELESS:          0
cpu3_DTLB AVERAGE MISS LATENCY: 30.87 cycles
cpu3_DTLB TOTAL        ACCESS:          0 HIT:          0 MISS:          0
cpu3_DTLB LOAD         ACCESS:          0 HIT:          0 MISS:          0
cpu3_DTLB RFO          ACCESS:          0 HIT:          0 MISS:          0
cpu3_DTLB PREFETCH     ACCESS:          0 HIT:          0 MISS:          0
cpu3_DTLB WRITE        ACCESS:          0 HIT:          0 MISS:          0
cpu3_DTLB TRANSLATION  ACCESS:          0 HIT:          0 MISS:          0
cpu3_DTLB PREFETCH REQUESTED:          0 ISSUED:          0 USEFUL:          0 USELESS:          0
cpu3_DTLB AVERAGE MISS LATENCY: 30.87 cycles
cpu3_DTLB TOTAL        ACCESS:          0 HIT:          0 MISS:          0
cpu3_DTLB LOAD         ACCESS:          0 HIT:          0 MISS:          0
cpu3_DTLB RFO          ACCESS:          0 HIT:          0 MISS:          0
cpu3_DTLB PREFETCH     ACCESS:          0 HIT:          0 MISS:          0
cpu3_DTLB WRITE        ACCESS:          0 HIT:          0 MISS:          0
cpu3_DTLB TRANSLATION  ACCESS:          0 HIT:          0 MISS:          0
cpu3_DTLB PREFETCH REQUESTED:          0 ISSUED:          0 USEFUL:          0 USELESS:          0
cpu3_DTLB AVERAGE MISS LATENCY: 30.87 cycles
cpu3_DTLB TOTAL        ACCESS:   22372189 HIT:   22081475 MISS:     290714
cpu3_DTLB LOAD         ACCESS:   22372189 HIT:   22081475 MISS:     290714
cpu3_DTLB RFO          ACCESS:          0 HIT:          0 MISS:          0
cpu3_DTLB PREFETCH     ACCESS:          0 HIT:          0 MISS:          0
cpu3_DTLB WRITE        ACCESS:          0 HIT:          0 MISS:          0
cpu3_DTLB TRANSLATION  ACCESS:          0 HIT:          0 MISS:          0
cpu3_DTLB PREFETCH REQUESTED:          0 ISSUED:          0 USEFUL:          0 USELESS:          0
cpu3_DTLB AVERAGE MISS LATENCY: 30.87 cycles
cpu3_ITLB TOTAL        ACCESS:          0 HIT:          0 MISS:          0
cpu3_ITLB LOAD         ACCESS:          0 HIT:          0 MISS:          0
cpu3_ITLB RFO          ACCESS:          0 HIT:          0 MISS:          0
cpu3_ITLB PREFETCH     ACCESS:          0 HIT:          0 MISS:          0
cpu3_ITLB WRITE        ACCESS:          0 HIT:          0 MISS:          0
cpu3_ITLB TRANSLATION  ACCESS:          0 HIT:          0 MISS:          0
cpu3_ITLB PREFETCH REQUESTED:          0 ISSUED:          0 USEFUL:          0 USELESS:          0
cpu3_ITLB AVERAGE MISS LATENCY: 232.3 cycles
cpu3_ITLB TOTAL        ACCESS:          0 HIT:          0 MISS:          0
cpu3_ITLB LOAD         ACCESS:          0 HIT:          0 MISS:          0
cpu3_ITLB RFO          ACCESS:          0 HIT:          0 MISS:          0
cpu3_ITLB PREFETCH     ACCESS:          0 HIT:          0 MISS:          0
cpu3_ITLB WRITE        ACCESS:          0 HIT:          0 MISS:          0
cpu3_ITLB TRANSLATION  ACCESS:          0 HIT:          0 MISS:          0
cpu3_ITLB PREFETCH REQUESTED:          0 ISSUED:          0 USEFUL:          0 USELESS:          0
cpu3_ITLB AVERAGE MISS LATENCY: 232.3 cycles
cpu3_ITLB TOTAL        ACCESS:          0 HIT:          0 MISS:          0
cpu3_ITLB LOAD         ACCESS:          0 HIT:          0 MISS:          0
cpu3_ITLB RFO          ACCESS:          0 HIT:          0 MISS:          0
cpu3_ITLB PREFETCH     ACCESS:          0 HIT:          0 MISS:          0
cpu3_ITLB WRITE        ACCESS:          0 HIT:          0 MISS:          0
cpu3_ITLB TRANSLATION  ACCESS:          0 HIT:          0 MISS:          0
cpu3_ITLB PREFETCH REQUESTED:          0 ISSUED:          0 USEFUL:          0 USELESS:          0
cpu3_ITLB AVERAGE MISS LATENCY: 232.3 cycles
cpu3_ITLB TOTAL        ACCESS:    2466149 HIT:    2462509 MISS:       3640
cpu3_ITLB LOAD         ACCESS:    2466149 HIT:    2462509 MISS:       3640
cpu3_ITLB RFO          ACCESS:          0 HIT:          0 MISS:          0
cpu3_ITLB PREFETCH     ACCESS:          0 HIT:          0 MISS:          0
cpu3_ITLB WRITE        ACCESS:          0 HIT:          0 MISS:          0
cpu3_ITLB TRANSLATION  ACCESS:          0 HIT:          0 MISS:          0
cpu3_ITLB PREFETCH REQUESTED:          0 ISSUED:          0 USEFUL:          0 USELESS:          0
cpu3_ITLB AVERAGE MISS LATENCY: 232.3 cycles
cpu3_L1D TOTAL        ACCESS:          0 HIT:          0 MISS:          0
cpu3_L1D LOAD         ACCESS:          0 HIT:          0 MISS:          0
cpu3_L1D RFO          ACCESS:          0 HIT:          0 MISS:          0
cpu3_L1D PREFETCH     ACCESS:          0 HIT:          0 MISS:          0
cpu3_L1D WRITE        ACCESS:          0 HIT:          0 MISS:          0
cpu3_L1D TRANSLATION  ACCESS:          0 HIT:          0 MISS:          0
cpu3_L1D PREFETCH REQUESTED:   53621583 ISSUED:    9128196 USEFUL:     284729 USELESS:     127904
cpu3_L1D AVERAGE MISS LATENCY: 857.9 cycles
cpu3_L1D TOTAL        ACCESS:          0 HIT:          0 MISS:          0
cpu3_L1D LOAD         ACCESS:          0 HIT:          0 MISS:          0
cpu3_L1D RFO          ACCESS:          0 HIT:          0 MISS:          0
cpu3_L1D PREFETCH     ACCESS:          0 HIT:          0 MISS:          0
cpu3_L1D WRITE        ACCESS:          0 HIT:          0 MISS:          0
cpu3_L1D TRANSLATION  ACCESS:          0 HIT:          0 MISS:          0
cpu3_L1D PREFETCH REQUESTED:   53621583 ISSUED:    9128196 USEFUL:     284729 USELESS:     127904
cpu3_L1D AVERAGE MISS LATENCY: 857.9 cycles
cpu3_L1D TOTAL        ACCESS:          0 HIT:          0 MISS:          0
cpu3_L1D LOAD         ACCESS:          0 HIT:          0 MISS:          0
cpu3_L1D RFO          ACCESS:          0 HIT:          0 MISS:          0
cpu3_L1D PREFETCH     ACCESS:          0 HIT:          0 MISS:          0
cpu3_L1D WRITE        ACCESS:          0 HIT:          0 MISS:          0
cpu3_L1D TRANSLATION  ACCESS:          0 HIT:          0 MISS:          0
cpu3_L1D PREFETCH REQUESTED:   53621583 ISSUED:    9128196 USEFUL:     284729 USELESS:     127904
cpu3_L1D AVERAGE MISS LATENCY: 857.9 cycles
cpu3_L1D TOTAL        ACCESS:   32437345 HIT:   26220502 MISS:    6216843
cpu3_L1D LOAD         ACCESS:   14389143 HIT:   13761051 MISS:     628092
cpu3_L1D RFO          ACCESS:          0 HIT:          0 MISS:          0
cpu3_L1D PREFETCH     ACCESS:    2845787 HIT:    2056370 MISS:     789417
cpu3_L1D WRITE        ACCESS:   15183030 HIT:   10387902 MISS:    4795128
cpu3_L1D TRANSLATION  ACCESS:      19385 HIT:      15179 MISS:       4206
cpu3_L1D PREFETCH REQUESTED:   53621583 ISSUED:    9128196 USEFUL:     284729 USELESS:     127904
cpu3_L1D AVERAGE MISS LATENCY: 857.9 cycles
cpu3_L1I TOTAL        ACCESS:          0 HIT:          0 MISS:          0
cpu3_L1I LOAD         ACCESS:          0 HIT:          0 MISS:          0
cpu3_L1I RFO          ACCESS:          0 HIT:          0 MISS:          0
cpu3_L1I PREFETCH     ACCESS:          0 HIT:          0 MISS:          0
cpu3_L1I WRITE        ACCESS:          0 HIT:          0 MISS:          0
cpu3_L1I TRANSLATION  ACCESS:          0 HIT:          0 MISS:          0
cpu3_L1I PREFETCH REQUESTED:          0 ISSUED:          0 USEFUL:          0 USELESS:          0
cpu3_L1I AVERAGE MISS LATENCY: 603.1 cycles
cpu3_L1I TOTAL        ACCESS:          0 HIT:          0 MISS:          0
cpu3_L1I LOAD         ACCESS:          0 HIT:          0 MISS:          0
cpu3_L1I RFO          ACCESS:          0 HIT:          0 MISS:          0
cpu3_L1I PREFETCH     ACCESS:          0 HIT:          0 MISS:          0
cpu3_L1I WRITE        ACCESS:          0 HIT:          0 MISS:          0
cpu3_L1I TRANSLATION  ACCESS:          0 HIT:          0 MISS:          0
cpu3_L1I PREFETCH REQUESTED:          0 ISSUED:          0 USEFUL:          0 USELESS:          0
cpu3_L1I AVERAGE MISS LATENCY: 603.1 cycles
cpu3_L1I TOTAL        ACCESS:          0 HIT:          0 MISS:          0
cpu3_L1I LOAD         ACCESS:          0 HIT:          0 MISS:          0
cpu3_L1I RFO          ACCESS:          0 HIT:          0 MISS:          0
cpu3_L1I PREFETCH     ACCESS:          0 HIT:          0 MISS:          0
cpu3_L1I WRITE        ACCESS:          0 HIT:          0 MISS:          0
cpu3_L1I TRANSLATION  ACCESS:          0 HIT:          0 MISS:          0
cpu3_L1I PREFETCH REQUESTED:          0 ISSUED:          0 USEFUL:          0 USELESS:          0
cpu3_L1I AVERAGE MISS LATENCY: 603.1 cycles
cpu3_L1I TOTAL        ACCESS:    3122914 HIT:    3043926 MISS:      78988
cpu3_L1I LOAD         ACCESS:    3122914 HIT:    3043926 MISS:      78988
cpu3_L1I RFO          ACCESS:          0 HIT:          0 MISS:          0
cpu3_L1I PREFETCH     ACCESS:          0 HIT:          0 MISS:          0
cpu3_L1I WRITE        ACCESS:          0 HIT:          0 MISS:          0
cpu3_L1I TRANSLATION  ACCESS:          0 HIT:          0 MISS:          0
cpu3_L1I PREFETCH REQUESTED:          0 ISSUED:          0 USEFUL:          0 USELESS:          0
cpu3_L1I AVERAGE MISS LATENCY: 603.1 cycles
cpu3_L2C TOTAL        ACCESS:          0 HIT:          0 MISS:          0
cpu3_L2C LOAD         ACCESS:          0 HIT:          0 MISS:          0
cpu3_L2C RFO          ACCESS:          0 HIT:          0 MISS:          0
cpu3_L2C PREFETCH     ACCESS:          0 HIT:          0 MISS:          0
cpu3_L2C WRITE        ACCESS:          0 HIT:          0 MISS:          0
cpu3_L2C TRANSLATION  ACCESS:          0 HIT:          0 MISS:          0
cpu3_L2C PREFETCH REQUESTED:          0 ISSUED:          0 USEFUL:          0 USELESS:          0
cpu3_L2C AVERAGE MISS LATENCY: 4737 cycles
cpu3_L2C TOTAL        ACCESS:          0 HIT:          0 MISS:          0
cpu3_L2C LOAD         ACCESS:          0 HIT:          0 MISS:          0
cpu3_L2C RFO          ACCESS:          0 HIT:          0 MISS:          0
cpu3_L2C PREFETCH     ACCESS:          0 HIT:          0 MISS:          0
cpu3_L2C WRITE        ACCESS:          0 HIT:          0 MISS:          0
cpu3_L2C TRANSLATION  ACCESS:          0 HIT:          0 MISS:          0
cpu3_L2C PREFETCH REQUESTED:          0 ISSUED:          0 USEFUL:          0 USELESS:          0
cpu3_L2C AVERAGE MISS LATENCY: 4737 cycles
cpu3_L2C TOTAL        ACCESS:          0 HIT:          0 MISS:          0
cpu3_L2C LOAD         ACCESS:          0 HIT:          0 MISS:          0
cpu3_L2C RFO          ACCESS:          0 HIT:          0 MISS:          0
cpu3_L2C PREFETCH     ACCESS:          0 HIT:          0 MISS:          0
cpu3_L2C WRITE        ACCESS:          0 HIT:          0 MISS:          0
cpu3_L2C TRANSLATION  ACCESS:          0 HIT:          0 MISS:          0
cpu3_L2C PREFETCH REQUESTED:          0 ISSUED:          0 USEFUL:          0 USELESS:          0
cpu3_L2C AVERAGE MISS LATENCY: 4737 cycles
cpu3_L2C TOTAL        ACCESS:    3763098 HIT:    2547810 MISS:    1215288
cpu3_L2C LOAD         ACCESS:     508063 HIT:     395629 MISS:     112434
cpu3_L2C RFO          ACCESS:    1205657 HIT:     230131 MISS:     975526
cpu3_L2C PREFETCH     ACCESS:     763583 HIT:     639382 MISS:     124201
cpu3_L2C WRITE        ACCESS:    1281622 HIT:    1281537 MISS:         85
cpu3_L2C TRANSLATION  ACCESS:       4173 HIT:       1131 MISS:       3042
cpu3_L2C PREFETCH REQUESTED:          0 ISSUED:          0 USEFUL:          0 USELESS:          0
cpu3_L2C AVERAGE MISS LATENCY: 4737 cycles
cpu3_STLB TOTAL        ACCESS:          0 HIT:          0 MISS:          0
cpu3_STLB LOAD         ACCESS:          0 HIT:          0 MISS:          0
cpu3_STLB RFO          ACCESS:          0 HIT:          0 MISS:          0
cpu3_STLB PREFETCH     ACCESS:          0 HIT:          0 MISS:          0
cpu3_STLB WRITE        ACCESS:          0 HIT:          0 MISS:          0
cpu3_STLB TRANSLATION  ACCESS:          0 HIT:          0 MISS:          0
cpu3_STLB PREFETCH REQUESTED:          0 ISSUED:          0 USEFUL:          0 USELESS:          0
cpu3_STLB AVERAGE MISS LATENCY: 554 cycles
cpu3_STLB TOTAL        ACCESS:          0 HIT:          0 MISS:          0
cpu3_STLB LOAD         ACCESS:          0 HIT:          0 MISS:          0
cpu3_STLB RFO          ACCESS:          0 HIT:          0 MISS:          0
cpu3_STLB PREFETCH     ACCESS:          0 HIT:          0 MISS:          0
cpu3_STLB WRITE        ACCESS:          0 HIT:          0 MISS:          0
cpu3_STLB TRANSLATION  ACCESS:          0 HIT:          0 MISS:          0
cpu3_STLB PREFETCH REQUESTED:          0 ISSUED:          0 USEFUL:          0 USELESS:          0
cpu3_STLB AVERAGE MISS LATENCY: 554 cycles
cpu3_STLB TOTAL        ACCESS:          0 HIT:          0 MISS:          0
cpu3_STLB LOAD         ACCESS:          0 HIT:          0 MISS:          0
cpu3_STLB RFO          ACCESS:          0 HIT:          0 MISS:          0
cpu3_STLB PREFETCH     ACCESS:          0 HIT:          0 MISS:          0
cpu3_STLB WRITE        ACCESS:          0 HIT:          0 MISS:          0
cpu3_STLB TRANSLATION  ACCESS:          0 HIT:          0 MISS:          0
cpu3_STLB PREFETCH REQUESTED:          0 ISSUED:          0 USEFUL:          0 USELESS:          0
cpu3_STLB AVERAGE MISS LATENCY: 554 cycles
cpu3_STLB TOTAL        ACCESS:     102887 HIT:      83871 MISS:      19016
cpu3_STLB LOAD         ACCESS:     102887 HIT:      83871 MISS:      19016
cpu3_STLB RFO          ACCESS:          0 HIT:          0 MISS:          0
cpu3_STLB PREFETCH     ACCESS:          0 HIT:          0 MISS:          0
cpu3_STLB WRITE        ACCESS:          0 HIT:          0 MISS:          0
cpu3_STLB TRANSLATION  ACCESS:          0 HIT:          0 MISS:          0
cpu3_STLB PREFETCH REQUESTED:          0 ISSUED:          0 USEFUL:          0 USELESS:          0
cpu3_STLB AVERAGE MISS LATENCY: 554 cycles

DRAM Statistics

Channel 0 RQ ROW_BUFFER_HIT:    1729120
  ROW_BUFFER_MISS:    9801506
 AVG DBUS CONGESTED CYCLE: 3.995
WQ ROW_BUFFER_HIT: Channel 0 
  ROW_BUFFER_MISS:     335184
  FULL:    8315755
BERTI TO_L1: 139144971 TO_L2: 408732124 TO_L2_BC_MSHR: 109319947
BERTI AVG_LAT: 370.395 NUM_TRACK_LATENCY: 11820448 NUM_CANT_TRACK_LATENCY: 616118
BERTI CROSS_PAGE 95553558 NO_CROSS_PAGE: 452323537
BERTI FOUND_BERTI: 199365165 NO_FOUND_BERTI: 482229586
BERTI AVERAGE_ISSUED: 2.90052
BERTI TO_L1: 139144971 TO_L2: 408732124 TO_L2_BC_MSHR: 109319947
BERTI AVG_LAT: 370.395 NUM_TRACK_LATENCY: 11820448 NUM_CANT_TRACK_LATENCY: 616118
BERTI CROSS_PAGE 95553558 NO_CROSS_PAGE: 452323537
BERTI FOUND_BERTI: 199365165 NO_FOUND_BERTI: 482229586
BERTI AVERAGE_ISSUED: 2.90052
BERTI TO_L1: 139144971 TO_L2: 408732124 TO_L2_BC_MSHR: 109319947
BERTI AVG_LAT: 370.395 NUM_TRACK_LATENCY: 11820448 NUM_CANT_TRACK_LATENCY: 616118
BERTI CROSS_PAGE 95553558 NO_CROSS_PAGE: 452323537
BERTI FOUND_BERTI: 199365165 NO_FOUND_BERTI: 482229586
BERTI AVERAGE_ISSUED: 2.90052
BERTI TO_L1: 139144971 TO_L2: 408732124 TO_L2_BC_MSHR: 109319947
BERTI AVG_LAT: 370.395 NUM_TRACK_LATENCY: 11820448 NUM_CANT_TRACK_LATENCY: 616118
BERTI CROSS_PAGE 95553558 NO_CROSS_PAGE: 452323537
BERTI FOUND_BERTI: 199365165 NO_FOUND_BERTI: 482229586
BERTI AVERAGE_ISSUED: 2.90052
