WARNING: physical memory size is smaller than virtual memory size.
WARNING: option --warmup_instructions is deprecated. Use --warmup-instructions instead.
WARNING: option --simulation_instructions is deprecated. Use --simulation-instructions instead.

*** ChampSim Multicore Out-of-Order Simulator ***
Warmup Instructions: 50000000
Simulation Instructions: 150000000
Number of CPUs: 4
Page size: 4096

Berti Prefetcher
BERTI HASH ORIGINAL
BERTI IP MASK ffff
Berti Prefetcher
BERTI HASH ORIGINAL
BERTI IP MASK ffff
Berti Prefetcher
BERTI HASH ORIGINAL
BERTI IP MASK ffff
Berti Prefetcher
BERTI HASH ORIGINAL
BERTI IP MASK ffff
Off-chip DRAM Size: 4 GiB Channels: 1 Width: 64-bit Data Race: 3200 MT/s
Heartbeat CPU 3 instructions: 10000002 cycles: 2502901 heartbeat IPC: 3.995 cumulative IPC: 3.995 (Simulation time: 00 hr 02 min 14 sec)
Heartbeat CPU 2 instructions: 10000002 cycles: 2724909 heartbeat IPC: 3.67 cumulative IPC: 3.67 (Simulation time: 00 hr 02 min 26 sec)
Heartbeat CPU 0 instructions: 10000002 cycles: 3385998 heartbeat IPC: 2.953 cumulative IPC: 2.953 (Simulation time: 00 hr 03 min 02 sec)
Heartbeat CPU 1 instructions: 10000003 cycles: 3681319 heartbeat IPC: 2.716 cumulative IPC: 2.716 (Simulation time: 00 hr 03 min 18 sec)
Heartbeat CPU 3 instructions: 20000001 cycles: 5005630 heartbeat IPC: 3.996 cumulative IPC: 3.996 (Simulation time: 00 hr 04 min 30 sec)
Heartbeat CPU 2 instructions: 20000002 cycles: 5241653 heartbeat IPC: 3.973 cumulative IPC: 3.816 (Simulation time: 00 hr 04 min 42 sec)
Heartbeat CPU 0 instructions: 20000003 cycles: 6766294 heartbeat IPC: 2.958 cumulative IPC: 2.956 (Simulation time: 00 hr 06 min 07 sec)
Heartbeat CPU 1 instructions: 20000002 cycles: 7362237 heartbeat IPC: 2.717 cumulative IPC: 2.717 (Simulation time: 00 hr 06 min 40 sec)
Heartbeat CPU 3 instructions: 30000003 cycles: 7507965 heartbeat IPC: 3.996 cumulative IPC: 3.996 (Simulation time: 00 hr 06 min 48 sec)
Heartbeat CPU 2 instructions: 30000000 cycles: 7758023 heartbeat IPC: 3.974 cumulative IPC: 3.867 (Simulation time: 00 hr 07 min 01 sec)
Heartbeat CPU 3 instructions: 40000002 cycles: 10010596 heartbeat IPC: 3.996 cumulative IPC: 3.996 (Simulation time: 00 hr 09 min 05 sec)
Heartbeat CPU 0 instructions: 30000001 cycles: 10127534 heartbeat IPC: 2.975 cumulative IPC: 2.962 (Simulation time: 00 hr 09 min 12 sec)
Heartbeat CPU 2 instructions: 40000002 cycles: 10280698 heartbeat IPC: 3.964 cumulative IPC: 3.891 (Simulation time: 00 hr 09 min 20 sec)
Heartbeat CPU 1 instructions: 30000004 cycles: 11045116 heartbeat IPC: 2.715 cumulative IPC: 2.716 (Simulation time: 00 hr 10 min 04 sec)
Heartbeat CPU 3 instructions: 50000003 cycles: 12513280 heartbeat IPC: 3.996 cumulative IPC: 3.996 (Simulation time: 00 hr 11 min 33 sec)
Warmup finished CPU 3 instructions: 50000003 cycles: 12513281 cumulative IPC: 3.996 (Simulation time: 00 hr 11 min 33 sec)
Heartbeat CPU 2 instructions: 50000001 cycles: 12834925 heartbeat IPC: 3.915 cumulative IPC: 3.896 (Simulation time: 00 hr 11 min 51 sec)
Warmup finished CPU 2 instructions: 50000001 cycles: 12834926 cumulative IPC: 3.896 (Simulation time: 00 hr 11 min 51 sec)
Heartbeat CPU 0 instructions: 40000004 cycles: 13523218 heartbeat IPC: 2.945 cumulative IPC: 2.958 (Simulation time: 00 hr 12 min 33 sec)
Heartbeat CPU 1 instructions: 40000002 cycles: 14725173 heartbeat IPC: 2.717 cumulative IPC: 2.716 (Simulation time: 00 hr 13 min 39 sec)
Heartbeat CPU 3 instructions: 60000001 cycles: 15015994 heartbeat IPC: 3.996 cumulative IPC: 3.996 (Simulation time: 00 hr 13 min 54 sec)
Heartbeat CPU 2 instructions: 60000000 cycles: 15394719 heartbeat IPC: 3.907 cumulative IPC: 3.897 (Simulation time: 00 hr 14 min 15 sec)
Heartbeat CPU 0 instructions: 50000002 cycles: 16923804 heartbeat IPC: 2.941 cumulative IPC: 2.954 (Simulation time: 00 hr 15 min 44 sec)
Warmup finished CPU 0 instructions: 50000002 cycles: 16923805 cumulative IPC: 2.954 (Simulation time: 00 hr 15 min 44 sec)
Heartbeat CPU 3 instructions: 70000003 cycles: 17520811 heartbeat IPC: 3.992 cumulative IPC: 3.995 (Simulation time: 00 hr 16 min 17 sec)
Heartbeat CPU 2 instructions: 70000001 cycles: 17935520 heartbeat IPC: 3.936 cumulative IPC: 3.903 (Simulation time: 00 hr 16 min 40 sec)
Heartbeat CPU 1 instructions: 50000002 cycles: 18404292 heartbeat IPC: 2.718 cumulative IPC: 2.717 (Simulation time: 00 hr 17 min 06 sec)
Warmup finished CPU 1 instructions: 50000002 cycles: 18404293 cumulative IPC: 2.717 (Simulation time: 00 hr 17 min 06 sec)
Warmup complete CPU 0 instructions: 54310685 cycles: 18404293 cumulative IPC: 2.951 (Simulation time: 00 hr 17 min 06 sec)
Warmup complete CPU 1 instructions: 50000002 cycles: 18404293 cumulative IPC: 2.717 (Simulation time: 00 hr 17 min 06 sec)
Warmup complete CPU 2 instructions: 71865681 cycles: 18404293 cumulative IPC: 3.905 (Simulation time: 00 hr 17 min 06 sec)
Warmup complete CPU 3 instructions: 73533927 cycles: 18404293 cumulative IPC: 3.995 (Simulation time: 00 hr 17 min 06 sec)
Heartbeat CPU 3 instructions: 80000001 cycles: 21569628 heartbeat IPC: 2.47 cumulative IPC: 2.043 (Simulation time: 00 hr 18 min 52 sec)
Heartbeat CPU 3 instructions: 90000004 cycles: 26389424 heartbeat IPC: 2.075 cumulative IPC: 2.062 (Simulation time: 00 hr 21 min 09 sec)
Heartbeat CPU 2 instructions: 80000003 cycles: 28119578 heartbeat IPC: 0.9819 cumulative IPC: 0.8373 (Simulation time: 00 hr 22 min 07 sec)
Heartbeat CPU 3 instructions: 100000000 cycles: 31167153 heartbeat IPC: 2.093 cumulative IPC: 2.074 (Simulation time: 00 hr 23 min 43 sec)
Heartbeat CPU 2 instructions: 90000003 cycles: 34492623 heartbeat IPC: 1.569 cumulative IPC: 1.127 (Simulation time: 00 hr 25 min 35 sec)
Heartbeat CPU 3 instructions: 110000001 cycles: 35926501 heartbeat IPC: 2.101 cumulative IPC: 2.081 (Simulation time: 00 hr 26 min 21 sec)
Heartbeat CPU 3 instructions: 120000000 cycles: 40613806 heartbeat IPC: 2.133 cumulative IPC: 2.092 (Simulation time: 00 hr 28 min 42 sec)
Heartbeat CPU 3 instructions: 130000002 cycles: 45351224 heartbeat IPC: 2.111 cumulative IPC: 2.095 (Simulation time: 00 hr 31 min 08 sec)
Heartbeat CPU 3 instructions: 140000000 cycles: 50172412 heartbeat IPC: 2.074 cumulative IPC: 2.092 (Simulation time: 00 hr 33 min 36 sec)
Heartbeat CPU 1 instructions: 60000004 cycles: 50589683 heartbeat IPC: 0.3107 cumulative IPC: 0.3107 (Simulation time: 00 hr 33 min 49 sec)
Heartbeat CPU 3 instructions: 150000004 cycles: 54849101 heartbeat IPC: 2.138 cumulative IPC: 2.098 (Simulation time: 00 hr 35 min 51 sec)
Heartbeat CPU 0 instructions: 60000004 cycles: 55740232 heartbeat IPC: 0.2576 cumulative IPC: 0.1524 (Simulation time: 00 hr 36 min 19 sec)
Heartbeat CPU 3 instructions: 160000003 cycles: 59556768 heartbeat IPC: 2.124 cumulative IPC: 2.101 (Simulation time: 00 hr 38 min 18 sec)
Heartbeat CPU 3 instructions: 170000003 cycles: 64232766 heartbeat IPC: 2.139 cumulative IPC: 2.105 (Simulation time: 00 hr 40 min 42 sec)
Heartbeat CPU 3 instructions: 180000004 cycles: 68911483 heartbeat IPC: 2.137 cumulative IPC: 2.108 (Simulation time: 00 hr 43 min 08 sec)
Heartbeat CPU 3 instructions: 190000002 cycles: 73586065 heartbeat IPC: 2.139 cumulative IPC: 2.111 (Simulation time: 00 hr 45 min 25 sec)
Heartbeat CPU 2 instructions: 100000001 cycles: 76735828 heartbeat IPC: 0.2367 cumulative IPC: 0.4823 (Simulation time: 00 hr 46 min 57 sec)
Heartbeat CPU 3 instructions: 200000000 cycles: 78424408 heartbeat IPC: 2.067 cumulative IPC: 2.107 (Simulation time: 00 hr 47 min 44 sec)
Heartbeat CPU 3 instructions: 210000000 cycles: 83152588 heartbeat IPC: 2.115 cumulative IPC: 2.108 (Simulation time: 00 hr 49 min 58 sec)
Heartbeat CPU 1 instructions: 70000000 cycles: 84966257 heartbeat IPC: 0.2909 cumulative IPC: 0.3005 (Simulation time: 00 hr 50 min 50 sec)
Heartbeat CPU 3 instructions: 220000000 cycles: 87874822 heartbeat IPC: 2.118 cumulative IPC: 2.108 (Simulation time: 00 hr 52 min 14 sec)
Simulation finished CPU 3 instructions: 150000003 cycles: 71106093 cumulative IPC: 2.11 (Simulation time: 00 hr 52 min 59 sec)
Heartbeat CPU 3 instructions: 230000001 cycles: 92591579 heartbeat IPC: 2.12 cumulative IPC: 2.109 (Simulation time: 00 hr 54 min 29 sec)
Heartbeat CPU 3 instructions: 240000000 cycles: 97377028 heartbeat IPC: 2.09 cumulative IPC: 2.108 (Simulation time: 00 hr 56 min 49 sec)
Heartbeat CPU 3 instructions: 250000002 cycles: 102148163 heartbeat IPC: 2.096 cumulative IPC: 2.107 (Simulation time: 00 hr 59 min 08 sec)
Heartbeat CPU 3 instructions: 260000000 cycles: 107082489 heartbeat IPC: 2.027 cumulative IPC: 2.103 (Simulation time: 01 hr 01 min 29 sec)
Heartbeat CPU 3 instructions: 270000000 cycles: 111831049 heartbeat IPC: 2.106 cumulative IPC: 2.103 (Simulation time: 01 hr 03 min 43 sec)
Heartbeat CPU 3 instructions: 280000001 cycles: 116581890 heartbeat IPC: 2.105 cumulative IPC: 2.103 (Simulation time: 01 hr 06 min 00 sec)
Heartbeat CPU 3 instructions: 290000004 cycles: 121400109 heartbeat IPC: 2.075 cumulative IPC: 2.102 (Simulation time: 01 hr 08 min 19 sec)
Heartbeat CPU 3 instructions: 300000000 cycles: 126160539 heartbeat IPC: 2.101 cumulative IPC: 2.102 (Simulation time: 01 hr 10 min 36 sec)
Heartbeat CPU 3 instructions: 310000001 cycles: 130941173 heartbeat IPC: 2.092 cumulative IPC: 2.101 (Simulation time: 01 hr 12 min 56 sec)
Heartbeat CPU 1 instructions: 80000000 cycles: 132147990 heartbeat IPC: 0.2119 cumulative IPC: 0.2638 (Simulation time: 01 hr 13 min 30 sec)
Heartbeat CPU 3 instructions: 320000001 cycles: 135724725 heartbeat IPC: 2.09 cumulative IPC: 2.101 (Simulation time: 01 hr 15 min 11 sec)
Heartbeat CPU 3 instructions: 330000001 cycles: 140470113 heartbeat IPC: 2.107 cumulative IPC: 2.101 (Simulation time: 01 hr 17 min 29 sec)
Heartbeat CPU 0 instructions: 70000000 cycles: 157257237 heartbeat IPC: 0.09851 cumulative IPC: 0.113 (Simulation time: 01 hr 24 min 41 sec)
Heartbeat CPU 3 instructions: 340000000 cycles: 158559091 heartbeat IPC: 0.5528 cumulative IPC: 1.901 (Simulation time: 01 hr 25 min 17 sec)
Heartbeat CPU 2 instructions: 110000001 cycles: 166055644 heartbeat IPC: 0.112 cumulative IPC: 0.2583 (Simulation time: 01 hr 28 min 54 sec)
Heartbeat CPU 3 instructions: 350000002 cycles: 166750885 heartbeat IPC: 1.221 cumulative IPC: 1.864 (Simulation time: 01 hr 29 min 17 sec)
Heartbeat CPU 3 instructions: 360000003 cycles: 173323281 heartbeat IPC: 1.522 cumulative IPC: 1.849 (Simulation time: 01 hr 32 min 38 sec)
Heartbeat CPU 2 instructions: 120000003 cycles: 174695736 heartbeat IPC: 1.157 cumulative IPC: 0.308 (Simulation time: 01 hr 33 min 29 sec)
Heartbeat CPU 1 instructions: 90000000 cycles: 175074189 heartbeat IPC: 0.233 cumulative IPC: 0.2553 (Simulation time: 01 hr 33 min 42 sec)
Heartbeat CPU 2 instructions: 130000002 cycles: 179137668 heartbeat IPC: 2.251 cumulative IPC: 0.3617 (Simulation time: 01 hr 36 min 12 sec)
Heartbeat CPU 3 instructions: 370000000 cycles: 179148705 heartbeat IPC: 1.717 cumulative IPC: 1.844 (Simulation time: 01 hr 36 min 12 sec)
Heartbeat CPU 2 instructions: 140000000 cycles: 183552300 heartbeat IPC: 2.265 cumulative IPC: 0.4126 (Simulation time: 01 hr 38 min 49 sec)
Heartbeat CPU 3 instructions: 380000002 cycles: 184999898 heartbeat IPC: 1.709 cumulative IPC: 1.84 (Simulation time: 01 hr 39 min 34 sec)
Heartbeat CPU 2 instructions: 150000001 cycles: 192105122 heartbeat IPC: 1.169 cumulative IPC: 0.4498 (Simulation time: 01 hr 42 min 53 sec)
Heartbeat CPU 2 instructions: 160000000 cycles: 202608163 heartbeat IPC: 0.9521 cumulative IPC: 0.4785 (Simulation time: 01 hr 47 min 41 sec)
Heartbeat CPU 1 instructions: 100000000 cycles: 214497339 heartbeat IPC: 0.2537 cumulative IPC: 0.255 (Simulation time: 01 hr 52 min 53 sec)
Heartbeat CPU 2 instructions: 170000000 cycles: 216272460 heartbeat IPC: 0.7318 cumulative IPC: 0.496 (Simulation time: 01 hr 53 min 39 sec)
Heartbeat CPU 3 instructions: 390000001 cycles: 223281167 heartbeat IPC: 0.2612 cumulative IPC: 1.545 (Simulation time: 01 hr 56 min 53 sec)
Heartbeat CPU 2 instructions: 180000004 cycles: 227583683 heartbeat IPC: 0.8841 cumulative IPC: 0.5169 (Simulation time: 01 hr 58 min 48 sec)
Heartbeat CPU 3 instructions: 400000003 cycles: 233473572 heartbeat IPC: 0.9811 cumulative IPC: 1.518 (Simulation time: 02 hr 01 min 32 sec)
Heartbeat CPU 2 instructions: 190000002 cycles: 235385744 heartbeat IPC: 1.282 cumulative IPC: 0.5444 (Simulation time: 02 hr 02 min 30 sec)
Heartbeat CPU 0 instructions: 80000000 cycles: 239589490 heartbeat IPC: 0.1215 cumulative IPC: 0.1161 (Simulation time: 02 hr 04 min 26 sec)
Heartbeat CPU 3 instructions: 410000003 cycles: 244661304 heartbeat IPC: 0.8938 cumulative IPC: 1.487 (Simulation time: 02 hr 06 min 35 sec)
Heartbeat CPU 1 instructions: 110000003 cycles: 249466940 heartbeat IPC: 0.286 cumulative IPC: 0.2597 (Simulation time: 02 hr 08 min 32 sec)
Heartbeat CPU 3 instructions: 420000001 cycles: 255532913 heartbeat IPC: 0.9198 cumulative IPC: 1.461 (Simulation time: 02 hr 11 min 10 sec)
Heartbeat CPU 3 instructions: 430000001 cycles: 266592070 heartbeat IPC: 0.9042 cumulative IPC: 1.436 (Simulation time: 02 hr 16 min 04 sec)
Heartbeat CPU 2 instructions: 200000004 cycles: 270209460 heartbeat IPC: 0.2872 cumulative IPC: 0.5089 (Simulation time: 02 hr 17 min 34 sec)
Heartbeat CPU 3 instructions: 440000004 cycles: 278296762 heartbeat IPC: 0.8544 cumulative IPC: 1.41 (Simulation time: 02 hr 21 min 10 sec)
Heartbeat CPU 1 instructions: 120000001 cycles: 284053650 heartbeat IPC: 0.2891 cumulative IPC: 0.2635 (Simulation time: 02 hr 23 min 36 sec)
Heartbeat CPU 3 instructions: 450000000 cycles: 296655805 heartbeat IPC: 0.5447 cumulative IPC: 1.353 (Simulation time: 02 hr 28 min 35 sec)
Heartbeat CPU 3 instructions: 460000004 cycles: 319206666 heartbeat IPC: 0.4434 cumulative IPC: 1.285 (Simulation time: 02 hr 37 min 15 sec)
Heartbeat CPU 1 instructions: 130000001 cycles: 330762810 heartbeat IPC: 0.2141 cumulative IPC: 0.2561 (Simulation time: 02 hr 41 min 36 sec)
Heartbeat CPU 0 instructions: 90000000 cycles: 333292872 heartbeat IPC: 0.1067 cumulative IPC: 0.1133 (Simulation time: 02 hr 42 min 38 sec)
Heartbeat CPU 3 instructions: 470000003 cycles: 341238962 heartbeat IPC: 0.4539 cumulative IPC: 1.228 (Simulation time: 02 hr 45 min 41 sec)
Heartbeat CPU 3 instructions: 480000000 cycles: 362656582 heartbeat IPC: 0.4669 cumulative IPC: 1.181 (Simulation time: 02 hr 54 min 03 sec)
Heartbeat CPU 2 instructions: 210000003 cycles: 372013506 heartbeat IPC: 0.09823 cumulative IPC: 0.3906 (Simulation time: 02 hr 57 min 53 sec)
Heartbeat CPU 1 instructions: 140000002 cycles: 376590055 heartbeat IPC: 0.2182 cumulative IPC: 0.2513 (Simulation time: 02 hr 59 min 50 sec)
Heartbeat CPU 2 instructions: 220000001 cycles: 382507019 heartbeat IPC: 0.953 cumulative IPC: 0.4068 (Simulation time: 03 hr 02 min 31 sec)
Simulation finished CPU 2 instructions: 150000002 cycles: 364892512 cumulative IPC: 0.4111 (Simulation time: 03 hr 02 min 54 sec)
Heartbeat CPU 3 instructions: 490000002 cycles: 384014495 heartbeat IPC: 0.4682 cumulative IPC: 1.139 (Simulation time: 03 hr 03 min 16 sec)
Heartbeat CPU 2 instructions: 230000001 cycles: 386936448 heartbeat IPC: 2.258 cumulative IPC: 0.4291 (Simulation time: 03 hr 04 min 51 sec)
Heartbeat CPU 2 instructions: 240000000 cycles: 391482535 heartbeat IPC: 2.2 cumulative IPC: 0.4507 (Simulation time: 03 hr 07 min 10 sec)
Heartbeat CPU 3 instructions: 500000000 cycles: 394575069 heartbeat IPC: 0.9469 cumulative IPC: 1.134 (Simulation time: 03 hr 08 min 42 sec)
Heartbeat CPU 2 instructions: 250000004 cycles: 399282810 heartbeat IPC: 1.282 cumulative IPC: 0.4677 (Simulation time: 03 hr 11 min 01 sec)
Heartbeat CPU 3 instructions: 510000002 cycles: 404360974 heartbeat IPC: 1.022 cumulative IPC: 1.131 (Simulation time: 03 hr 13 min 16 sec)
Heartbeat CPU 2 instructions: 260000000 cycles: 409071525 heartbeat IPC: 1.022 cumulative IPC: 0.4816 (Simulation time: 03 hr 15 min 33 sec)
Heartbeat CPU 1 instructions: 150000002 cycles: 413852656 heartbeat IPC: 0.2684 cumulative IPC: 0.2529 (Simulation time: 03 hr 17 min 45 sec)
Heartbeat CPU 3 instructions: 520000000 cycles: 414640056 heartbeat IPC: 0.9728 cumulative IPC: 1.127 (Simulation time: 03 hr 18 min 08 sec)
Heartbeat CPU 2 instructions: 270000000 cycles: 418199030 heartbeat IPC: 1.096 cumulative IPC: 0.4956 (Simulation time: 03 hr 19 min 45 sec)
Heartbeat CPU 0 instructions: 100000001 cycles: 423282954 heartbeat IPC: 0.1111 cumulative IPC: 0.1128 (Simulation time: 03 hr 22 min 04 sec)
Heartbeat CPU 3 instructions: 530000003 cycles: 424189732 heartbeat IPC: 1.047 cumulative IPC: 1.125 (Simulation time: 03 hr 22 min 31 sec)
Heartbeat CPU 2 instructions: 280000001 cycles: 427679054 heartbeat IPC: 1.055 cumulative IPC: 0.5085 (Simulation time: 03 hr 24 min 05 sec)
Heartbeat CPU 3 instructions: 540000000 cycles: 433753941 heartbeat IPC: 1.046 cumulative IPC: 1.123 (Simulation time: 03 hr 26 min 45 sec)
Heartbeat CPU 2 instructions: 290000002 cycles: 438958512 heartbeat IPC: 0.8866 cumulative IPC: 0.5187 (Simulation time: 03 hr 29 min 09 sec)
Heartbeat CPU 3 instructions: 550000002 cycles: 443233761 heartbeat IPC: 1.055 cumulative IPC: 1.122 (Simulation time: 03 hr 31 min 16 sec)
Heartbeat CPU 1 instructions: 160000001 cycles: 448839151 heartbeat IPC: 0.2858 cumulative IPC: 0.2556 (Simulation time: 03 hr 33 min 36 sec)
Heartbeat CPU 3 instructions: 560000002 cycles: 452825294 heartbeat IPC: 1.043 cumulative IPC: 1.12 (Simulation time: 03 hr 35 min 13 sec)
Heartbeat CPU 2 instructions: 300000002 cycles: 461250423 heartbeat IPC: 0.4486 cumulative IPC: 0.5152 (Simulation time: 03 hr 38 min 43 sec)
Heartbeat CPU 3 instructions: 570000004 cycles: 462731592 heartbeat IPC: 1.009 cumulative IPC: 1.117 (Simulation time: 03 hr 39 min 20 sec)
Heartbeat CPU 3 instructions: 580000000 cycles: 472538208 heartbeat IPC: 1.02 cumulative IPC: 1.115 (Simulation time: 03 hr 43 min 35 sec)
Heartbeat CPU 3 instructions: 590000001 cycles: 482583431 heartbeat IPC: 0.9955 cumulative IPC: 1.113 (Simulation time: 03 hr 47 min 54 sec)
Heartbeat CPU 1 instructions: 170000000 cycles: 484589819 heartbeat IPC: 0.2797 cumulative IPC: 0.2574 (Simulation time: 03 hr 48 min 44 sec)
Heartbeat CPU 3 instructions: 600000000 cycles: 491852921 heartbeat IPC: 1.079 cumulative IPC: 1.112 (Simulation time: 03 hr 51 min 37 sec)
Heartbeat CPU 3 instructions: 610000000 cycles: 502722229 heartbeat IPC: 0.92 cumulative IPC: 1.108 (Simulation time: 03 hr 55 min 45 sec)
Heartbeat CPU 0 instructions: 110000002 cycles: 507838485 heartbeat IPC: 0.1183 cumulative IPC: 0.1138 (Simulation time: 03 hr 57 min 34 sec)
Heartbeat CPU 1 instructions: 180000001 cycles: 532338287 heartbeat IPC: 0.2094 cumulative IPC: 0.253 (Simulation time: 04 hr 06 min 02 sec)
Heartbeat CPU 1 instructions: 190000000 cycles: 581870549 heartbeat IPC: 0.2019 cumulative IPC: 0.2485 (Simulation time: 04 hr 22 min 56 sec)
Heartbeat CPU 2 instructions: 310000000 cycles: 582446452 heartbeat IPC: 0.08251 cumulative IPC: 0.4222 (Simulation time: 04 hr 23 min 09 sec)
Heartbeat CPU 2 instructions: 320000004 cycles: 596367537 heartbeat IPC: 0.7183 cumulative IPC: 0.4293 (Simulation time: 04 hr 28 min 37 sec)
Heartbeat CPU 2 instructions: 330000002 cycles: 601020719 heartbeat IPC: 2.149 cumulative IPC: 0.4431 (Simulation time: 04 hr 30 min 38 sec)
Heartbeat CPU 2 instructions: 340000004 cycles: 605520438 heartbeat IPC: 2.222 cumulative IPC: 0.4567 (Simulation time: 04 hr 32 min 37 sec)
Heartbeat CPU 3 instructions: 620000002 cycles: 605559297 heartbeat IPC: 0.09724 cumulative IPC: 0.9307 (Simulation time: 04 hr 32 min 39 sec)
Heartbeat CPU 2 instructions: 350000004 cycles: 612547441 heartbeat IPC: 1.423 cumulative IPC: 0.4681 (Simulation time: 04 hr 35 min 36 sec)
Heartbeat CPU 2 instructions: 360000001 cycles: 621471150 heartbeat IPC: 1.121 cumulative IPC: 0.4778 (Simulation time: 04 hr 39 min 24 sec)
Heartbeat CPU 1 instructions: 200000002 cycles: 623967004 heartbeat IPC: 0.2375 cumulative IPC: 0.2477 (Simulation time: 04 hr 40 min 31 sec)
Simulation finished CPU 1 instructions: 150000000 cycles: 605562712 cumulative IPC: 0.2477 (Simulation time: 04 hr 40 min 31 sec)
Heartbeat CPU 0 instructions: 120000003 cycles: 628475907 heartbeat IPC: 0.08289 cumulative IPC: 0.1077 (Simulation time: 04 hr 42 min 21 sec)
Heartbeat CPU 2 instructions: 370000001 cycles: 630653550 heartbeat IPC: 1.089 cumulative IPC: 0.4869 (Simulation time: 04 hr 43 min 19 sec)
Heartbeat CPU 2 instructions: 380000002 cycles: 640413755 heartbeat IPC: 1.025 cumulative IPC: 0.4954 (Simulation time: 04 hr 47 min 33 sec)
Heartbeat CPU 2 instructions: 390000000 cycles: 652957194 heartbeat IPC: 0.7972 cumulative IPC: 0.5014 (Simulation time: 04 hr 53 min 18 sec)
Heartbeat CPU 3 instructions: 630000002 cycles: 657027497 heartbeat IPC: 0.1943 cumulative IPC: 0.8714 (Simulation time: 04 hr 55 min 24 sec)
Heartbeat CPU 2 instructions: 400000001 cycles: 660381312 heartbeat IPC: 1.347 cumulative IPC: 0.5111 (Simulation time: 04 hr 57 min 25 sec)
Heartbeat CPU 1 instructions: 210000003 cycles: 661549248 heartbeat IPC: 0.2661 cumulative IPC: 0.2488 (Simulation time: 04 hr 58 min 07 sec)
Heartbeat CPU 1 instructions: 220000000 cycles: 699667413 heartbeat IPC: 0.2623 cumulative IPC: 0.2495 (Simulation time: 05 hr 14 min 33 sec)
Heartbeat CPU 0 instructions: 130000000 cycles: 716044333 heartbeat IPC: 0.1142 cumulative IPC: 0.1085 (Simulation time: 05 hr 21 min 09 sec)
Heartbeat CPU 3 instructions: 640000000 cycles: 722908568 heartbeat IPC: 0.1518 cumulative IPC: 0.8041 (Simulation time: 05 hr 23 min 38 sec)
Heartbeat CPU 2 instructions: 410000000 cycles: 723288527 heartbeat IPC: 0.159 cumulative IPC: 0.4797 (Simulation time: 05 hr 23 min 46 sec)
Heartbeat CPU 1 instructions: 230000000 cycles: 743227509 heartbeat IPC: 0.2296 cumulative IPC: 0.2483 (Simulation time: 05 hr 30 min 59 sec)
Heartbeat CPU 1 instructions: 240000003 cycles: 792090770 heartbeat IPC: 0.2047 cumulative IPC: 0.2456 (Simulation time: 05 hr 49 min 00 sec)
Heartbeat CPU 2 instructions: 420000002 cycles: 807920976 heartbeat IPC: 0.1182 cumulative IPC: 0.4409 (Simulation time: 05 hr 55 min 04 sec)
Heartbeat CPU 2 instructions: 430000000 cycles: 818001216 heartbeat IPC: 0.992 cumulative IPC: 0.4479 (Simulation time: 05 hr 59 min 23 sec)
Heartbeat CPU 2 instructions: 440000003 cycles: 823397237 heartbeat IPC: 1.853 cumulative IPC: 0.4573 (Simulation time: 06 hr 01 min 45 sec)
Heartbeat CPU 2 instructions: 450000002 cycles: 828983376 heartbeat IPC: 1.79 cumulative IPC: 0.4665 (Simulation time: 06 hr 04 min 12 sec)
Heartbeat CPU 1 instructions: 250000003 cycles: 832895036 heartbeat IPC: 0.2451 cumulative IPC: 0.2456 (Simulation time: 06 hr 06 min 07 sec)
Heartbeat CPU 2 instructions: 460000001 cycles: 837308098 heartbeat IPC: 1.201 cumulative IPC: 0.474 (Simulation time: 06 hr 08 min 01 sec)
Heartbeat CPU 3 instructions: 650000000 cycles: 840327344 heartbeat IPC: 0.08517 cumulative IPC: 0.7014 (Simulation time: 06 hr 09 min 19 sec)
Heartbeat CPU 0 instructions: 140000003 cycles: 840631658 heartbeat IPC: 0.08027 cumulative IPC: 0.1042 (Simulation time: 06 hr 09 min 29 sec)
Heartbeat CPU 2 instructions: 470000000 cycles: 846118711 heartbeat IPC: 1.135 cumulative IPC: 0.481 (Simulation time: 06 hr 12 min 08 sec)
Heartbeat CPU 2 instructions: 480000000 cycles: 855521787 heartbeat IPC: 1.063 cumulative IPC: 0.4875 (Simulation time: 06 hr 16 min 42 sec)
Heartbeat CPU 3 instructions: 660000001 cycles: 860202025 heartbeat IPC: 0.5032 cumulative IPC: 0.6967 (Simulation time: 06 hr 18 min 43 sec)
Heartbeat CPU 2 instructions: 490000001 cycles: 867257765 heartbeat IPC: 0.8521 cumulative IPC: 0.4926 (Simulation time: 06 hr 21 min 42 sec)
Heartbeat CPU 1 instructions: 260000001 cycles: 868341528 heartbeat IPC: 0.2821 cumulative IPC: 0.2471 (Simulation time: 06 hr 22 min 12 sec)
Heartbeat CPU 2 instructions: 500000000 cycles: 874168345 heartbeat IPC: 1.447 cumulative IPC: 0.5003 (Simulation time: 06 hr 24 min 59 sec)
Heartbeat CPU 3 instructions: 670000000 cycles: 897391428 heartbeat IPC: 0.2689 cumulative IPC: 0.6786 (Simulation time: 06 hr 34 min 20 sec)
Heartbeat CPU 1 instructions: 270000002 cycles: 904735245 heartbeat IPC: 0.2748 cumulative IPC: 0.2482 (Simulation time: 06 hr 37 min 21 sec)
Heartbeat CPU 2 instructions: 510000000 cycles: 924164043 heartbeat IPC: 0.2 cumulative IPC: 0.4837 (Simulation time: 06 hr 44 min 49 sec)
Heartbeat CPU 0 instructions: 150000001 cycles: 925959907 heartbeat IPC: 0.1172 cumulative IPC: 0.1054 (Simulation time: 06 hr 45 min 29 sec)
Heartbeat CPU 1 instructions: 280000000 cycles: 947150606 heartbeat IPC: 0.2358 cumulative IPC: 0.2476 (Simulation time: 06 hr 53 min 07 sec)
Heartbeat CPU 1 instructions: 290000001 cycles: 995172810 heartbeat IPC: 0.2082 cumulative IPC: 0.2457 (Simulation time: 07 hr 10 min 12 sec)
Heartbeat CPU 2 instructions: 520000003 cycles: 1024661200 heartbeat IPC: 0.09951 cumulative IPC: 0.4453 (Simulation time: 07 hr 19 min 52 sec)
Heartbeat CPU 2 instructions: 530000003 cycles: 1034070779 heartbeat IPC: 1.063 cumulative IPC: 0.4511 (Simulation time: 07 hr 23 min 38 sec)
Heartbeat CPU 2 instructions: 540000004 cycles: 1038676915 heartbeat IPC: 2.171 cumulative IPC: 0.4588 (Simulation time: 07 hr 25 min 40 sec)
Heartbeat CPU 1 instructions: 300000001 cycles: 1039521560 heartbeat IPC: 0.2255 cumulative IPC: 0.2448 (Simulation time: 07 hr 26 min 01 sec)
Heartbeat CPU 3 instructions: 680000000 cycles: 1041156992 heartbeat IPC: 0.06956 cumulative IPC: 0.593 (Simulation time: 07 hr 26 min 48 sec)
Heartbeat CPU 2 instructions: 550000001 cycles: 1044306765 heartbeat IPC: 1.776 cumulative IPC: 0.4661 (Simulation time: 07 hr 28 min 08 sec)
Heartbeat CPU 2 instructions: 560000000 cycles: 1051368428 heartbeat IPC: 1.416 cumulative IPC: 0.4726 (Simulation time: 07 hr 31 min 09 sec)
Heartbeat CPU 0 instructions: 160000001 cycles: 1059926872 heartbeat IPC: 0.07465 cumulative IPC: 0.1015 (Simulation time: 07 hr 34 min 39 sec)
Heartbeat CPU 2 instructions: 570000004 cycles: 1061582730 heartbeat IPC: 0.979 cumulative IPC: 0.4775 (Simulation time: 07 hr 35 min 21 sec)
Heartbeat CPU 3 instructions: 690000001 cycles: 1066871491 heartbeat IPC: 0.3889 cumulative IPC: 0.588 (Simulation time: 07 hr 37 min 30 sec)
Heartbeat CPU 2 instructions: 580000003 cycles: 1071132087 heartbeat IPC: 1.047 cumulative IPC: 0.4827 (Simulation time: 07 hr 39 min 12 sec)
Heartbeat CPU 1 instructions: 310000002 cycles: 1073743366 heartbeat IPC: 0.2922 cumulative IPC: 0.2464 (Simulation time: 07 hr 40 min 23 sec)
Heartbeat CPU 2 instructions: 590000000 cycles: 1081856048 heartbeat IPC: 0.9325 cumulative IPC: 0.4872 (Simulation time: 07 hr 43 min 31 sec)
Heartbeat CPU 2 instructions: 600000000 cycles: 1088939808 heartbeat IPC: 1.412 cumulative IPC: 0.4933 (Simulation time: 07 hr 46 min 30 sec)
Heartbeat CPU 3 instructions: 700000003 cycles: 1095618553 heartbeat IPC: 0.3479 cumulative IPC: 0.5816 (Simulation time: 07 hr 49 min 04 sec)
Heartbeat CPU 1 instructions: 320000001 cycles: 1107831976 heartbeat IPC: 0.2934 cumulative IPC: 0.2478 (Simulation time: 07 hr 53 min 24 sec)
Heartbeat CPU 3 instructions: 710000000 cycles: 1127782759 heartbeat IPC: 0.3109 cumulative IPC: 0.5737 (Simulation time: 08 hr 00 min 21 sec)
Heartbeat CPU 2 instructions: 610000003 cycles: 1129738636 heartbeat IPC: 0.2451 cumulative IPC: 0.4842 (Simulation time: 08 hr 01 min 00 sec)
Heartbeat CPU 0 instructions: 170000004 cycles: 1133956679 heartbeat IPC: 0.1351 cumulative IPC: 0.1037 (Simulation time: 08 hr 02 min 21 sec)
Heartbeat CPU 1 instructions: 330000001 cycles: 1143927601 heartbeat IPC: 0.277 cumulative IPC: 0.2488 (Simulation time: 08 hr 05 min 30 sec)
Heartbeat CPU 3 instructions: 720000003 cycles: 1171290347 heartbeat IPC: 0.2298 cumulative IPC: 0.5607 (Simulation time: 08 hr 14 min 06 sec)
Heartbeat CPU 1 instructions: 340000000 cycles: 1192356400 heartbeat IPC: 0.2065 cumulative IPC: 0.247 (Simulation time: 08 hr 20 min 33 sec)
Heartbeat CPU 2 instructions: 620000003 cycles: 1227317907 heartbeat IPC: 0.1025 cumulative IPC: 0.4534 (Simulation time: 08 hr 31 min 51 sec)
Heartbeat CPU 3 instructions: 730000002 cycles: 1230662640 heartbeat IPC: 0.1684 cumulative IPC: 0.5415 (Simulation time: 08 hr 33 min 04 sec)
Heartbeat CPU 1 instructions: 350000000 cycles: 1236511291 heartbeat IPC: 0.2265 cumulative IPC: 0.2463 (Simulation time: 08 hr 35 min 18 sec)
Heartbeat CPU 2 instructions: 630000002 cycles: 1237083456 heartbeat IPC: 1.024 cumulative IPC: 0.458 (Simulation time: 08 hr 35 min 33 sec)
Heartbeat CPU 2 instructions: 640000004 cycles: 1241791131 heartbeat IPC: 2.124 cumulative IPC: 0.4644 (Simulation time: 08 hr 37 min 28 sec)
Heartbeat CPU 0 instructions: 180000004 cycles: 1245985719 heartbeat IPC: 0.08926 cumulative IPC: 0.1024 (Simulation time: 08 hr 39 min 09 sec)
Heartbeat CPU 2 instructions: 650000000 cycles: 1248451555 heartbeat IPC: 1.501 cumulative IPC: 0.47 (Simulation time: 08 hr 40 min 06 sec)
Heartbeat CPU 2 instructions: 660000001 cycles: 1257205498 heartbeat IPC: 1.142 cumulative IPC: 0.4748 (Simulation time: 08 hr 43 min 21 sec)
Heartbeat CPU 2 instructions: 670000000 cycles: 1266411939 heartbeat IPC: 1.086 cumulative IPC: 0.4793 (Simulation time: 08 hr 46 min 47 sec)
Heartbeat CPU 1 instructions: 360000000 cycles: 1271256647 heartbeat IPC: 0.2878 cumulative IPC: 0.2474 (Simulation time: 08 hr 48 min 41 sec)
Heartbeat CPU 3 instructions: 740000004 cycles: 1272616063 heartbeat IPC: 0.2384 cumulative IPC: 0.5314 (Simulation time: 08 hr 49 min 11 sec)
Heartbeat CPU 2 instructions: 680000001 cycles: 1276248631 heartbeat IPC: 1.017 cumulative IPC: 0.4835 (Simulation time: 08 hr 50 min 27 sec)
Heartbeat CPU 2 instructions: 690000001 cycles: 1285090311 heartbeat IPC: 1.131 cumulative IPC: 0.488 (Simulation time: 08 hr 53 min 45 sec)
Heartbeat CPU 1 instructions: 370000001 cycles: 1306730223 heartbeat IPC: 0.2819 cumulative IPC: 0.2484 (Simulation time: 09 hr 01 min 03 sec)
Heartbeat CPU 2 instructions: 700000000 cycles: 1321824779 heartbeat IPC: 0.2722 cumulative IPC: 0.4819 (Simulation time: 09 hr 06 min 13 sec)
Heartbeat CPU 0 instructions: 190000000 cycles: 1324098002 heartbeat IPC: 0.128 cumulative IPC: 0.1039 (Simulation time: 09 hr 07 min 00 sec)
Heartbeat CPU 1 instructions: 380000001 cycles: 1342261661 heartbeat IPC: 0.2814 cumulative IPC: 0.2493 (Simulation time: 09 hr 13 min 19 sec)
Heartbeat CPU 3 instructions: 750000004 cycles: 1360670795 heartbeat IPC: 0.1136 cumulative IPC: 0.504 (Simulation time: 09 hr 19 min 37 sec)
Heartbeat CPU 1 instructions: 390000004 cycles: 1388460382 heartbeat IPC: 0.2165 cumulative IPC: 0.2482 (Simulation time: 09 hr 28 min 24 sec)
Heartbeat CPU 3 instructions: 760000000 cycles: 1419881604 heartbeat IPC: 0.1689 cumulative IPC: 0.4898 (Simulation time: 09 hr 38 min 37 sec)
Heartbeat CPU 2 instructions: 710000000 cycles: 1425139668 heartbeat IPC: 0.09679 cumulative IPC: 0.4536 (Simulation time: 09 hr 40 min 25 sec)
Heartbeat CPU 1 instructions: 400000003 cycles: 1432681916 heartbeat IPC: 0.2261 cumulative IPC: 0.2475 (Simulation time: 09 hr 43 min 04 sec)
Heartbeat CPU 2 instructions: 720000002 cycles: 1435317562 heartbeat IPC: 0.9825 cumulative IPC: 0.4574 (Simulation time: 09 hr 44 min 07 sec)
Heartbeat CPU 2 instructions: 730000003 cycles: 1440486828 heartbeat IPC: 1.935 cumulative IPC: 0.4628 (Simulation time: 09 hr 46 min 11 sec)
Heartbeat CPU 0 instructions: 200000003 cycles: 1441738131 heartbeat IPC: 0.08501 cumulative IPC: 0.1024 (Simulation time: 09 hr 46 min 39 sec)
Heartbeat CPU 2 instructions: 740000002 cycles: 1447154449 heartbeat IPC: 1.5 cumulative IPC: 0.4676 (Simulation time: 09 hr 48 min 47 sec)
Heartbeat CPU 2 instructions: 750000003 cycles: 1456772456 heartbeat IPC: 1.04 cumulative IPC: 0.4715 (Simulation time: 09 hr 52 min 19 sec)
Heartbeat CPU 2 instructions: 760000000 cycles: 1465253231 heartbeat IPC: 1.179 cumulative IPC: 0.4756 (Simulation time: 09 hr 55 min 39 sec)
Heartbeat CPU 1 instructions: 410000002 cycles: 1468095617 heartbeat IPC: 0.2824 cumulative IPC: 0.2483 (Simulation time: 09 hr 56 min 38 sec)
Heartbeat CPU 2 instructions: 770000003 cycles: 1477251996 heartbeat IPC: 0.8334 cumulative IPC: 0.4786 (Simulation time: 10 hr 00 min 00 sec)
Simulation finished CPU 0 instructions: 150000003 cycles: 1459843685 cumulative IPC: 0.1028 (Simulation time: 10 hr 00 min 23 sec)
Simulation complete CPU 0 instructions: 150000003 cycles: 1459843685 cumulative IPC: 0.1028 (Simulation time: 10 hr 00 min 23 sec)
Simulation complete CPU 1 instructions: 362834339 cycles: 1459843685 cumulative IPC: 0.2485 (Simulation time: 10 hr 00 min 23 sec)
Simulation complete CPU 2 instructions: 698817550 cycles: 1459843685 cumulative IPC: 0.4787 (Simulation time: 10 hr 00 min 23 sec)
Simulation complete CPU 3 instructions: 695169164 cycles: 1459843685 cumulative IPC: 0.4762 (Simulation time: 10 hr 00 min 23 sec)

ChampSim completed all CPUs

=== Simulation ===
CPU 0 runs /home/das/dpc3_traces/619.lbm_s-4268B.champsimtrace.xzCPU 1 runs /home/das/dpc3_traces/607.cactuBSSN_s-2421B.champsimtrace.xzCPU 2 runs /home/das/dpc3_traces/627.cam4_s-573B.champsimtrace.xzCPU 3 runs /home/das/dpc3_traces/621.wrf_s-575B.champsimtrace.xz
Total Simulation Statistics (not including warmup)

CPU 0 cumulative IPC: 0.1028 instructions: 150000003 cycles: 1459843685
CPU 0 Branch Prediction Accuracy: 97.11% MPKI: 0.5214 Average ROB Occupancy at Mispredict: 245.6
Branch type MPKI
BRANCH_DIRECT_JUMP: 0
BRANCH_INDIRECT: 0
BRANCH_CONDITIONAL: 0.521
BRANCH_DIRECT_CALL: 0
BRANCH_INDIRECT_CALL: 0
BRANCH_RETURN: 0


CPU 1 cumulative IPC: 0.2485 instructions: 362834339 cycles: 1459843685
CPU 1 Branch Prediction Accuracy: 98.94% MPKI: 0.01377 Average ROB Occupancy at Mispredict: 137.1
Branch type MPKI
BRANCH_DIRECT_JUMP: 8.27e-05
BRANCH_INDIRECT: 0.000234
BRANCH_CONDITIONAL: 0.00854
BRANCH_DIRECT_CALL: 0.00171
BRANCH_INDIRECT_CALL: 8.27e-06
BRANCH_RETURN: 0.0032


CPU 2 cumulative IPC: 0.4787 instructions: 698817550 cycles: 1459843685
CPU 2 Branch Prediction Accuracy: 94.67% MPKI: 7.116 Average ROB Occupancy at Mispredict: 67.33
Branch type MPKI
BRANCH_DIRECT_JUMP: 0.00531
BRANCH_INDIRECT: 0.00149
BRANCH_CONDITIONAL: 6.45
BRANCH_DIRECT_CALL: 0.0181
BRANCH_INDIRECT_CALL: 0
BRANCH_RETURN: 0.644


CPU 3 cumulative IPC: 0.4762 instructions: 695169164 cycles: 1459843685
CPU 3 Branch Prediction Accuracy: 95.45% MPKI: 5.508 Average ROB Occupancy at Mispredict: 105.8
Branch type MPKI
BRANCH_DIRECT_JUMP: 0.000457
BRANCH_INDIRECT: 2.45e-05
BRANCH_CONDITIONAL: 5.1
BRANCH_DIRECT_CALL: 0.00264
BRANCH_INDIRECT_CALL: 0
BRANCH_RETURN: 0.403

LLC TOTAL        ACCESS:   12942129 HIT:    5688419 MISS:    7253710
LLC LOAD         ACCESS:     327516 HIT:        496 MISS:     327020
LLC RFO          ACCESS:    5174907 HIT:     133171 MISS:    5041736
LLC PREFETCH     ACCESS:    1942287 HIT:      59401 MISS:    1882886
LLC WRITE        ACCESS:    5496584 HIT:    5495301 MISS:       1283
LLC TRANSLATION  ACCESS:        835 HIT:         50 MISS:        785
LLC PREFETCH REQUESTED:          0 ISSUED:          0 USEFUL:          0 USELESS:          0
LLC AVERAGE MISS LATENCY: 6361 cycles
LLC TOTAL        ACCESS:    4166200 HIT:    1329249 MISS:    2836951
LLC LOAD         ACCESS:    3748464 HIT:     947158 MISS:    2801306
LLC RFO          ACCESS:       6964 HIT:       5856 MISS:       1108
LLC PREFETCH     ACCESS:         29 HIT:          9 MISS:         20
LLC WRITE        ACCESS:     355371 HIT:     355129 MISS:        242
LLC TRANSLATION  ACCESS:      55372 HIT:      21097 MISS:      34275
LLC PREFETCH REQUESTED:          0 ISSUED:          0 USEFUL:          0 USELESS:          0
LLC AVERAGE MISS LATENCY: 6361 cycles
LLC TOTAL        ACCESS:    7723009 HIT:    3664014 MISS:    4058995
LLC LOAD         ACCESS:     455417 HIT:      89974 MISS:     365443
LLC RFO          ACCESS:    3442333 HIT:      79867 MISS:    3362466
LLC PREFETCH     ACCESS:     309990 HIT:      63968 MISS:     246022
LLC WRITE        ACCESS:    3503731 HIT:    3429491 MISS:      74240
LLC TRANSLATION  ACCESS:      11538 HIT:        714 MISS:      10824
LLC PREFETCH REQUESTED:          0 ISSUED:          0 USEFUL:          0 USELESS:          0
LLC AVERAGE MISS LATENCY: 6361 cycles
LLC TOTAL        ACCESS:    4787417 HIT:    2053275 MISS:    2734142
LLC LOAD         ACCESS:     705189 HIT:     272930 MISS:     432259
LLC RFO          ACCESS:     790575 HIT:     143971 MISS:     646604
LLC PREFETCH     ACCESS:    1888543 HIT:     273008 MISS:    1615535
LLC WRITE        ACCESS:    1398037 HIT:    1361436 MISS:      36601
LLC TRANSLATION  ACCESS:       5073 HIT:       1930 MISS:       3143
LLC PREFETCH REQUESTED:          0 ISSUED:          0 USEFUL:          0 USELESS:          0
LLC AVERAGE MISS LATENCY: 6361 cycles
cpu0_DTLB TOTAL        ACCESS:   24287875 HIT:   23973010 MISS:     314865
cpu0_DTLB LOAD         ACCESS:   24287875 HIT:   23973010 MISS:     314865
cpu0_DTLB RFO          ACCESS:          0 HIT:          0 MISS:          0
cpu0_DTLB PREFETCH     ACCESS:          0 HIT:          0 MISS:          0
cpu0_DTLB WRITE        ACCESS:          0 HIT:          0 MISS:          0
cpu0_DTLB TRANSLATION  ACCESS:          0 HIT:          0 MISS:          0
cpu0_DTLB PREFETCH REQUESTED:          0 ISSUED:          0 USEFUL:          0 USELESS:          0
cpu0_DTLB AVERAGE MISS LATENCY: 87.2 cycles
cpu0_DTLB TOTAL        ACCESS:          0 HIT:          0 MISS:          0
cpu0_DTLB LOAD         ACCESS:          0 HIT:          0 MISS:          0
cpu0_DTLB RFO          ACCESS:          0 HIT:          0 MISS:          0
cpu0_DTLB PREFETCH     ACCESS:          0 HIT:          0 MISS:          0
cpu0_DTLB WRITE        ACCESS:          0 HIT:          0 MISS:          0
cpu0_DTLB TRANSLATION  ACCESS:          0 HIT:          0 MISS:          0
cpu0_DTLB PREFETCH REQUESTED:          0 ISSUED:          0 USEFUL:          0 USELESS:          0
cpu0_DTLB AVERAGE MISS LATENCY: 87.2 cycles
cpu0_DTLB TOTAL        ACCESS:          0 HIT:          0 MISS:          0
cpu0_DTLB LOAD         ACCESS:          0 HIT:          0 MISS:          0
cpu0_DTLB RFO          ACCESS:          0 HIT:          0 MISS:          0
cpu0_DTLB PREFETCH     ACCESS:          0 HIT:          0 MISS:          0
cpu0_DTLB WRITE        ACCESS:          0 HIT:          0 MISS:          0
cpu0_DTLB TRANSLATION  ACCESS:          0 HIT:          0 MISS:          0
cpu0_DTLB PREFETCH REQUESTED:          0 ISSUED:          0 USEFUL:          0 USELESS:          0
cpu0_DTLB AVERAGE MISS LATENCY: 87.2 cycles
cpu0_DTLB TOTAL        ACCESS:          0 HIT:          0 MISS:          0
cpu0_DTLB LOAD         ACCESS:          0 HIT:          0 MISS:          0
cpu0_DTLB RFO          ACCESS:          0 HIT:          0 MISS:          0
cpu0_DTLB PREFETCH     ACCESS:          0 HIT:          0 MISS:          0
cpu0_DTLB WRITE        ACCESS:          0 HIT:          0 MISS:          0
cpu0_DTLB TRANSLATION  ACCESS:          0 HIT:          0 MISS:          0
cpu0_DTLB PREFETCH REQUESTED:          0 ISSUED:          0 USEFUL:          0 USELESS:          0
cpu0_DTLB AVERAGE MISS LATENCY: 87.2 cycles
cpu0_ITLB TOTAL        ACCESS:          0 HIT:          0 MISS:          0
cpu0_ITLB LOAD         ACCESS:          0 HIT:          0 MISS:          0
cpu0_ITLB RFO          ACCESS:          0 HIT:          0 MISS:          0
cpu0_ITLB PREFETCH     ACCESS:          0 HIT:          0 MISS:          0
cpu0_ITLB WRITE        ACCESS:          0 HIT:          0 MISS:          0
cpu0_ITLB TRANSLATION  ACCESS:          0 HIT:          0 MISS:          0
cpu0_ITLB PREFETCH REQUESTED:          0 ISSUED:          0 USEFUL:          0 USELESS:          0
cpu0_ITLB AVERAGE MISS LATENCY: -nan cycles
cpu0_ITLB TOTAL        ACCESS:          0 HIT:          0 MISS:          0
cpu0_ITLB LOAD         ACCESS:          0 HIT:          0 MISS:          0
cpu0_ITLB RFO          ACCESS:          0 HIT:          0 MISS:          0
cpu0_ITLB PREFETCH     ACCESS:          0 HIT:          0 MISS:          0
cpu0_ITLB WRITE        ACCESS:          0 HIT:          0 MISS:          0
cpu0_ITLB TRANSLATION  ACCESS:          0 HIT:          0 MISS:          0
cpu0_ITLB PREFETCH REQUESTED:          0 ISSUED:          0 USEFUL:          0 USELESS:          0
cpu0_ITLB AVERAGE MISS LATENCY: -nan cycles
cpu0_ITLB TOTAL        ACCESS:          0 HIT:          0 MISS:          0
cpu0_ITLB LOAD         ACCESS:          0 HIT:          0 MISS:          0
cpu0_ITLB RFO          ACCESS:          0 HIT:          0 MISS:          0
cpu0_ITLB PREFETCH     ACCESS:          0 HIT:          0 MISS:          0
cpu0_ITLB WRITE        ACCESS:          0 HIT:          0 MISS:          0
cpu0_ITLB TRANSLATION  ACCESS:          0 HIT:          0 MISS:          0
cpu0_ITLB PREFETCH REQUESTED:          0 ISSUED:          0 USEFUL:          0 USELESS:          0
cpu0_ITLB AVERAGE MISS LATENCY: -nan cycles
cpu0_ITLB TOTAL        ACCESS:          0 HIT:          0 MISS:          0
cpu0_ITLB LOAD         ACCESS:          0 HIT:          0 MISS:          0
cpu0_ITLB RFO          ACCESS:          0 HIT:          0 MISS:          0
cpu0_ITLB PREFETCH     ACCESS:          0 HIT:          0 MISS:          0
cpu0_ITLB WRITE        ACCESS:          0 HIT:          0 MISS:          0
cpu0_ITLB TRANSLATION  ACCESS:          0 HIT:          0 MISS:          0
cpu0_ITLB PREFETCH REQUESTED:          0 ISSUED:          0 USEFUL:          0 USELESS:          0
cpu0_ITLB AVERAGE MISS LATENCY: -nan cycles
cpu0_L1D TOTAL        ACCESS:   39903485 HIT:   20772355 MISS:   19131130
cpu0_L1D LOAD         ACCESS:    5273813 HIT:    3430938 MISS:    1842875
cpu0_L1D RFO          ACCESS:          0 HIT:          0 MISS:          0
cpu0_L1D PREFETCH     ACCESS:    7025102 HIT:    1163906 MISS:    5861196
cpu0_L1D WRITE        ACCESS:   27492210 HIT:   16177292 MISS:   11314918
cpu0_L1D TRANSLATION  ACCESS:     112360 HIT:        219 MISS:     112141
cpu0_L1D PREFETCH REQUESTED:  321137144 ISSUED:    7025074 USEFUL:     532363 USELESS:      98033
cpu0_L1D AVERAGE MISS LATENCY: 1520 cycles
cpu0_L1D TOTAL        ACCESS:          0 HIT:          0 MISS:          0
cpu0_L1D LOAD         ACCESS:          0 HIT:          0 MISS:          0
cpu0_L1D RFO          ACCESS:          0 HIT:          0 MISS:          0
cpu0_L1D PREFETCH     ACCESS:          0 HIT:          0 MISS:          0
cpu0_L1D WRITE        ACCESS:          0 HIT:          0 MISS:          0
cpu0_L1D TRANSLATION  ACCESS:          0 HIT:          0 MISS:          0
cpu0_L1D PREFETCH REQUESTED:  321137144 ISSUED:    7025074 USEFUL:     532363 USELESS:      98033
cpu0_L1D AVERAGE MISS LATENCY: 1520 cycles
cpu0_L1D TOTAL        ACCESS:          0 HIT:          0 MISS:          0
cpu0_L1D LOAD         ACCESS:          0 HIT:          0 MISS:          0
cpu0_L1D RFO          ACCESS:          0 HIT:          0 MISS:          0
cpu0_L1D PREFETCH     ACCESS:          0 HIT:          0 MISS:          0
cpu0_L1D WRITE        ACCESS:          0 HIT:          0 MISS:          0
cpu0_L1D TRANSLATION  ACCESS:          0 HIT:          0 MISS:          0
cpu0_L1D PREFETCH REQUESTED:  321137144 ISSUED:    7025074 USEFUL:     532363 USELESS:      98033
cpu0_L1D AVERAGE MISS LATENCY: 1520 cycles
cpu0_L1D TOTAL        ACCESS:          0 HIT:          0 MISS:          0
cpu0_L1D LOAD         ACCESS:          0 HIT:          0 MISS:          0
cpu0_L1D RFO          ACCESS:          0 HIT:          0 MISS:          0
cpu0_L1D PREFETCH     ACCESS:          0 HIT:          0 MISS:          0
cpu0_L1D WRITE        ACCESS:          0 HIT:          0 MISS:          0
cpu0_L1D TRANSLATION  ACCESS:          0 HIT:          0 MISS:          0
cpu0_L1D PREFETCH REQUESTED:  321137144 ISSUED:    7025074 USEFUL:     532363 USELESS:      98033
cpu0_L1D AVERAGE MISS LATENCY: 1520 cycles
cpu0_L1I TOTAL        ACCESS:          0 HIT:          0 MISS:          0
cpu0_L1I LOAD         ACCESS:          0 HIT:          0 MISS:          0
cpu0_L1I RFO          ACCESS:          0 HIT:          0 MISS:          0
cpu0_L1I PREFETCH     ACCESS:          0 HIT:          0 MISS:          0
cpu0_L1I WRITE        ACCESS:          0 HIT:          0 MISS:          0
cpu0_L1I TRANSLATION  ACCESS:          0 HIT:          0 MISS:          0
cpu0_L1I PREFETCH REQUESTED:          0 ISSUED:          0 USEFUL:          0 USELESS:          0
cpu0_L1I AVERAGE MISS LATENCY: -nan cycles
cpu0_L1I TOTAL        ACCESS:          0 HIT:          0 MISS:          0
cpu0_L1I LOAD         ACCESS:          0 HIT:          0 MISS:          0
cpu0_L1I RFO          ACCESS:          0 HIT:          0 MISS:          0
cpu0_L1I PREFETCH     ACCESS:          0 HIT:          0 MISS:          0
cpu0_L1I WRITE        ACCESS:          0 HIT:          0 MISS:          0
cpu0_L1I TRANSLATION  ACCESS:          0 HIT:          0 MISS:          0
cpu0_L1I PREFETCH REQUESTED:          0 ISSUED:          0 USEFUL:          0 USELESS:          0
cpu0_L1I AVERAGE MISS LATENCY: -nan cycles
cpu0_L1I TOTAL        ACCESS:          0 HIT:          0 MISS:          0
cpu0_L1I LOAD         ACCESS:          0 HIT:          0 MISS:          0
cpu0_L1I RFO          ACCESS:          0 HIT:          0 MISS:          0
cpu0_L1I PREFETCH     ACCESS:          0 HIT:          0 MISS:          0
cpu0_L1I WRITE        ACCESS:          0 HIT:          0 MISS:          0
cpu0_L1I TRANSLATION  ACCESS:          0 HIT:          0 MISS:          0
cpu0_L1I PREFETCH REQUESTED:          0 ISSUED:          0 USEFUL:          0 USELESS:          0
cpu0_L1I AVERAGE MISS LATENCY: -nan cycles
cpu0_L1I TOTAL        ACCESS:          0 HIT:          0 MISS:          0
cpu0_L1I LOAD         ACCESS:          0 HIT:          0 MISS:          0
cpu0_L1I RFO          ACCESS:          0 HIT:          0 MISS:          0
cpu0_L1I PREFETCH     ACCESS:          0 HIT:          0 MISS:          0
cpu0_L1I WRITE        ACCESS:          0 HIT:          0 MISS:          0
cpu0_L1I TRANSLATION  ACCESS:          0 HIT:          0 MISS:          0
cpu0_L1I PREFETCH REQUESTED:          0 ISSUED:          0 USEFUL:          0 USELESS:          0
cpu0_L1I AVERAGE MISS LATENCY: -nan cycles
cpu0_L2C TOTAL        ACCESS:   27002545 HIT:   16924178 MISS:   10078367
cpu0_L2C LOAD         ACCESS:    1266368 HIT:     627818 MISS:     638550
cpu0_L2C RFO          ACCESS:   10138885 HIT:    4933177 MISS:    5205708
cpu0_L2C PREFETCH     ACCESS:    5342579 HIT:    1109327 MISS:    4233252
cpu0_L2C WRITE        ACCESS:   10142572 HIT:   10142550 MISS:         22
cpu0_L2C TRANSLATION  ACCESS:     112141 HIT:     111306 MISS:        835
cpu0_L2C PREFETCH REQUESTED:          0 ISSUED:          0 USEFUL:          0 USELESS:          0
cpu0_L2C AVERAGE MISS LATENCY: 4156 cycles
cpu0_L2C TOTAL        ACCESS:          0 HIT:          0 MISS:          0
cpu0_L2C LOAD         ACCESS:          0 HIT:          0 MISS:          0
cpu0_L2C RFO          ACCESS:          0 HIT:          0 MISS:          0
cpu0_L2C PREFETCH     ACCESS:          0 HIT:          0 MISS:          0
cpu0_L2C WRITE        ACCESS:          0 HIT:          0 MISS:          0
cpu0_L2C TRANSLATION  ACCESS:          0 HIT:          0 MISS:          0
cpu0_L2C PREFETCH REQUESTED:          0 ISSUED:          0 USEFUL:          0 USELESS:          0
cpu0_L2C AVERAGE MISS LATENCY: 4156 cycles
cpu0_L2C TOTAL        ACCESS:          0 HIT:          0 MISS:          0
cpu0_L2C LOAD         ACCESS:          0 HIT:          0 MISS:          0
cpu0_L2C RFO          ACCESS:          0 HIT:          0 MISS:          0
cpu0_L2C PREFETCH     ACCESS:          0 HIT:          0 MISS:          0
cpu0_L2C WRITE        ACCESS:          0 HIT:          0 MISS:          0
cpu0_L2C TRANSLATION  ACCESS:          0 HIT:          0 MISS:          0
cpu0_L2C PREFETCH REQUESTED:          0 ISSUED:          0 USEFUL:          0 USELESS:          0
cpu0_L2C AVERAGE MISS LATENCY: 4156 cycles
cpu0_L2C TOTAL        ACCESS:          0 HIT:          0 MISS:          0
cpu0_L2C LOAD         ACCESS:          0 HIT:          0 MISS:          0
cpu0_L2C RFO          ACCESS:          0 HIT:          0 MISS:          0
cpu0_L2C PREFETCH     ACCESS:          0 HIT:          0 MISS:          0
cpu0_L2C WRITE        ACCESS:          0 HIT:          0 MISS:          0
cpu0_L2C TRANSLATION  ACCESS:          0 HIT:          0 MISS:          0
cpu0_L2C PREFETCH REQUESTED:          0 ISSUED:          0 USEFUL:          0 USELESS:          0
cpu0_L2C AVERAGE MISS LATENCY: 4156 cycles
cpu0_STLB TOTAL        ACCESS:     206876 HIT:      94625 MISS:     112251
cpu0_STLB LOAD         ACCESS:     206876 HIT:      94625 MISS:     112251
cpu0_STLB RFO          ACCESS:          0 HIT:          0 MISS:          0
cpu0_STLB PREFETCH     ACCESS:          0 HIT:          0 MISS:          0
cpu0_STLB WRITE        ACCESS:          0 HIT:          0 MISS:          0
cpu0_STLB TRANSLATION  ACCESS:          0 HIT:          0 MISS:          0
cpu0_STLB PREFETCH REQUESTED:          0 ISSUED:          0 USEFUL:          0 USELESS:          0
cpu0_STLB AVERAGE MISS LATENCY: 298.8 cycles
cpu0_STLB TOTAL        ACCESS:          0 HIT:          0 MISS:          0
cpu0_STLB LOAD         ACCESS:          0 HIT:          0 MISS:          0
cpu0_STLB RFO          ACCESS:          0 HIT:          0 MISS:          0
cpu0_STLB PREFETCH     ACCESS:          0 HIT:          0 MISS:          0
cpu0_STLB WRITE        ACCESS:          0 HIT:          0 MISS:          0
cpu0_STLB TRANSLATION  ACCESS:          0 HIT:          0 MISS:          0
cpu0_STLB PREFETCH REQUESTED:          0 ISSUED:          0 USEFUL:          0 USELESS:          0
cpu0_STLB AVERAGE MISS LATENCY: 298.8 cycles
cpu0_STLB TOTAL        ACCESS:          0 HIT:          0 MISS:          0
cpu0_STLB LOAD         ACCESS:          0 HIT:          0 MISS:          0
cpu0_STLB RFO          ACCESS:          0 HIT:          0 MISS:          0
cpu0_STLB PREFETCH     ACCESS:          0 HIT:          0 MISS:          0
cpu0_STLB WRITE        ACCESS:          0 HIT:          0 MISS:          0
cpu0_STLB TRANSLATION  ACCESS:          0 HIT:          0 MISS:          0
cpu0_STLB PREFETCH REQUESTED:          0 ISSUED:          0 USEFUL:          0 USELESS:          0
cpu0_STLB AVERAGE MISS LATENCY: 298.8 cycles
cpu0_STLB TOTAL        ACCESS:          0 HIT:          0 MISS:          0
cpu0_STLB LOAD         ACCESS:          0 HIT:          0 MISS:          0
cpu0_STLB RFO          ACCESS:          0 HIT:          0 MISS:          0
cpu0_STLB PREFETCH     ACCESS:          0 HIT:          0 MISS:          0
cpu0_STLB WRITE        ACCESS:          0 HIT:          0 MISS:          0
cpu0_STLB TRANSLATION  ACCESS:          0 HIT:          0 MISS:          0
cpu0_STLB PREFETCH REQUESTED:          0 ISSUED:          0 USEFUL:          0 USELESS:          0
cpu0_STLB AVERAGE MISS LATENCY: 298.8 cycles
cpu1_DTLB TOTAL        ACCESS:          0 HIT:          0 MISS:          0
cpu1_DTLB LOAD         ACCESS:          0 HIT:          0 MISS:          0
cpu1_DTLB RFO          ACCESS:          0 HIT:          0 MISS:          0
cpu1_DTLB PREFETCH     ACCESS:          0 HIT:          0 MISS:          0
cpu1_DTLB WRITE        ACCESS:          0 HIT:          0 MISS:          0
cpu1_DTLB TRANSLATION  ACCESS:          0 HIT:          0 MISS:          0
cpu1_DTLB PREFETCH REQUESTED:          0 ISSUED:          0 USEFUL:          0 USELESS:          0
cpu1_DTLB AVERAGE MISS LATENCY: 12.84 cycles
cpu1_DTLB TOTAL        ACCESS:   76682974 HIT:   45005339 MISS:   31677635
cpu1_DTLB LOAD         ACCESS:   76682974 HIT:   45005339 MISS:   31677635
cpu1_DTLB RFO          ACCESS:          0 HIT:          0 MISS:          0
cpu1_DTLB PREFETCH     ACCESS:          0 HIT:          0 MISS:          0
cpu1_DTLB WRITE        ACCESS:          0 HIT:          0 MISS:          0
cpu1_DTLB TRANSLATION  ACCESS:          0 HIT:          0 MISS:          0
cpu1_DTLB PREFETCH REQUESTED:          0 ISSUED:          0 USEFUL:          0 USELESS:          0
cpu1_DTLB AVERAGE MISS LATENCY: 12.84 cycles
cpu1_DTLB TOTAL        ACCESS:          0 HIT:          0 MISS:          0
cpu1_DTLB LOAD         ACCESS:          0 HIT:          0 MISS:          0
cpu1_DTLB RFO          ACCESS:          0 HIT:          0 MISS:          0
cpu1_DTLB PREFETCH     ACCESS:          0 HIT:          0 MISS:          0
cpu1_DTLB WRITE        ACCESS:          0 HIT:          0 MISS:          0
cpu1_DTLB TRANSLATION  ACCESS:          0 HIT:          0 MISS:          0
cpu1_DTLB PREFETCH REQUESTED:          0 ISSUED:          0 USEFUL:          0 USELESS:          0
cpu1_DTLB AVERAGE MISS LATENCY: 12.84 cycles
cpu1_DTLB TOTAL        ACCESS:          0 HIT:          0 MISS:          0
cpu1_DTLB LOAD         ACCESS:          0 HIT:          0 MISS:          0
cpu1_DTLB RFO          ACCESS:          0 HIT:          0 MISS:          0
cpu1_DTLB PREFETCH     ACCESS:          0 HIT:          0 MISS:          0
cpu1_DTLB WRITE        ACCESS:          0 HIT:          0 MISS:          0
cpu1_DTLB TRANSLATION  ACCESS:          0 HIT:          0 MISS:          0
cpu1_DTLB PREFETCH REQUESTED:          0 ISSUED:          0 USEFUL:          0 USELESS:          0
cpu1_DTLB AVERAGE MISS LATENCY: 12.84 cycles
cpu1_ITLB TOTAL        ACCESS:          0 HIT:          0 MISS:          0
cpu1_ITLB LOAD         ACCESS:          0 HIT:          0 MISS:          0
cpu1_ITLB RFO          ACCESS:          0 HIT:          0 MISS:          0
cpu1_ITLB PREFETCH     ACCESS:          0 HIT:          0 MISS:          0
cpu1_ITLB WRITE        ACCESS:          0 HIT:          0 MISS:          0
cpu1_ITLB TRANSLATION  ACCESS:          0 HIT:          0 MISS:          0
cpu1_ITLB PREFETCH REQUESTED:          0 ISSUED:          0 USEFUL:          0 USELESS:          0
cpu1_ITLB AVERAGE MISS LATENCY: 2163 cycles
cpu1_ITLB TOTAL        ACCESS:   47216753 HIT:   47216673 MISS:         80
cpu1_ITLB LOAD         ACCESS:   47216753 HIT:   47216673 MISS:         80
cpu1_ITLB RFO          ACCESS:          0 HIT:          0 MISS:          0
cpu1_ITLB PREFETCH     ACCESS:          0 HIT:          0 MISS:          0
cpu1_ITLB WRITE        ACCESS:          0 HIT:          0 MISS:          0
cpu1_ITLB TRANSLATION  ACCESS:          0 HIT:          0 MISS:          0
cpu1_ITLB PREFETCH REQUESTED:          0 ISSUED:          0 USEFUL:          0 USELESS:          0
cpu1_ITLB AVERAGE MISS LATENCY: 2163 cycles
cpu1_ITLB TOTAL        ACCESS:          0 HIT:          0 MISS:          0
cpu1_ITLB LOAD         ACCESS:          0 HIT:          0 MISS:          0
cpu1_ITLB RFO          ACCESS:          0 HIT:          0 MISS:          0
cpu1_ITLB PREFETCH     ACCESS:          0 HIT:          0 MISS:          0
cpu1_ITLB WRITE        ACCESS:          0 HIT:          0 MISS:          0
cpu1_ITLB TRANSLATION  ACCESS:          0 HIT:          0 MISS:          0
cpu1_ITLB PREFETCH REQUESTED:          0 ISSUED:          0 USEFUL:          0 USELESS:          0
cpu1_ITLB AVERAGE MISS LATENCY: 2163 cycles
cpu1_ITLB TOTAL        ACCESS:          0 HIT:          0 MISS:          0
cpu1_ITLB LOAD         ACCESS:          0 HIT:          0 MISS:          0
cpu1_ITLB RFO          ACCESS:          0 HIT:          0 MISS:          0
cpu1_ITLB PREFETCH     ACCESS:          0 HIT:          0 MISS:          0
cpu1_ITLB WRITE        ACCESS:          0 HIT:          0 MISS:          0
cpu1_ITLB TRANSLATION  ACCESS:          0 HIT:          0 MISS:          0
cpu1_ITLB PREFETCH REQUESTED:          0 ISSUED:          0 USEFUL:          0 USELESS:          0
cpu1_ITLB AVERAGE MISS LATENCY: 2163 cycles
cpu1_L1D TOTAL        ACCESS:          0 HIT:          0 MISS:          0
cpu1_L1D LOAD         ACCESS:          0 HIT:          0 MISS:          0
cpu1_L1D RFO          ACCESS:          0 HIT:          0 MISS:          0
cpu1_L1D PREFETCH     ACCESS:          0 HIT:          0 MISS:          0
cpu1_L1D WRITE        ACCESS:          0 HIT:          0 MISS:          0
cpu1_L1D TRANSLATION  ACCESS:          0 HIT:          0 MISS:          0
cpu1_L1D PREFETCH REQUESTED:       1500 ISSUED:       1285 USEFUL:          0 USELESS:          0
cpu1_L1D AVERAGE MISS LATENCY: 402.7 cycles
cpu1_L1D TOTAL        ACCESS:   94666572 HIT:   52606938 MISS:   42059634
cpu1_L1D LOAD         ACCESS:   53210153 HIT:   13389262 MISS:   39820891
cpu1_L1D RFO          ACCESS:          0 HIT:          0 MISS:          0
cpu1_L1D PREFETCH     ACCESS:       1285 HIT:        949 MISS:        336
cpu1_L1D WRITE        ACCESS:   41386171 HIT:   39216099 MISS:    2170072
cpu1_L1D TRANSLATION  ACCESS:      68963 HIT:        628 MISS:      68335
cpu1_L1D PREFETCH REQUESTED:       1500 ISSUED:       1285 USEFUL:          0 USELESS:          0
cpu1_L1D AVERAGE MISS LATENCY: 402.7 cycles
cpu1_L1D TOTAL        ACCESS:          0 HIT:          0 MISS:          0
cpu1_L1D LOAD         ACCESS:          0 HIT:          0 MISS:          0
cpu1_L1D RFO          ACCESS:          0 HIT:          0 MISS:          0
cpu1_L1D PREFETCH     ACCESS:          0 HIT:          0 MISS:          0
cpu1_L1D WRITE        ACCESS:          0 HIT:          0 MISS:          0
cpu1_L1D TRANSLATION  ACCESS:          0 HIT:          0 MISS:          0
cpu1_L1D PREFETCH REQUESTED:       1500 ISSUED:       1285 USEFUL:          0 USELESS:          0
cpu1_L1D AVERAGE MISS LATENCY: 402.7 cycles
cpu1_L1D TOTAL        ACCESS:          0 HIT:          0 MISS:          0
cpu1_L1D LOAD         ACCESS:          0 HIT:          0 MISS:          0
cpu1_L1D RFO          ACCESS:          0 HIT:          0 MISS:          0
cpu1_L1D PREFETCH     ACCESS:          0 HIT:          0 MISS:          0
cpu1_L1D WRITE        ACCESS:          0 HIT:          0 MISS:          0
cpu1_L1D TRANSLATION  ACCESS:          0 HIT:          0 MISS:          0
cpu1_L1D PREFETCH REQUESTED:       1500 ISSUED:       1285 USEFUL:          0 USELESS:          0
cpu1_L1D AVERAGE MISS LATENCY: 402.7 cycles
cpu1_L1I TOTAL        ACCESS:          0 HIT:          0 MISS:          0
cpu1_L1I LOAD         ACCESS:          0 HIT:          0 MISS:          0
cpu1_L1I RFO          ACCESS:          0 HIT:          0 MISS:          0
cpu1_L1I PREFETCH     ACCESS:          0 HIT:          0 MISS:          0
cpu1_L1I WRITE        ACCESS:          0 HIT:          0 MISS:          0
cpu1_L1I TRANSLATION  ACCESS:          0 HIT:          0 MISS:          0
cpu1_L1I PREFETCH REQUESTED:          0 ISSUED:          0 USEFUL:          0 USELESS:          0
cpu1_L1I AVERAGE MISS LATENCY: 44.84 cycles
cpu1_L1I TOTAL        ACCESS:   61485749 HIT:   61410063 MISS:      75686
cpu1_L1I LOAD         ACCESS:   61485749 HIT:   61410063 MISS:      75686
cpu1_L1I RFO          ACCESS:          0 HIT:          0 MISS:          0
cpu1_L1I PREFETCH     ACCESS:          0 HIT:          0 MISS:          0
cpu1_L1I WRITE        ACCESS:          0 HIT:          0 MISS:          0
cpu1_L1I TRANSLATION  ACCESS:          0 HIT:          0 MISS:          0
cpu1_L1I PREFETCH REQUESTED:          0 ISSUED:          0 USEFUL:          0 USELESS:          0
cpu1_L1I AVERAGE MISS LATENCY: 44.84 cycles
cpu1_L1I TOTAL        ACCESS:          0 HIT:          0 MISS:          0
cpu1_L1I LOAD         ACCESS:          0 HIT:          0 MISS:          0
cpu1_L1I RFO          ACCESS:          0 HIT:          0 MISS:          0
cpu1_L1I PREFETCH     ACCESS:          0 HIT:          0 MISS:          0
cpu1_L1I WRITE        ACCESS:          0 HIT:          0 MISS:          0
cpu1_L1I TRANSLATION  ACCESS:          0 HIT:          0 MISS:          0
cpu1_L1I PREFETCH REQUESTED:          0 ISSUED:          0 USEFUL:          0 USELESS:          0
cpu1_L1I AVERAGE MISS LATENCY: 44.84 cycles
cpu1_L1I TOTAL        ACCESS:          0 HIT:          0 MISS:          0
cpu1_L1I LOAD         ACCESS:          0 HIT:          0 MISS:          0
cpu1_L1I RFO          ACCESS:          0 HIT:          0 MISS:          0
cpu1_L1I PREFETCH     ACCESS:          0 HIT:          0 MISS:          0
cpu1_L1I WRITE        ACCESS:          0 HIT:          0 MISS:          0
cpu1_L1I TRANSLATION  ACCESS:          0 HIT:          0 MISS:          0
cpu1_L1I PREFETCH REQUESTED:          0 ISSUED:          0 USEFUL:          0 USELESS:          0
cpu1_L1I AVERAGE MISS LATENCY: 44.84 cycles
cpu1_L2C TOTAL        ACCESS:          0 HIT:          0 MISS:          0
cpu1_L2C LOAD         ACCESS:          0 HIT:          0 MISS:          0
cpu1_L2C RFO          ACCESS:          0 HIT:          0 MISS:          0
cpu1_L2C PREFETCH     ACCESS:          0 HIT:          0 MISS:          0
cpu1_L2C WRITE        ACCESS:          0 HIT:          0 MISS:          0
cpu1_L2C TRANSLATION  ACCESS:          0 HIT:          0 MISS:          0
cpu1_L2C PREFETCH REQUESTED:          0 ISSUED:          0 USEFUL:          0 USELESS:          0
cpu1_L2C AVERAGE MISS LATENCY: 4335 cycles
cpu1_L2C TOTAL        ACCESS:   44255689 HIT:   40444747 MISS:    3810942
cpu1_L2C LOAD         ACCESS:   39446601 HIT:   35698109 MISS:    3748492
cpu1_L2C RFO          ACCESS:    1619873 HIT:    1612869 MISS:       7004
cpu1_L2C PREFETCH     ACCESS:        335 HIT:        301 MISS:         34
cpu1_L2C WRITE        ACCESS:    3120627 HIT:    3120587 MISS:         40
cpu1_L2C TRANSLATION  ACCESS:      68253 HIT:      12881 MISS:      55372
cpu1_L2C PREFETCH REQUESTED:          0 ISSUED:          0 USEFUL:          0 USELESS:          0
cpu1_L2C AVERAGE MISS LATENCY: 4335 cycles
cpu1_L2C TOTAL        ACCESS:          0 HIT:          0 MISS:          0
cpu1_L2C LOAD         ACCESS:          0 HIT:          0 MISS:          0
cpu1_L2C RFO          ACCESS:          0 HIT:          0 MISS:          0
cpu1_L2C PREFETCH     ACCESS:          0 HIT:          0 MISS:          0
cpu1_L2C WRITE        ACCESS:          0 HIT:          0 MISS:          0
cpu1_L2C TRANSLATION  ACCESS:          0 HIT:          0 MISS:          0
cpu1_L2C PREFETCH REQUESTED:          0 ISSUED:          0 USEFUL:          0 USELESS:          0
cpu1_L2C AVERAGE MISS LATENCY: 4335 cycles
cpu1_L2C TOTAL        ACCESS:          0 HIT:          0 MISS:          0
cpu1_L2C LOAD         ACCESS:          0 HIT:          0 MISS:          0
cpu1_L2C RFO          ACCESS:          0 HIT:          0 MISS:          0
cpu1_L2C PREFETCH     ACCESS:          0 HIT:          0 MISS:          0
cpu1_L2C WRITE        ACCESS:          0 HIT:          0 MISS:          0
cpu1_L2C TRANSLATION  ACCESS:          0 HIT:          0 MISS:          0
cpu1_L2C PREFETCH REQUESTED:          0 ISSUED:          0 USEFUL:          0 USELESS:          0
cpu1_L2C AVERAGE MISS LATENCY: 4335 cycles
cpu1_STLB TOTAL        ACCESS:          0 HIT:          0 MISS:          0
cpu1_STLB LOAD         ACCESS:          0 HIT:          0 MISS:          0
cpu1_STLB RFO          ACCESS:          0 HIT:          0 MISS:          0
cpu1_STLB PREFETCH     ACCESS:          0 HIT:          0 MISS:          0
cpu1_STLB WRITE        ACCESS:          0 HIT:          0 MISS:          0
cpu1_STLB TRANSLATION  ACCESS:          0 HIT:          0 MISS:          0
cpu1_STLB PREFETCH REQUESTED:          0 ISSUED:          0 USEFUL:          0 USELESS:          0
cpu1_STLB AVERAGE MISS LATENCY: 4888 cycles
cpu1_STLB TOTAL        ACCESS:   27300583 HIT:   27256363 MISS:      44220
cpu1_STLB LOAD         ACCESS:   27300583 HIT:   27256363 MISS:      44220
cpu1_STLB RFO          ACCESS:          0 HIT:          0 MISS:          0
cpu1_STLB PREFETCH     ACCESS:          0 HIT:          0 MISS:          0
cpu1_STLB WRITE        ACCESS:          0 HIT:          0 MISS:          0
cpu1_STLB TRANSLATION  ACCESS:          0 HIT:          0 MISS:          0
cpu1_STLB PREFETCH REQUESTED:          0 ISSUED:          0 USEFUL:          0 USELESS:          0
cpu1_STLB AVERAGE MISS LATENCY: 4888 cycles
cpu1_STLB TOTAL        ACCESS:          0 HIT:          0 MISS:          0
cpu1_STLB LOAD         ACCESS:          0 HIT:          0 MISS:          0
cpu1_STLB RFO          ACCESS:          0 HIT:          0 MISS:          0
cpu1_STLB PREFETCH     ACCESS:          0 HIT:          0 MISS:          0
cpu1_STLB WRITE        ACCESS:          0 HIT:          0 MISS:          0
cpu1_STLB TRANSLATION  ACCESS:          0 HIT:          0 MISS:          0
cpu1_STLB PREFETCH REQUESTED:          0 ISSUED:          0 USEFUL:          0 USELESS:          0
cpu1_STLB AVERAGE MISS LATENCY: 4888 cycles
cpu1_STLB TOTAL        ACCESS:          0 HIT:          0 MISS:          0
cpu1_STLB LOAD         ACCESS:          0 HIT:          0 MISS:          0
cpu1_STLB RFO          ACCESS:          0 HIT:          0 MISS:          0
cpu1_STLB PREFETCH     ACCESS:          0 HIT:          0 MISS:          0
cpu1_STLB WRITE        ACCESS:          0 HIT:          0 MISS:          0
cpu1_STLB TRANSLATION  ACCESS:          0 HIT:          0 MISS:          0
cpu1_STLB PREFETCH REQUESTED:          0 ISSUED:          0 USEFUL:          0 USELESS:          0
cpu1_STLB AVERAGE MISS LATENCY: 4888 cycles
cpu2_DTLB TOTAL        ACCESS:          0 HIT:          0 MISS:          0
cpu2_DTLB LOAD         ACCESS:          0 HIT:          0 MISS:          0
cpu2_DTLB RFO          ACCESS:          0 HIT:          0 MISS:          0
cpu2_DTLB PREFETCH     ACCESS:          0 HIT:          0 MISS:          0
cpu2_DTLB WRITE        ACCESS:          0 HIT:          0 MISS:          0
cpu2_DTLB TRANSLATION  ACCESS:          0 HIT:          0 MISS:          0
cpu2_DTLB PREFETCH REQUESTED:          0 ISSUED:          0 USEFUL:          0 USELESS:          0
cpu2_DTLB AVERAGE MISS LATENCY: 43.2 cycles
cpu2_DTLB TOTAL        ACCESS:          0 HIT:          0 MISS:          0
cpu2_DTLB LOAD         ACCESS:          0 HIT:          0 MISS:          0
cpu2_DTLB RFO          ACCESS:          0 HIT:          0 MISS:          0
cpu2_DTLB PREFETCH     ACCESS:          0 HIT:          0 MISS:          0
cpu2_DTLB WRITE        ACCESS:          0 HIT:          0 MISS:          0
cpu2_DTLB TRANSLATION  ACCESS:          0 HIT:          0 MISS:          0
cpu2_DTLB PREFETCH REQUESTED:          0 ISSUED:          0 USEFUL:          0 USELESS:          0
cpu2_DTLB AVERAGE MISS LATENCY: 43.2 cycles
cpu2_DTLB TOTAL        ACCESS:  101941775 HIT:  100907166 MISS:    1034609
cpu2_DTLB LOAD         ACCESS:  101941775 HIT:  100907166 MISS:    1034609
cpu2_DTLB RFO          ACCESS:          0 HIT:          0 MISS:          0
cpu2_DTLB PREFETCH     ACCESS:          0 HIT:          0 MISS:          0
cpu2_DTLB WRITE        ACCESS:          0 HIT:          0 MISS:          0
cpu2_DTLB TRANSLATION  ACCESS:          0 HIT:          0 MISS:          0
cpu2_DTLB PREFETCH REQUESTED:          0 ISSUED:          0 USEFUL:          0 USELESS:          0
cpu2_DTLB AVERAGE MISS LATENCY: 43.2 cycles
cpu2_DTLB TOTAL        ACCESS:          0 HIT:          0 MISS:          0
cpu2_DTLB LOAD         ACCESS:          0 HIT:          0 MISS:          0
cpu2_DTLB RFO          ACCESS:          0 HIT:          0 MISS:          0
cpu2_DTLB PREFETCH     ACCESS:          0 HIT:          0 MISS:          0
cpu2_DTLB WRITE        ACCESS:          0 HIT:          0 MISS:          0
cpu2_DTLB TRANSLATION  ACCESS:          0 HIT:          0 MISS:          0
cpu2_DTLB PREFETCH REQUESTED:          0 ISSUED:          0 USEFUL:          0 USELESS:          0
cpu2_DTLB AVERAGE MISS LATENCY: 43.2 cycles
cpu2_ITLB TOTAL        ACCESS:          0 HIT:          0 MISS:          0
cpu2_ITLB LOAD         ACCESS:          0 HIT:          0 MISS:          0
cpu2_ITLB RFO          ACCESS:          0 HIT:          0 MISS:          0
cpu2_ITLB PREFETCH     ACCESS:          0 HIT:          0 MISS:          0
cpu2_ITLB WRITE        ACCESS:          0 HIT:          0 MISS:          0
cpu2_ITLB TRANSLATION  ACCESS:          0 HIT:          0 MISS:          0
cpu2_ITLB PREFETCH REQUESTED:          0 ISSUED:          0 USEFUL:          0 USELESS:          0
cpu2_ITLB AVERAGE MISS LATENCY: 357.6 cycles
cpu2_ITLB TOTAL        ACCESS:          0 HIT:          0 MISS:          0
cpu2_ITLB LOAD         ACCESS:          0 HIT:          0 MISS:          0
cpu2_ITLB RFO          ACCESS:          0 HIT:          0 MISS:          0
cpu2_ITLB PREFETCH     ACCESS:          0 HIT:          0 MISS:          0
cpu2_ITLB WRITE        ACCESS:          0 HIT:          0 MISS:          0
cpu2_ITLB TRANSLATION  ACCESS:          0 HIT:          0 MISS:          0
cpu2_ITLB PREFETCH REQUESTED:          0 ISSUED:          0 USEFUL:          0 USELESS:          0
cpu2_ITLB AVERAGE MISS LATENCY: 357.6 cycles
cpu2_ITLB TOTAL        ACCESS:   14783965 HIT:   14767521 MISS:      16444
cpu2_ITLB LOAD         ACCESS:   14783965 HIT:   14767521 MISS:      16444
cpu2_ITLB RFO          ACCESS:          0 HIT:          0 MISS:          0
cpu2_ITLB PREFETCH     ACCESS:          0 HIT:          0 MISS:          0
cpu2_ITLB WRITE        ACCESS:          0 HIT:          0 MISS:          0
cpu2_ITLB TRANSLATION  ACCESS:          0 HIT:          0 MISS:          0
cpu2_ITLB PREFETCH REQUESTED:          0 ISSUED:          0 USEFUL:          0 USELESS:          0
cpu2_ITLB AVERAGE MISS LATENCY: 357.6 cycles
cpu2_ITLB TOTAL        ACCESS:          0 HIT:          0 MISS:          0
cpu2_ITLB LOAD         ACCESS:          0 HIT:          0 MISS:          0
cpu2_ITLB RFO          ACCESS:          0 HIT:          0 MISS:          0
cpu2_ITLB PREFETCH     ACCESS:          0 HIT:          0 MISS:          0
cpu2_ITLB WRITE        ACCESS:          0 HIT:          0 MISS:          0
cpu2_ITLB TRANSLATION  ACCESS:          0 HIT:          0 MISS:          0
cpu2_ITLB PREFETCH REQUESTED:          0 ISSUED:          0 USEFUL:          0 USELESS:          0
cpu2_ITLB AVERAGE MISS LATENCY: 357.6 cycles
cpu2_L1D TOTAL        ACCESS:          0 HIT:          0 MISS:          0
cpu2_L1D LOAD         ACCESS:          0 HIT:          0 MISS:          0
cpu2_L1D RFO          ACCESS:          0 HIT:          0 MISS:          0
cpu2_L1D PREFETCH     ACCESS:          0 HIT:          0 MISS:          0
cpu2_L1D WRITE        ACCESS:          0 HIT:          0 MISS:          0
cpu2_L1D TRANSLATION  ACCESS:          0 HIT:          0 MISS:          0
cpu2_L1D PREFETCH REQUESTED:   62582601 ISSUED:   10638453 USEFUL:     322454 USELESS:     147220
cpu2_L1D AVERAGE MISS LATENCY: 1009 cycles
cpu2_L1D TOTAL        ACCESS:          0 HIT:          0 MISS:          0
cpu2_L1D LOAD         ACCESS:          0 HIT:          0 MISS:          0
cpu2_L1D RFO          ACCESS:          0 HIT:          0 MISS:          0
cpu2_L1D PREFETCH     ACCESS:          0 HIT:          0 MISS:          0
cpu2_L1D WRITE        ACCESS:          0 HIT:          0 MISS:          0
cpu2_L1D TRANSLATION  ACCESS:          0 HIT:          0 MISS:          0
cpu2_L1D PREFETCH REQUESTED:   62582601 ISSUED:   10638453 USEFUL:     322454 USELESS:     147220
cpu2_L1D AVERAGE MISS LATENCY: 1009 cycles
cpu2_L1D TOTAL        ACCESS:  145532190 HIT:  122453069 MISS:   23079121
cpu2_L1D LOAD         ACCESS:   64700138 HIT:   62050786 MISS:    2649352
cpu2_L1D RFO          ACCESS:          0 HIT:          0 MISS:          0
cpu2_L1D PREFETCH     ACCESS:   10638485 HIT:    7422951 MISS:    3215534
cpu2_L1D WRITE        ACCESS:   70123922 HIT:   52926165 MISS:   17197757
cpu2_L1D TRANSLATION  ACCESS:      69645 HIT:      53167 MISS:      16478
cpu2_L1D PREFETCH REQUESTED:   62582601 ISSUED:   10638453 USEFUL:     322454 USELESS:     147220
cpu2_L1D AVERAGE MISS LATENCY: 1009 cycles
cpu2_L1D TOTAL        ACCESS:          0 HIT:          0 MISS:          0
cpu2_L1D LOAD         ACCESS:          0 HIT:          0 MISS:          0
cpu2_L1D RFO          ACCESS:          0 HIT:          0 MISS:          0
cpu2_L1D PREFETCH     ACCESS:          0 HIT:          0 MISS:          0
cpu2_L1D WRITE        ACCESS:          0 HIT:          0 MISS:          0
cpu2_L1D TRANSLATION  ACCESS:          0 HIT:          0 MISS:          0
cpu2_L1D PREFETCH REQUESTED:   62582601 ISSUED:   10638453 USEFUL:     322454 USELESS:     147220
cpu2_L1D AVERAGE MISS LATENCY: 1009 cycles
cpu2_L1I TOTAL        ACCESS:          0 HIT:          0 MISS:          0
cpu2_L1I LOAD         ACCESS:          0 HIT:          0 MISS:          0
cpu2_L1I RFO          ACCESS:          0 HIT:          0 MISS:          0
cpu2_L1I PREFETCH     ACCESS:          0 HIT:          0 MISS:          0
cpu2_L1I WRITE        ACCESS:          0 HIT:          0 MISS:          0
cpu2_L1I TRANSLATION  ACCESS:          0 HIT:          0 MISS:          0
cpu2_L1I PREFETCH REQUESTED:          0 ISSUED:          0 USEFUL:          0 USELESS:          0
cpu2_L1I AVERAGE MISS LATENCY: 923.9 cycles
cpu2_L1I TOTAL        ACCESS:          0 HIT:          0 MISS:          0
cpu2_L1I LOAD         ACCESS:          0 HIT:          0 MISS:          0
cpu2_L1I RFO          ACCESS:          0 HIT:          0 MISS:          0
cpu2_L1I PREFETCH     ACCESS:          0 HIT:          0 MISS:          0
cpu2_L1I WRITE        ACCESS:          0 HIT:          0 MISS:          0
cpu2_L1I TRANSLATION  ACCESS:          0 HIT:          0 MISS:          0
cpu2_L1I PREFETCH REQUESTED:          0 ISSUED:          0 USEFUL:          0 USELESS:          0
cpu2_L1I AVERAGE MISS LATENCY: 923.9 cycles
cpu2_L1I TOTAL        ACCESS:   18540077 HIT:   18138275 MISS:     401802
cpu2_L1I LOAD         ACCESS:   18540077 HIT:   18138275 MISS:     401802
cpu2_L1I RFO          ACCESS:          0 HIT:          0 MISS:          0
cpu2_L1I PREFETCH     ACCESS:          0 HIT:          0 MISS:          0
cpu2_L1I WRITE        ACCESS:          0 HIT:          0 MISS:          0
cpu2_L1I TRANSLATION  ACCESS:          0 HIT:          0 MISS:          0
cpu2_L1I PREFETCH REQUESTED:          0 ISSUED:          0 USEFUL:          0 USELESS:          0
cpu2_L1I AVERAGE MISS LATENCY: 923.9 cycles
cpu2_L1I TOTAL        ACCESS:          0 HIT:          0 MISS:          0
cpu2_L1I LOAD         ACCESS:          0 HIT:          0 MISS:          0
cpu2_L1I RFO          ACCESS:          0 HIT:          0 MISS:          0
cpu2_L1I PREFETCH     ACCESS:          0 HIT:          0 MISS:          0
cpu2_L1I WRITE        ACCESS:          0 HIT:          0 MISS:          0
cpu2_L1I TRANSLATION  ACCESS:          0 HIT:          0 MISS:          0
cpu2_L1I PREFETCH REQUESTED:          0 ISSUED:          0 USEFUL:          0 USELESS:          0
cpu2_L1I AVERAGE MISS LATENCY: 923.9 cycles
cpu2_L2C TOTAL        ACCESS:          0 HIT:          0 MISS:          0
cpu2_L2C LOAD         ACCESS:          0 HIT:          0 MISS:          0
cpu2_L2C RFO          ACCESS:          0 HIT:          0 MISS:          0
cpu2_L2C PREFETCH     ACCESS:          0 HIT:          0 MISS:          0
cpu2_L2C WRITE        ACCESS:          0 HIT:          0 MISS:          0
cpu2_L2C TRANSLATION  ACCESS:          0 HIT:          0 MISS:          0
cpu2_L2C PREFETCH REQUESTED:          0 ISSUED:          0 USEFUL:          0 USELESS:          0
cpu2_L2C AVERAGE MISS LATENCY: 5620 cycles
cpu2_L2C TOTAL        ACCESS:          0 HIT:          0 MISS:          0
cpu2_L2C LOAD         ACCESS:          0 HIT:          0 MISS:          0
cpu2_L2C RFO          ACCESS:          0 HIT:          0 MISS:          0
cpu2_L2C PREFETCH     ACCESS:          0 HIT:          0 MISS:          0
cpu2_L2C WRITE        ACCESS:          0 HIT:          0 MISS:          0
cpu2_L2C TRANSLATION  ACCESS:          0 HIT:          0 MISS:          0
cpu2_L2C PREFETCH REQUESTED:          0 ISSUED:          0 USEFUL:          0 USELESS:          0
cpu2_L2C AVERAGE MISS LATENCY: 5620 cycles
cpu2_L2C TOTAL        ACCESS:   14320442 HIT:    9795516 MISS:    4524926
cpu2_L2C LOAD         ACCESS:    2174594 HIT:    1700243 MISS:     474351
cpu2_L2C RFO          ACCESS:    4367493 HIT:     925013 MISS:    3442480
cpu2_L2C PREFETCH     ACCESS:    3092470 HIT:    2496438 MISS:     596032
cpu2_L2C WRITE        ACCESS:    4669555 HIT:    4669030 MISS:        525
cpu2_L2C TRANSLATION  ACCESS:      16330 HIT:       4792 MISS:      11538
cpu2_L2C PREFETCH REQUESTED:          0 ISSUED:          0 USEFUL:          0 USELESS:          0
cpu2_L2C AVERAGE MISS LATENCY: 5620 cycles
cpu2_L2C TOTAL        ACCESS:          0 HIT:          0 MISS:          0
cpu2_L2C LOAD         ACCESS:          0 HIT:          0 MISS:          0
cpu2_L2C RFO          ACCESS:          0 HIT:          0 MISS:          0
cpu2_L2C PREFETCH     ACCESS:          0 HIT:          0 MISS:          0
cpu2_L2C WRITE        ACCESS:          0 HIT:          0 MISS:          0
cpu2_L2C TRANSLATION  ACCESS:          0 HIT:          0 MISS:          0
cpu2_L2C PREFETCH REQUESTED:          0 ISSUED:          0 USEFUL:          0 USELESS:          0
cpu2_L2C AVERAGE MISS LATENCY: 5620 cycles
cpu2_STLB TOTAL        ACCESS:          0 HIT:          0 MISS:          0
cpu2_STLB LOAD         ACCESS:          0 HIT:          0 MISS:          0
cpu2_STLB RFO          ACCESS:          0 HIT:          0 MISS:          0
cpu2_STLB PREFETCH     ACCESS:          0 HIT:          0 MISS:          0
cpu2_STLB WRITE        ACCESS:          0 HIT:          0 MISS:          0
cpu2_STLB TRANSLATION  ACCESS:          0 HIT:          0 MISS:          0
cpu2_STLB PREFETCH REQUESTED:          0 ISSUED:          0 USEFUL:          0 USELESS:          0
cpu2_STLB AVERAGE MISS LATENCY: 799 cycles
cpu2_STLB TOTAL        ACCESS:          0 HIT:          0 MISS:          0
cpu2_STLB LOAD         ACCESS:          0 HIT:          0 MISS:          0
cpu2_STLB RFO          ACCESS:          0 HIT:          0 MISS:          0
cpu2_STLB PREFETCH     ACCESS:          0 HIT:          0 MISS:          0
cpu2_STLB WRITE        ACCESS:          0 HIT:          0 MISS:          0
cpu2_STLB TRANSLATION  ACCESS:          0 HIT:          0 MISS:          0
cpu2_STLB PREFETCH REQUESTED:          0 ISSUED:          0 USEFUL:          0 USELESS:          0
cpu2_STLB AVERAGE MISS LATENCY: 799 cycles
cpu2_STLB TOTAL        ACCESS:     441282 HIT:     372952 MISS:      68330
cpu2_STLB LOAD         ACCESS:     441282 HIT:     372952 MISS:      68330
cpu2_STLB RFO          ACCESS:          0 HIT:          0 MISS:          0
cpu2_STLB PREFETCH     ACCESS:          0 HIT:          0 MISS:          0
cpu2_STLB WRITE        ACCESS:          0 HIT:          0 MISS:          0
cpu2_STLB TRANSLATION  ACCESS:          0 HIT:          0 MISS:          0
cpu2_STLB PREFETCH REQUESTED:          0 ISSUED:          0 USEFUL:          0 USELESS:          0
cpu2_STLB AVERAGE MISS LATENCY: 799 cycles
cpu2_STLB TOTAL        ACCESS:          0 HIT:          0 MISS:          0
cpu2_STLB LOAD         ACCESS:          0 HIT:          0 MISS:          0
cpu2_STLB RFO          ACCESS:          0 HIT:          0 MISS:          0
cpu2_STLB PREFETCH     ACCESS:          0 HIT:          0 MISS:          0
cpu2_STLB WRITE        ACCESS:          0 HIT:          0 MISS:          0
cpu2_STLB TRANSLATION  ACCESS:          0 HIT:          0 MISS:          0
cpu2_STLB PREFETCH REQUESTED:          0 ISSUED:          0 USEFUL:          0 USELESS:          0
cpu2_STLB AVERAGE MISS LATENCY: 799 cycles
cpu3_DTLB TOTAL        ACCESS:          0 HIT:          0 MISS:          0
cpu3_DTLB LOAD         ACCESS:          0 HIT:          0 MISS:          0
cpu3_DTLB RFO          ACCESS:          0 HIT:          0 MISS:          0
cpu3_DTLB PREFETCH     ACCESS:          0 HIT:          0 MISS:          0
cpu3_DTLB WRITE        ACCESS:          0 HIT:          0 MISS:          0
cpu3_DTLB TRANSLATION  ACCESS:          0 HIT:          0 MISS:          0
cpu3_DTLB PREFETCH REQUESTED:          0 ISSUED:          0 USEFUL:          0 USELESS:          0
cpu3_DTLB AVERAGE MISS LATENCY: 19.28 cycles
cpu3_DTLB TOTAL        ACCESS:          0 HIT:          0 MISS:          0
cpu3_DTLB LOAD         ACCESS:          0 HIT:          0 MISS:          0
cpu3_DTLB RFO          ACCESS:          0 HIT:          0 MISS:          0
[...]
cpu2_L2C PREFETCH     ACCESS:          0 HIT:          0 MISS:          0
cpu2_L2C WRITE        ACCESS:          0 HIT:          0 MISS:          0
cpu2_L2C TRANSLATION  ACCESS:          0 HIT:          0 MISS:          0
cpu2_L2C PREFETCH REQUESTED:          0 ISSUED:          0 USEFUL:          0 USELESS:          0
cpu2_L2C AVERAGE MISS LATENCY: 5620 cycles
cpu2_L2C TOTAL        ACCESS:          0 HIT:          0 MISS:          0
cpu2_L2C LOAD         ACCESS:          0 HIT:          0 MISS:          0
cpu2_L2C RFO          ACCESS:          0 HIT:          0 MISS:          0
cpu2_L2C PREFETCH     ACCESS:          0 HIT:          0 MISS:          0
cpu2_L2C WRITE        ACCESS:          0 HIT:          0 MISS:          0
cpu2_L2C TRANSLATION  ACCESS:          0 HIT:          0 MISS:          0
cpu2_L2C PREFETCH REQUESTED:          0 ISSUED:          0 USEFUL:          0 USELESS:          0
cpu2_L2C AVERAGE MISS LATENCY: 5620 cycles
cpu2_L2C TOTAL        ACCESS:    3696443 HIT:    2469333 MISS:    1227110
cpu2_L2C LOAD         ACCESS:     501381 HIT:     387857 MISS:     113524
cpu2_L2C RFO          ACCESS:    1189006 HIT:     211492 MISS:     977514
cpu2_L2C PREFETCH     ACCESS:     736486 HIT:     603631 MISS:     132855
cpu2_L2C WRITE        ACCESS:    1265329 HIT:    1265200 MISS:        129
cpu2_L2C TRANSLATION  ACCESS:       4241 HIT:       1153 MISS:       3088
cpu2_L2C PREFETCH REQUESTED:          0 ISSUED:          0 USEFUL:          0 USELESS:          0
cpu2_L2C AVERAGE MISS LATENCY: 5620 cycles
cpu2_L2C TOTAL        ACCESS:          0 HIT:          0 MISS:          0
cpu2_L2C LOAD         ACCESS:          0 HIT:          0 MISS:          0
cpu2_L2C RFO          ACCESS:          0 HIT:          0 MISS:          0
cpu2_L2C PREFETCH     ACCESS:          0 HIT:          0 MISS:          0
cpu2_L2C WRITE        ACCESS:          0 HIT:          0 MISS:          0
cpu2_L2C TRANSLATION  ACCESS:          0 HIT:          0 MISS:          0
cpu2_L2C PREFETCH REQUESTED:          0 ISSUED:          0 USEFUL:          0 USELESS:          0
cpu2_L2C AVERAGE MISS LATENCY: 5620 cycles
cpu2_STLB TOTAL        ACCESS:          0 HIT:          0 MISS:          0
cpu2_STLB LOAD         ACCESS:          0 HIT:          0 MISS:          0
cpu2_STLB RFO          ACCESS:          0 HIT:          0 MISS:          0
cpu2_STLB PREFETCH     ACCESS:          0 HIT:          0 MISS:          0
cpu2_STLB WRITE        ACCESS:          0 HIT:          0 MISS:          0
cpu2_STLB TRANSLATION  ACCESS:          0 HIT:          0 MISS:          0
cpu2_STLB PREFETCH REQUESTED:          0 ISSUED:          0 USEFUL:          0 USELESS:          0
cpu2_STLB AVERAGE MISS LATENCY: 799 cycles
cpu2_STLB TOTAL        ACCESS:          0 HIT:          0 MISS:          0
cpu2_STLB LOAD         ACCESS:          0 HIT:          0 MISS:          0
cpu2_STLB RFO          ACCESS:          0 HIT:          0 MISS:          0
cpu2_STLB PREFETCH     ACCESS:          0 HIT:          0 MISS:          0
cpu2_STLB WRITE        ACCESS:          0 HIT:          0 MISS:          0
cpu2_STLB TRANSLATION  ACCESS:          0 HIT:          0 MISS:          0
cpu2_STLB PREFETCH REQUESTED:          0 ISSUED:          0 USEFUL:          0 USELESS:          0
cpu2_STLB AVERAGE MISS LATENCY: 799 cycles
cpu2_STLB TOTAL        ACCESS:     100545 HIT:      81461 MISS:      19084
cpu2_STLB LOAD         ACCESS:     100545 HIT:      81461 MISS:      19084
cpu2_STLB RFO          ACCESS:          0 HIT:          0 MISS:          0
cpu2_STLB PREFETCH     ACCESS:          0 HIT:          0 MISS:          0
cpu2_STLB WRITE        ACCESS:          0 HIT:          0 MISS:          0
cpu2_STLB TRANSLATION  ACCESS:          0 HIT:          0 MISS:          0
cpu2_STLB PREFETCH REQUESTED:          0 ISSUED:          0 USEFUL:          0 USELESS:          0
cpu2_STLB AVERAGE MISS LATENCY: 799 cycles
cpu2_STLB TOTAL        ACCESS:          0 HIT:          0 MISS:          0
cpu2_STLB LOAD         ACCESS:          0 HIT:          0 MISS:          0
cpu2_STLB RFO          ACCESS:          0 HIT:          0 MISS:          0
cpu2_STLB PREFETCH     ACCESS:          0 HIT:          0 MISS:          0
cpu2_STLB WRITE        ACCESS:          0 HIT:          0 MISS:          0
cpu2_STLB TRANSLATION  ACCESS:          0 HIT:          0 MISS:          0
cpu2_STLB PREFETCH REQUESTED:          0 ISSUED:          0 USEFUL:          0 USELESS:          0
cpu2_STLB AVERAGE MISS LATENCY: 799 cycles
cpu3_DTLB TOTAL        ACCESS:          0 HIT:          0 MISS:          0
cpu3_DTLB LOAD         ACCESS:          0 HIT:          0 MISS:          0
cpu3_DTLB RFO          ACCESS:          0 HIT:          0 MISS:          0
cpu3_DTLB PREFETCH     ACCESS:          0 HIT:          0 MISS:          0
cpu3_DTLB WRITE        ACCESS:          0 HIT:          0 MISS:          0
cpu3_DTLB TRANSLATION  ACCESS:          0 HIT:          0 MISS:          0
cpu3_DTLB PREFETCH REQUESTED:          0 ISSUED:          0 USEFUL:          0 USELESS:          0
cpu3_DTLB AVERAGE MISS LATENCY: 19.28 cycles
cpu3_DTLB TOTAL        ACCESS:          0 HIT:          0 MISS:          0
cpu3_DTLB LOAD         ACCESS:          0 HIT:          0 MISS:          0
cpu3_DTLB RFO          ACCESS:          0 HIT:          0 MISS:          0
cpu3_DTLB PREFETCH     ACCESS:          0 HIT:          0 MISS:          0
cpu3_DTLB WRITE        ACCESS:          0 HIT:          0 MISS:          0
cpu3_DTLB TRANSLATION  ACCESS:          0 HIT:          0 MISS:          0
cpu3_DTLB PREFETCH REQUESTED:          0 ISSUED:          0 USEFUL:          0 USELESS:          0
cpu3_DTLB AVERAGE MISS LATENCY: 19.28 cycles
cpu3_DTLB TOTAL        ACCESS:          0 HIT:          0 MISS:          0
cpu3_DTLB LOAD         ACCESS:          0 HIT:          0 MISS:          0
cpu3_DTLB RFO          ACCESS:          0 HIT:          0 MISS:          0
cpu3_DTLB PREFETCH     ACCESS:          0 HIT:          0 MISS:          0
cpu3_DTLB WRITE        ACCESS:          0 HIT:          0 MISS:          0
cpu3_DTLB TRANSLATION  ACCESS:          0 HIT:          0 MISS:          0
cpu3_DTLB PREFETCH REQUESTED:          0 ISSUED:          0 USEFUL:          0 USELESS:          0
cpu3_DTLB AVERAGE MISS LATENCY: 19.28 cycles
cpu3_DTLB TOTAL        ACCESS:   17918749 HIT:   17907607 MISS:      11142
cpu3_DTLB LOAD         ACCESS:   17918749 HIT:   17907607 MISS:      11142
cpu3_DTLB RFO          ACCESS:          0 HIT:          0 MISS:          0
cpu3_DTLB PREFETCH     ACCESS:          0 HIT:          0 MISS:          0
cpu3_DTLB WRITE        ACCESS:          0 HIT:          0 MISS:          0
cpu3_DTLB TRANSLATION  ACCESS:          0 HIT:          0 MISS:          0
cpu3_DTLB PREFETCH REQUESTED:          0 ISSUED:          0 USEFUL:          0 USELESS:          0
cpu3_DTLB AVERAGE MISS LATENCY: 19.28 cycles
cpu3_ITLB TOTAL        ACCESS:          0 HIT:          0 MISS:          0
cpu3_ITLB LOAD         ACCESS:          0 HIT:          0 MISS:          0
cpu3_ITLB RFO          ACCESS:          0 HIT:          0 MISS:          0
cpu3_ITLB PREFETCH     ACCESS:          0 HIT:          0 MISS:          0
cpu3_ITLB WRITE        ACCESS:          0 HIT:          0 MISS:          0
cpu3_ITLB TRANSLATION  ACCESS:          0 HIT:          0 MISS:          0
cpu3_ITLB PREFETCH REQUESTED:          0 ISSUED:          0 USEFUL:          0 USELESS:          0
cpu3_ITLB AVERAGE MISS LATENCY: 1646 cycles
cpu3_ITLB TOTAL        ACCESS:          0 HIT:          0 MISS:          0
cpu3_ITLB LOAD         ACCESS:          0 HIT:          0 MISS:          0
cpu3_ITLB RFO          ACCESS:          0 HIT:          0 MISS:          0
cpu3_ITLB PREFETCH     ACCESS:          0 HIT:          0 MISS:          0
cpu3_ITLB WRITE        ACCESS:          0 HIT:          0 MISS:          0
cpu3_ITLB TRANSLATION  ACCESS:          0 HIT:          0 MISS:          0
cpu3_ITLB PREFETCH REQUESTED:          0 ISSUED:          0 USEFUL:          0 USELESS:          0
cpu3_ITLB AVERAGE MISS LATENCY: 1646 cycles
cpu3_ITLB TOTAL        ACCESS:          0 HIT:          0 MISS:          0
cpu3_ITLB LOAD         ACCESS:          0 HIT:          0 MISS:          0
cpu3_ITLB RFO          ACCESS:          0 HIT:          0 MISS:          0
cpu3_ITLB PREFETCH     ACCESS:          0 HIT:          0 MISS:          0
cpu3_ITLB WRITE        ACCESS:          0 HIT:          0 MISS:          0
cpu3_ITLB TRANSLATION  ACCESS:          0 HIT:          0 MISS:          0
cpu3_ITLB PREFETCH REQUESTED:          0 ISSUED:          0 USEFUL:          0 USELESS:          0
cpu3_ITLB AVERAGE MISS LATENCY: 1646 cycles
cpu3_ITLB TOTAL        ACCESS:     515276 HIT:     515276 MISS:          0
cpu3_ITLB LOAD         ACCESS:     515276 HIT:     515276 MISS:          0
cpu3_ITLB RFO          ACCESS:          0 HIT:          0 MISS:          0
cpu3_ITLB PREFETCH     ACCESS:          0 HIT:          0 MISS:          0
cpu3_ITLB WRITE        ACCESS:          0 HIT:          0 MISS:          0
cpu3_ITLB TRANSLATION  ACCESS:          0 HIT:          0 MISS:          0
cpu3_ITLB PREFETCH REQUESTED:          0 ISSUED:          0 USEFUL:          0 USELESS:          0
cpu3_ITLB AVERAGE MISS LATENCY: 1646 cycles
cpu3_L1D TOTAL        ACCESS:          0 HIT:          0 MISS:          0
cpu3_L1D LOAD         ACCESS:          0 HIT:          0 MISS:          0
cpu3_L1D RFO          ACCESS:          0 HIT:          0 MISS:          0
cpu3_L1D PREFETCH     ACCESS:          0 HIT:          0 MISS:          0
cpu3_L1D WRITE        ACCESS:          0 HIT:          0 MISS:          0
cpu3_L1D TRANSLATION  ACCESS:          0 HIT:          0 MISS:          0
cpu3_L1D PREFETCH REQUESTED:  197854305 ISSUED:   14920958 USEFUL:    1571154 USELESS:     304776
cpu3_L1D AVERAGE MISS LATENCY: 694.6 cycles
cpu3_L1D TOTAL        ACCESS:          0 HIT:          0 MISS:          0
cpu3_L1D LOAD         ACCESS:          0 HIT:          0 MISS:          0
cpu3_L1D RFO          ACCESS:          0 HIT:          0 MISS:          0
cpu3_L1D PREFETCH     ACCESS:          0 HIT:          0 MISS:          0
cpu3_L1D WRITE        ACCESS:          0 HIT:          0 MISS:          0
cpu3_L1D TRANSLATION  ACCESS:          0 HIT:          0 MISS:          0
cpu3_L1D PREFETCH REQUESTED:  197854305 ISSUED:   14920958 USEFUL:    1571154 USELESS:     304776
cpu3_L1D AVERAGE MISS LATENCY: 694.6 cycles
cpu3_L1D TOTAL        ACCESS:          0 HIT:          0 MISS:          0
cpu3_L1D LOAD         ACCESS:          0 HIT:          0 MISS:          0
cpu3_L1D RFO          ACCESS:          0 HIT:          0 MISS:          0
cpu3_L1D PREFETCH     ACCESS:          0 HIT:          0 MISS:          0
cpu3_L1D WRITE        ACCESS:          0 HIT:          0 MISS:          0
cpu3_L1D TRANSLATION  ACCESS:          0 HIT:          0 MISS:          0
cpu3_L1D PREFETCH REQUESTED:  197854305 ISSUED:   14920958 USEFUL:    1571154 USELESS:     304776
cpu3_L1D AVERAGE MISS LATENCY: 694.6 cycles
cpu3_L1D TOTAL        ACCESS:   22003308 HIT:   21971173 MISS:      32135
cpu3_L1D LOAD         ACCESS:   16401739 HIT:   16399567 MISS:       2172
cpu3_L1D RFO          ACCESS:          0 HIT:          0 MISS:          0
cpu3_L1D PREFETCH     ACCESS:      19611 HIT:       9497 MISS:      10114
cpu3_L1D WRITE        ACCESS:    5581790 HIT:    5562092 MISS:      19698
cpu3_L1D TRANSLATION  ACCESS:        168 HIT:         17 MISS:        151
cpu3_L1D PREFETCH REQUESTED:  197854305 ISSUED:   14920958 USEFUL:    1571154 USELESS:     304776
cpu3_L1D AVERAGE MISS LATENCY: 694.6 cycles
cpu3_L1I TOTAL        ACCESS:          0 HIT:          0 MISS:          0
cpu3_L1I LOAD         ACCESS:          0 HIT:          0 MISS:          0
cpu3_L1I RFO          ACCESS:          0 HIT:          0 MISS:          0
cpu3_L1I PREFETCH     ACCESS:          0 HIT:          0 MISS:          0
cpu3_L1I WRITE        ACCESS:          0 HIT:          0 MISS:          0
cpu3_L1I TRANSLATION  ACCESS:          0 HIT:          0 MISS:          0
cpu3_L1I PREFETCH REQUESTED:          0 ISSUED:          0 USEFUL:          0 USELESS:          0
cpu3_L1I AVERAGE MISS LATENCY: 65.17 cycles
cpu3_L1I TOTAL        ACCESS:          0 HIT:          0 MISS:          0
cpu3_L1I LOAD         ACCESS:          0 HIT:          0 MISS:          0
cpu3_L1I RFO          ACCESS:          0 HIT:          0 MISS:          0
cpu3_L1I PREFETCH     ACCESS:          0 HIT:          0 MISS:          0
cpu3_L1I WRITE        ACCESS:          0 HIT:          0 MISS:          0
cpu3_L1I TRANSLATION  ACCESS:          0 HIT:          0 MISS:          0
cpu3_L1I PREFETCH REQUESTED:          0 ISSUED:          0 USEFUL:          0 USELESS:          0
cpu3_L1I AVERAGE MISS LATENCY: 65.17 cycles
cpu3_L1I TOTAL        ACCESS:          0 HIT:          0 MISS:          0
cpu3_L1I LOAD         ACCESS:          0 HIT:          0 MISS:          0
cpu3_L1I RFO          ACCESS:          0 HIT:          0 MISS:          0
cpu3_L1I PREFETCH     ACCESS:          0 HIT:          0 MISS:          0
cpu3_L1I WRITE        ACCESS:          0 HIT:          0 MISS:          0
cpu3_L1I TRANSLATION  ACCESS:          0 HIT:          0 MISS:          0
cpu3_L1I PREFETCH REQUESTED:          0 ISSUED:          0 USEFUL:          0 USELESS:          0
cpu3_L1I AVERAGE MISS LATENCY: 65.17 cycles
cpu3_L1I TOTAL        ACCESS:     570383 HIT:     568974 MISS:       1409
cpu3_L1I LOAD         ACCESS:     570383 HIT:     568974 MISS:       1409
cpu3_L1I RFO          ACCESS:          0 HIT:          0 MISS:          0
cpu3_L1I PREFETCH     ACCESS:          0 HIT:          0 MISS:          0
cpu3_L1I WRITE        ACCESS:          0 HIT:          0 MISS:          0
cpu3_L1I TRANSLATION  ACCESS:          0 HIT:          0 MISS:          0
cpu3_L1I PREFETCH REQUESTED:          0 ISSUED:          0 USEFUL:          0 USELESS:          0
cpu3_L1I AVERAGE MISS LATENCY: 65.17 cycles
cpu3_L2C TOTAL        ACCESS:          0 HIT:          0 MISS:          0
cpu3_L2C LOAD         ACCESS:          0 HIT:          0 MISS:          0
cpu3_L2C RFO          ACCESS:          0 HIT:          0 MISS:          0
cpu3_L2C PREFETCH     ACCESS:          0 HIT:          0 MISS:          0
cpu3_L2C WRITE        ACCESS:          0 HIT:          0 MISS:          0
cpu3_L2C TRANSLATION  ACCESS:          0 HIT:          0 MISS:          0
cpu3_L2C PREFETCH REQUESTED:          0 ISSUED:          0 USEFUL:          0 USELESS:          0
cpu3_L2C AVERAGE MISS LATENCY: 3856 cycles
cpu3_L2C TOTAL        ACCESS:          0 HIT:          0 MISS:          0
cpu3_L2C LOAD         ACCESS:          0 HIT:          0 MISS:          0
cpu3_L2C RFO          ACCESS:          0 HIT:          0 MISS:          0
cpu3_L2C PREFETCH     ACCESS:          0 HIT:          0 MISS:          0
cpu3_L2C WRITE        ACCESS:          0 HIT:          0 MISS:          0
cpu3_L2C TRANSLATION  ACCESS:          0 HIT:          0 MISS:          0
cpu3_L2C PREFETCH REQUESTED:          0 ISSUED:          0 USEFUL:          0 USELESS:          0
cpu3_L2C AVERAGE MISS LATENCY: 3856 cycles
cpu3_L2C TOTAL        ACCESS:          0 HIT:          0 MISS:          0
cpu3_L2C LOAD         ACCESS:          0 HIT:          0 MISS:          0
cpu3_L2C RFO          ACCESS:          0 HIT:          0 MISS:          0
cpu3_L2C PREFETCH     ACCESS:          0 HIT:          0 MISS:          0
cpu3_L2C WRITE        ACCESS:          0 HIT:          0 MISS:          0
cpu3_L2C TRANSLATION  ACCESS:          0 HIT:          0 MISS:          0
cpu3_L2C PREFETCH REQUESTED:          0 ISSUED:          0 USEFUL:          0 USELESS:          0
cpu3_L2C AVERAGE MISS LATENCY: 3856 cycles
cpu3_L2C TOTAL        ACCESS:      17833 HIT:       7944 MISS:       9889
cpu3_L2C LOAD         ACCESS:       2129 HIT:       1279 MISS:        850
cpu3_L2C RFO          ACCESS:       2527 HIT:         97 MISS:       2430
cpu3_L2C PREFETCH     ACCESS:       9971 HIT:       3458 MISS:       6513
cpu3_L2C WRITE        ACCESS:       3055 HIT:       3053 MISS:          2
cpu3_L2C TRANSLATION  ACCESS:        151 HIT:         57 MISS:         94
cpu3_L2C PREFETCH REQUESTED:          0 ISSUED:          0 USEFUL:          0 USELESS:          0
cpu3_L2C AVERAGE MISS LATENCY: 3856 cycles
cpu3_STLB TOTAL        ACCESS:          0 HIT:          0 MISS:          0
cpu3_STLB LOAD         ACCESS:          0 HIT:          0 MISS:          0
cpu3_STLB RFO          ACCESS:          0 HIT:          0 MISS:          0
cpu3_STLB PREFETCH     ACCESS:          0 HIT:          0 MISS:          0
cpu3_STLB WRITE        ACCESS:          0 HIT:          0 MISS:          0
cpu3_STLB TRANSLATION  ACCESS:          0 HIT:          0 MISS:          0
cpu3_STLB PREFETCH REQUESTED:          0 ISSUED:          0 USEFUL:          0 USELESS:          0
cpu3_STLB AVERAGE MISS LATENCY: 943.2 cycles
cpu3_STLB TOTAL        ACCESS:          0 HIT:          0 MISS:          0
cpu3_STLB LOAD         ACCESS:          0 HIT:          0 MISS:          0
cpu3_STLB RFO          ACCESS:          0 HIT:          0 MISS:          0
cpu3_STLB PREFETCH     ACCESS:          0 HIT:          0 MISS:          0
cpu3_STLB WRITE        ACCESS:          0 HIT:          0 MISS:          0
cpu3_STLB TRANSLATION  ACCESS:          0 HIT:          0 MISS:          0
cpu3_STLB PREFETCH REQUESTED:          0 ISSUED:          0 USEFUL:          0 USELESS:          0
cpu3_STLB AVERAGE MISS LATENCY: 943.2 cycles
cpu3_STLB TOTAL        ACCESS:          0 HIT:          0 MISS:          0
cpu3_STLB LOAD         ACCESS:          0 HIT:          0 MISS:          0
cpu3_STLB RFO          ACCESS:          0 HIT:          0 MISS:          0
cpu3_STLB PREFETCH     ACCESS:          0 HIT:          0 MISS:          0
cpu3_STLB WRITE        ACCESS:          0 HIT:          0 MISS:          0
cpu3_STLB TRANSLATION  ACCESS:          0 HIT:          0 MISS:          0
cpu3_STLB PREFETCH REQUESTED:          0 ISSUED:          0 USEFUL:          0 USELESS:          0
cpu3_STLB AVERAGE MISS LATENCY: 943.2 cycles
cpu3_STLB TOTAL        ACCESS:       9860 HIT:       9692 MISS:        168
cpu3_STLB LOAD         ACCESS:       9860 HIT:       9692 MISS:        168
cpu3_STLB RFO          ACCESS:          0 HIT:          0 MISS:          0
cpu3_STLB PREFETCH     ACCESS:          0 HIT:          0 MISS:          0
cpu3_STLB WRITE        ACCESS:          0 HIT:          0 MISS:          0
cpu3_STLB TRANSLATION  ACCESS:          0 HIT:          0 MISS:          0
cpu3_STLB PREFETCH REQUESTED:          0 ISSUED:          0 USEFUL:          0 USELESS:          0
cpu3_STLB AVERAGE MISS LATENCY: 943.2 cycles

DRAM Statistics

Channel 0 RQ ROW_BUFFER_HIT:    2306984
  ROW_BUFFER_MISS:   14453088
 AVG DBUS CONGESTED CYCLE: 3.995
WQ ROW_BUFFER_HIT: Channel 0 
  ROW_BUFFER_MISS:     310015
  FULL:   10038279
BERTI TO_L1: 59603165 TO_L2: 527153572 TO_L2_BC_MSHR: 225827506
BERTI AVG_LAT: 232.877 NUM_TRACK_LATENCY: 48396128 NUM_CANT_TRACK_LATENCY: 3755918
BERTI CROSS_PAGE 117532149 NO_CROSS_PAGE: 469224588
BERTI FOUND_BERTI: 126075323 NO_FOUND_BERTI: 248897617
BERTI AVERAGE_ISSUED: 3.28066
BERTI TO_L1: 59603165 TO_L2: 527153572 TO_L2_BC_MSHR: 225827506
BERTI AVG_LAT: 232.877 NUM_TRACK_LATENCY: 48396128 NUM_CANT_TRACK_LATENCY: 3755918
BERTI CROSS_PAGE 117532149 NO_CROSS_PAGE: 469224588
BERTI FOUND_BERTI: 126075323 NO_FOUND_BERTI: 248897617
BERTI AVERAGE_ISSUED: 3.28066
BERTI TO_L1: 59603165 TO_L2: 527153572 TO_L2_BC_MSHR: 225827506
BERTI AVG_LAT: 232.877 NUM_TRACK_LATENCY: 48396128 NUM_CANT_TRACK_LATENCY: 3755918
BERTI CROSS_PAGE 117532149 NO_CROSS_PAGE: 469224588
BERTI FOUND_BERTI: 126075323 NO_FOUND_BERTI: 248897617
BERTI AVERAGE_ISSUED: 3.28066
BERTI TO_L1: 59603165 TO_L2: 527153572 TO_L2_BC_MSHR: 225827506
BERTI AVG_LAT: 232.877 NUM_TRACK_LATENCY: 48396128 NUM_CANT_TRACK_LATENCY: 3755918
BERTI CROSS_PAGE 117532149 NO_CROSS_PAGE: 469224588
BERTI FOUND_BERTI: 126075323 NO_FOUND_BERTI: 248897617
BERTI AVERAGE_ISSUED: 3.28066
