WARNING: physical memory size is smaller than virtual memory size.
WARNING: option --warmup_instructions is deprecated. Use --warmup-instructions instead.
WARNING: option --simulation_instructions is deprecated. Use --simulation-instructions instead.

*** ChampSim Multicore Out-of-Order Simulator ***
Warmup Instructions: 50000000
Simulation Instructions: 150000000
Number of CPUs: 4
Page size: 4096

Berti Prefetcher
BERTI HASH ORIGINAL
BERTI IP MASK ffff
Berti Prefetcher
BERTI HASH ORIGINAL
BERTI IP MASK ffff
Berti Prefetcher
BERTI HASH ORIGINAL
BERTI IP MASK ffff
Berti Prefetcher
BERTI HASH ORIGINAL
BERTI IP MASK ffff
Off-chip DRAM Size: 4 GiB Channels: 1 Width: 64-bit Data Race: 3200 MT/s
Heartbeat CPU 3 instructions: 10000001 cycles: 2502764 heartbeat IPC: 3.996 cumulative IPC: 3.996 (Simulation time: 00 hr 02 min 14 sec)
Heartbeat CPU 2 instructions: 10000003 cycles: 2507004 heartbeat IPC: 3.989 cumulative IPC: 3.989 (Simulation time: 00 hr 02 min 14 sec)
Heartbeat CPU 1 instructions: 10000003 cycles: 2521875 heartbeat IPC: 3.965 cumulative IPC: 3.965 (Simulation time: 00 hr 02 min 15 sec)
Heartbeat CPU 0 instructions: 10000004 cycles: 4173469 heartbeat IPC: 2.396 cumulative IPC: 2.396 (Simulation time: 00 hr 03 min 47 sec)
Heartbeat CPU 3 instructions: 20000000 cycles: 5005381 heartbeat IPC: 3.996 cumulative IPC: 3.996 (Simulation time: 00 hr 04 min 35 sec)
Heartbeat CPU 2 instructions: 20000001 cycles: 5016624 heartbeat IPC: 3.985 cumulative IPC: 3.987 (Simulation time: 00 hr 04 min 35 sec)
Heartbeat CPU 1 instructions: 20000001 cycles: 5038237 heartbeat IPC: 3.974 cumulative IPC: 3.97 (Simulation time: 00 hr 04 min 37 sec)
Heartbeat CPU 3 instructions: 30000001 cycles: 7507708 heartbeat IPC: 3.996 cumulative IPC: 3.996 (Simulation time: 00 hr 06 min 59 sec)
Heartbeat CPU 2 instructions: 30000002 cycles: 7520997 heartbeat IPC: 3.993 cumulative IPC: 3.989 (Simulation time: 00 hr 06 min 59 sec)
Heartbeat CPU 1 instructions: 30000000 cycles: 7553266 heartbeat IPC: 3.976 cumulative IPC: 3.972 (Simulation time: 00 hr 07 min 01 sec)
Heartbeat CPU 0 instructions: 20000004 cycles: 8345871 heartbeat IPC: 2.397 cumulative IPC: 2.396 (Simulation time: 00 hr 07 min 47 sec)
Heartbeat CPU 3 instructions: 40000001 cycles: 10010384 heartbeat IPC: 3.996 cumulative IPC: 3.996 (Simulation time: 00 hr 09 min 22 sec)
Heartbeat CPU 2 instructions: 40000000 cycles: 10031493 heartbeat IPC: 3.983 cumulative IPC: 3.987 (Simulation time: 00 hr 09 min 23 sec)
Heartbeat CPU 1 instructions: 40000003 cycles: 10077277 heartbeat IPC: 3.962 cumulative IPC: 3.969 (Simulation time: 00 hr 09 min 26 sec)
Heartbeat CPU 3 instructions: 50000001 cycles: 12513087 heartbeat IPC: 3.996 cumulative IPC: 3.996 (Simulation time: 00 hr 11 min 45 sec)
Warmup finished CPU 3 instructions: 50000001 cycles: 12513088 cumulative IPC: 3.996 (Simulation time: 00 hr 11 min 45 sec)
Heartbeat CPU 0 instructions: 30000001 cycles: 12518953 heartbeat IPC: 2.396 cumulative IPC: 2.396 (Simulation time: 00 hr 11 min 45 sec)
Heartbeat CPU 2 instructions: 50000003 cycles: 12555208 heartbeat IPC: 3.962 cumulative IPC: 3.982 (Simulation time: 00 hr 11 min 47 sec)
Warmup finished CPU 2 instructions: 50000003 cycles: 12555209 cumulative IPC: 3.982 (Simulation time: 00 hr 11 min 47 sec)
Heartbeat CPU 1 instructions: 50000000 cycles: 12599099 heartbeat IPC: 3.965 cumulative IPC: 3.969 (Simulation time: 00 hr 11 min 50 sec)
Warmup finished CPU 1 instructions: 50000000 cycles: 12599100 cumulative IPC: 3.969 (Simulation time: 00 hr 11 min 50 sec)
Heartbeat CPU 3 instructions: 60000001 cycles: 15015694 heartbeat IPC: 3.996 cumulative IPC: 3.996 (Simulation time: 00 hr 14 min 05 sec)
Heartbeat CPU 2 instructions: 60000000 cycles: 15063099 heartbeat IPC: 3.987 cumulative IPC: 3.983 (Simulation time: 00 hr 14 min 08 sec)
Heartbeat CPU 1 instructions: 60000002 cycles: 15124094 heartbeat IPC: 3.96 cumulative IPC: 3.967 (Simulation time: 00 hr 14 min 11 sec)
Heartbeat CPU 0 instructions: 40000000 cycles: 16705629 heartbeat IPC: 2.389 cumulative IPC: 2.394 (Simulation time: 00 hr 15 min 39 sec)
Heartbeat CPU 3 instructions: 70000001 cycles: 17520487 heartbeat IPC: 3.992 cumulative IPC: 3.995 (Simulation time: 00 hr 16 min 25 sec)
Heartbeat CPU 2 instructions: 70000001 cycles: 17570077 heartbeat IPC: 3.989 cumulative IPC: 3.984 (Simulation time: 00 hr 16 min 28 sec)
Heartbeat CPU 1 instructions: 70000000 cycles: 17648868 heartbeat IPC: 3.961 cumulative IPC: 3.966 (Simulation time: 00 hr 16 min 32 sec)
Heartbeat CPU 3 instructions: 80000000 cycles: 20022662 heartbeat IPC: 3.997 cumulative IPC: 3.995 (Simulation time: 00 hr 18 min 44 sec)
Heartbeat CPU 2 instructions: 80000003 cycles: 20077971 heartbeat IPC: 3.987 cumulative IPC: 3.984 (Simulation time: 00 hr 18 min 48 sec)
Heartbeat CPU 1 instructions: 80000001 cycles: 20174084 heartbeat IPC: 3.96 cumulative IPC: 3.965 (Simulation time: 00 hr 18 min 54 sec)
Heartbeat CPU 0 instructions: 50000003 cycles: 20870612 heartbeat IPC: 2.401 cumulative IPC: 2.396 (Simulation time: 00 hr 19 min 34 sec)
Warmup finished CPU 0 instructions: 50000003 cycles: 20870613 cumulative IPC: 2.396 (Simulation time: 00 hr 19 min 34 sec)
Warmup complete CPU 0 instructions: 50000003 cycles: 20870613 cumulative IPC: 2.396 (Simulation time: 00 hr 19 min 34 sec)
Warmup complete CPU 1 instructions: 82757651 cycles: 20870613 cumulative IPC: 3.965 (Simulation time: 00 hr 19 min 34 sec)
Warmup complete CPU 2 instructions: 83170567 cycles: 20870613 cumulative IPC: 3.985 (Simulation time: 00 hr 19 min 34 sec)
Warmup complete CPU 3 instructions: 83391800 cycles: 20870613 cumulative IPC: 3.996 (Simulation time: 00 hr 19 min 34 sec)
Heartbeat CPU 2 instructions: 90000001 cycles: 23230673 heartbeat IPC: 3.172 cumulative IPC: 2.894 (Simulation time: 00 hr 21 min 15 sec)
Heartbeat CPU 3 instructions: 90000004 cycles: 23968144 heartbeat IPC: 2.535 cumulative IPC: 2.133 (Simulation time: 00 hr 21 min 44 sec)
Heartbeat CPU 1 instructions: 90000001 cycles: 23986527 heartbeat IPC: 2.623 cumulative IPC: 2.324 (Simulation time: 00 hr 21 min 45 sec)
Heartbeat CPU 2 instructions: 100000004 cycles: 26640973 heartbeat IPC: 2.932 cumulative IPC: 2.917 (Simulation time: 00 hr 23 min 32 sec)
Heartbeat CPU 1 instructions: 100000000 cycles: 28287760 heartbeat IPC: 2.325 cumulative IPC: 2.325 (Simulation time: 00 hr 24 min 40 sec)
Heartbeat CPU 3 instructions: 100000000 cycles: 28676753 heartbeat IPC: 2.124 cumulative IPC: 2.128 (Simulation time: 00 hr 24 min 56 sec)
Heartbeat CPU 2 instructions: 110000001 cycles: 30053474 heartbeat IPC: 2.93 cumulative IPC: 2.922 (Simulation time: 00 hr 25 min 53 sec)
Heartbeat CPU 1 instructions: 110000004 cycles: 32633096 heartbeat IPC: 2.301 cumulative IPC: 2.316 (Simulation time: 00 hr 27 min 35 sec)
Heartbeat CPU 3 instructions: 110000001 cycles: 33368541 heartbeat IPC: 2.131 cumulative IPC: 2.129 (Simulation time: 00 hr 28 min 04 sec)
Heartbeat CPU 2 instructions: 120000002 cycles: 33468068 heartbeat IPC: 2.929 cumulative IPC: 2.924 (Simulation time: 00 hr 28 min 07 sec)
Heartbeat CPU 0 instructions: 60000000 cycles: 36415671 heartbeat IPC: 0.6433 cumulative IPC: 0.6433 (Simulation time: 00 hr 30 min 03 sec)
Heartbeat CPU 2 instructions: 130000003 cycles: 36871306 heartbeat IPC: 2.938 cumulative IPC: 2.927 (Simulation time: 00 hr 30 min 21 sec)
Heartbeat CPU 1 instructions: 120000001 cycles: 36912979 heartbeat IPC: 2.337 cumulative IPC: 2.321 (Simulation time: 00 hr 30 min 23 sec)
Heartbeat CPU 3 instructions: 120000000 cycles: 37987206 heartbeat IPC: 2.165 cumulative IPC: 2.139 (Simulation time: 00 hr 31 min 05 sec)
Heartbeat CPU 2 instructions: 140000003 cycles: 40293701 heartbeat IPC: 2.922 cumulative IPC: 2.926 (Simulation time: 00 hr 32 min 35 sec)
Heartbeat CPU 1 instructions: 130000000 cycles: 41270162 heartbeat IPC: 2.295 cumulative IPC: 2.316 (Simulation time: 00 hr 33 min 14 sec)
Heartbeat CPU 3 instructions: 130000002 cycles: 42639304 heartbeat IPC: 2.15 cumulative IPC: 2.141 (Simulation time: 00 hr 34 min 07 sec)
Heartbeat CPU 2 instructions: 150000002 cycles: 43671491 heartbeat IPC: 2.961 cumulative IPC: 2.931 (Simulation time: 00 hr 34 min 48 sec)
Heartbeat CPU 1 instructions: 140000002 cycles: 45665185 heartbeat IPC: 2.275 cumulative IPC: 2.309 (Simulation time: 00 hr 36 min 06 sec)
Heartbeat CPU 2 instructions: 160000001 cycles: 46952245 heartbeat IPC: 3.048 cumulative IPC: 2.946 (Simulation time: 00 hr 36 min 56 sec)
Heartbeat CPU 3 instructions: 140000000 cycles: 47299872 heartbeat IPC: 2.146 cumulative IPC: 2.142 (Simulation time: 00 hr 37 min 10 sec)
Heartbeat CPU 1 instructions: 150000002 cycles: 50025631 heartbeat IPC: 2.293 cumulative IPC: 2.306 (Simulation time: 00 hr 38 min 58 sec)
Heartbeat CPU 2 instructions: 170000004 cycles: 50277990 heartbeat IPC: 3.007 cumulative IPC: 2.953 (Simulation time: 00 hr 39 min 08 sec)
Heartbeat CPU 3 instructions: 150000004 cycles: 51904305 heartbeat IPC: 2.172 cumulative IPC: 2.146 (Simulation time: 00 hr 40 min 12 sec)
Heartbeat CPU 0 instructions: 70000002 cycles: 52091723 heartbeat IPC: 0.6379 cumulative IPC: 0.6406 (Simulation time: 00 hr 40 min 19 sec)
Heartbeat CPU 2 instructions: 180000003 cycles: 53772926 heartbeat IPC: 2.861 cumulative IPC: 2.943 (Simulation time: 00 hr 41 min 26 sec)
Heartbeat CPU 1 instructions: 160000001 cycles: 54373765 heartbeat IPC: 2.3 cumulative IPC: 2.306 (Simulation time: 00 hr 41 min 51 sec)
Heartbeat CPU 3 instructions: 160000003 cycles: 56508488 heartbeat IPC: 2.172 cumulative IPC: 2.15 (Simulation time: 00 hr 43 min 14 sec)
Heartbeat CPU 2 instructions: 190000001 cycles: 57245853 heartbeat IPC: 2.879 cumulative IPC: 2.937 (Simulation time: 00 hr 43 min 43 sec)
Heartbeat CPU 1 instructions: 170000000 cycles: 58729754 heartbeat IPC: 2.296 cumulative IPC: 2.304 (Simulation time: 00 hr 44 min 42 sec)
Heartbeat CPU 2 instructions: 200000004 cycles: 60709909 heartbeat IPC: 2.887 cumulative IPC: 2.933 (Simulation time: 00 hr 46 min 00 sec)
Heartbeat CPU 3 instructions: 170000003 cycles: 61096886 heartbeat IPC: 2.179 cumulative IPC: 2.153 (Simulation time: 00 hr 46 min 15 sec)
Heartbeat CPU 1 instructions: 180000000 cycles: 63115168 heartbeat IPC: 2.28 cumulative IPC: 2.302 (Simulation time: 00 hr 47 min 36 sec)
Heartbeat CPU 2 instructions: 210000004 cycles: 64201309 heartbeat IPC: 2.864 cumulative IPC: 2.927 (Simulation time: 00 hr 48 min 19 sec)
Heartbeat CPU 3 instructions: 180000004 cycles: 65695083 heartbeat IPC: 2.175 cumulative IPC: 2.155 (Simulation time: 00 hr 49 min 18 sec)
Heartbeat CPU 1 instructions: 190000000 cycles: 67454691 heartbeat IPC: 2.304 cumulative IPC: 2.302 (Simulation time: 00 hr 50 min 27 sec)
Heartbeat CPU 2 instructions: 220000001 cycles: 67657768 heartbeat IPC: 2.893 cumulative IPC: 2.925 (Simulation time: 00 hr 50 min 35 sec)
Heartbeat CPU 0 instructions: 80000002 cycles: 68331937 heartbeat IPC: 0.6158 cumulative IPC: 0.6321 (Simulation time: 00 hr 51 min 01 sec)
Heartbeat CPU 3 instructions: 190000002 cycles: 70309945 heartbeat IPC: 2.167 cumulative IPC: 2.156 (Simulation time: 00 hr 52 min 19 sec)
Heartbeat CPU 2 instructions: 230000000 cycles: 71110358 heartbeat IPC: 2.896 cumulative IPC: 2.923 (Simulation time: 00 hr 52 min 49 sec)
Heartbeat CPU 1 instructions: 200000004 cycles: 71779160 heartbeat IPC: 2.312 cumulative IPC: 2.303 (Simulation time: 00 hr 53 min 16 sec)
Simulation finished CPU 2 instructions: 150000001 cycles: 51333999 cumulative IPC: 2.922 (Simulation time: 00 hr 53 min 33 sec)
Heartbeat CPU 2 instructions: 240000002 cycles: 74567528 heartbeat IPC: 2.893 cumulative IPC: 2.921 (Simulation time: 00 hr 55 min 06 sec)
Heartbeat CPU 3 instructions: 200000000 cycles: 74917780 heartbeat IPC: 2.17 cumulative IPC: 2.158 (Simulation time: 00 hr 55 min 20 sec)
Heartbeat CPU 1 instructions: 210000001 cycles: 76151523 heartbeat IPC: 2.287 cumulative IPC: 2.302 (Simulation time: 00 hr 56 min 09 sec)
Heartbeat CPU 2 instructions: 250000004 cycles: 78031848 heartbeat IPC: 2.887 cumulative IPC: 2.919 (Simulation time: 00 hr 57 min 22 sec)
Heartbeat CPU 3 instructions: 210000000 cycles: 79489608 heartbeat IPC: 2.187 cumulative IPC: 2.16 (Simulation time: 00 hr 58 min 20 sec)
Heartbeat CPU 1 instructions: 220000002 cycles: 80523837 heartbeat IPC: 2.287 cumulative IPC: 2.301 (Simulation time: 00 hr 59 min 00 sec)
Heartbeat CPU 2 instructions: 260000002 cycles: 81471816 heartbeat IPC: 2.907 cumulative IPC: 2.918 (Simulation time: 00 hr 59 min 37 sec)
Heartbeat CPU 0 instructions: 90000001 cycles: 83746683 heartbeat IPC: 0.6487 cumulative IPC: 0.6362 (Simulation time: 01 hr 01 min 07 sec)
Heartbeat CPU 3 instructions: 220000000 cycles: 84055722 heartbeat IPC: 2.19 cumulative IPC: 2.162 (Simulation time: 01 hr 01 min 19 sec)
Heartbeat CPU 1 instructions: 230000000 cycles: 84878108 heartbeat IPC: 2.297 cumulative IPC: 2.3 (Simulation time: 01 hr 01 min 51 sec)
Heartbeat CPU 2 instructions: 270000004 cycles: 84920802 heartbeat IPC: 2.899 cumulative IPC: 2.917 (Simulation time: 01 hr 01 min 52 sec)
Simulation finished CPU 1 instructions: 150000000 cycles: 65218815 cumulative IPC: 2.3 (Simulation time: 01 hr 02 min 38 sec)
Heartbeat CPU 2 instructions: 280000004 cycles: 88327601 heartbeat IPC: 2.935 cumulative IPC: 2.918 (Simulation time: 01 hr 04 min 03 sec)
Heartbeat CPU 3 instructions: 230000001 cycles: 88638679 heartbeat IPC: 2.182 cumulative IPC: 2.163 (Simulation time: 01 hr 04 min 15 sec)
Heartbeat CPU 1 instructions: 240000001 cycles: 89269967 heartbeat IPC: 2.277 cumulative IPC: 2.299 (Simulation time: 01 hr 04 min 39 sec)
Simulation finished CPU 3 instructions: 150000000 cycles: 69348690 cumulative IPC: 2.163 (Simulation time: 01 hr 05 min 16 sec)
Heartbeat CPU 2 instructions: 290000003 cycles: 91747966 heartbeat IPC: 2.924 cumulative IPC: 2.918 (Simulation time: 01 hr 06 min 32 sec)
Heartbeat CPU 3 instructions: 240000000 cycles: 93245872 heartbeat IPC: 2.171 cumulative IPC: 2.164 (Simulation time: 01 hr 07 min 39 sec)
Heartbeat CPU 1 instructions: 250000001 cycles: 93609293 heartbeat IPC: 2.305 cumulative IPC: 2.299 (Simulation time: 01 hr 07 min 54 sec)
Heartbeat CPU 2 instructions: 300000000 cycles: 95172030 heartbeat IPC: 2.921 cumulative IPC: 2.918 (Simulation time: 01 hr 09 min 04 sec)
Heartbeat CPU 3 instructions: 250000002 cycles: 97862203 heartbeat IPC: 2.166 cumulative IPC: 2.164 (Simulation time: 01 hr 11 min 03 sec)
Heartbeat CPU 1 instructions: 260000000 cycles: 97970130 heartbeat IPC: 2.293 cumulative IPC: 2.299 (Simulation time: 01 hr 11 min 08 sec)
Heartbeat CPU 2 instructions: 310000004 cycles: 98589840 heartbeat IPC: 2.926 cumulative IPC: 2.919 (Simulation time: 01 hr 11 min 36 sec)
Heartbeat CPU 0 instructions: 100000000 cycles: 99833913 heartbeat IPC: 0.6216 cumulative IPC: 0.6332 (Simulation time: 01 hr 12 min 29 sec)
Heartbeat CPU 2 instructions: 320000001 cycles: 102008130 heartbeat IPC: 2.925 cumulative IPC: 2.919 (Simulation time: 01 hr 14 min 08 sec)
Heartbeat CPU 1 instructions: 270000003 cycles: 102339086 heartbeat IPC: 2.289 cumulative IPC: 2.298 (Simulation time: 01 hr 14 min 22 sec)
Heartbeat CPU 3 instructions: 260000000 cycles: 102499485 heartbeat IPC: 2.156 cumulative IPC: 2.164 (Simulation time: 01 hr 14 min 30 sec)
Heartbeat CPU 2 instructions: 330000001 cycles: 105426994 heartbeat IPC: 2.925 cumulative IPC: 2.919 (Simulation time: 01 hr 16 min 56 sec)
Heartbeat CPU 1 instructions: 280000000 cycles: 106662496 heartbeat IPC: 2.313 cumulative IPC: 2.299 (Simulation time: 01 hr 17 min 54 sec)
Heartbeat CPU 3 instructions: 270000000 cycles: 107120769 heartbeat IPC: 2.164 cumulative IPC: 2.164 (Simulation time: 01 hr 18 min 21 sec)
Heartbeat CPU 2 instructions: 340000000 cycles: 108861608 heartbeat IPC: 2.912 cumulative IPC: 2.919 (Simulation time: 01 hr 19 min 59 sec)
Heartbeat CPU 1 instructions: 290000001 cycles: 111008469 heartbeat IPC: 2.301 cumulative IPC: 2.299 (Simulation time: 01 hr 22 min 04 sec)
Heartbeat CPU 3 instructions: 280000001 cycles: 111746722 heartbeat IPC: 2.162 cumulative IPC: 2.163 (Simulation time: 01 hr 22 min 58 sec)
Heartbeat CPU 2 instructions: 350000001 cycles: 112298748 heartbeat IPC: 2.909 cumulative IPC: 2.918 (Simulation time: 01 hr 23 min 33 sec)
Heartbeat CPU 0 instructions: 110000004 cycles: 115129601 heartbeat IPC: 0.6538 cumulative IPC: 0.6365 (Simulation time: 01 hr 26 min 33 sec)
Heartbeat CPU 1 instructions: 300000002 cycles: 115342508 heartbeat IPC: 2.307 cumulative IPC: 2.3 (Simulation time: 01 hr 26 min 45 sec)
Heartbeat CPU 2 instructions: 360000001 cycles: 115733262 heartbeat IPC: 2.912 cumulative IPC: 2.918 (Simulation time: 01 hr 27 min 06 sec)
Heartbeat CPU 3 instructions: 290000004 cycles: 116377229 heartbeat IPC: 2.16 cumulative IPC: 2.163 (Simulation time: 01 hr 27 min 45 sec)
Heartbeat CPU 2 instructions: 370000001 cycles: 119156442 heartbeat IPC: 2.921 cumulative IPC: 2.918 (Simulation time: 01 hr 30 min 28 sec)
Heartbeat CPU 1 instructions: 310000003 cycles: 119664578 heartbeat IPC: 2.314 cumulative IPC: 2.3 (Simulation time: 01 hr 30 min 54 sec)
Heartbeat CPU 3 instructions: 300000000 cycles: 120991499 heartbeat IPC: 2.167 cumulative IPC: 2.163 (Simulation time: 01 hr 32 min 02 sec)
Heartbeat CPU 2 instructions: 380000001 cycles: 122586848 heartbeat IPC: 2.915 cumulative IPC: 2.918 (Simulation time: 01 hr 33 min 24 sec)
Heartbeat CPU 1 instructions: 320000002 cycles: 124068061 heartbeat IPC: 2.271 cumulative IPC: 2.299 (Simulation time: 01 hr 34 min 30 sec)
Heartbeat CPU 3 instructions: 310000001 cycles: 125602577 heartbeat IPC: 2.169 cumulative IPC: 2.164 (Simulation time: 01 hr 35 min 40 sec)
Heartbeat CPU 2 instructions: 390000000 cycles: 126053442 heartbeat IPC: 2.885 cumulative IPC: 2.917 (Simulation time: 01 hr 35 min 58 sec)
Heartbeat CPU 1 instructions: 330000004 cycles: 128468694 heartbeat IPC: 2.272 cumulative IPC: 2.298 (Simulation time: 01 hr 37 min 37 sec)
Heartbeat CPU 2 instructions: 400000003 cycles: 129386159 heartbeat IPC: 3.001 cumulative IPC: 2.92 (Simulation time: 01 hr 38 min 14 sec)
Heartbeat CPU 3 instructions: 320000001 cycles: 130212665 heartbeat IPC: 2.169 cumulative IPC: 2.164 (Simulation time: 01 hr 38 min 47 sec)
Heartbeat CPU 0 instructions: 120000004 cycles: 131298471 heartbeat IPC: 0.6185 cumulative IPC: 0.6339 (Simulation time: 01 hr 39 min 30 sec)
Heartbeat CPU 1 instructions: 340000001 cycles: 132837517 heartbeat IPC: 2.289 cumulative IPC: 2.297 (Simulation time: 01 hr 40 min 32 sec)
Heartbeat CPU 2 instructions: 410000004 cycles: 132885936 heartbeat IPC: 2.857 cumulative IPC: 2.918 (Simulation time: 01 hr 40 min 34 sec)
Heartbeat CPU 3 instructions: 330000001 cycles: 134807161 heartbeat IPC: 2.177 cumulative IPC: 2.164 (Simulation time: 01 hr 41 min 53 sec)
Heartbeat CPU 2 instructions: 420000001 cycles: 136275477 heartbeat IPC: 2.95 cumulative IPC: 2.919 (Simulation time: 01 hr 42 min 57 sec)
Heartbeat CPU 1 instructions: 350000001 cycles: 137237507 heartbeat IPC: 2.273 cumulative IPC: 2.297 (Simulation time: 01 hr 43 min 38 sec)
Heartbeat CPU 2 instructions: 430000003 cycles: 139884413 heartbeat IPC: 2.771 cumulative IPC: 2.914 (Simulation time: 01 hr 45 min 40 sec)
Heartbeat CPU 3 instructions: 340000000 cycles: 140160047 heartbeat IPC: 1.868 cumulative IPC: 2.151 (Simulation time: 01 hr 45 min 56 sec)
Heartbeat CPU 1 instructions: 360000004 cycles: 141655636 heartbeat IPC: 2.263 cumulative IPC: 2.295 (Simulation time: 01 hr 47 min 15 sec)
Heartbeat CPU 2 instructions: 440000000 cycles: 143335907 heartbeat IPC: 2.897 cumulative IPC: 2.914 (Simulation time: 01 hr 48 min 30 sec)
Heartbeat CPU 3 instructions: 350000002 cycles: 145355504 heartbeat IPC: 1.925 cumulative IPC: 2.142 (Simulation time: 01 hr 50 min 24 sec)
Heartbeat CPU 1 instructions: 370000000 cycles: 146027162 heartbeat IPC: 2.288 cumulative IPC: 2.295 (Simulation time: 01 hr 50 min 56 sec)
Heartbeat CPU 2 instructions: 450000003 cycles: 147242893 heartbeat IPC: 2.56 cumulative IPC: 2.903 (Simulation time: 01 hr 51 min 47 sec)
Heartbeat CPU 0 instructions: 130000002 cycles: 149033776 heartbeat IPC: 0.5638 cumulative IPC: 0.6242 (Simulation time: 01 hr 53 min 15 sec)
Heartbeat CPU 3 instructions: 360000003 cycles: 150419005 heartbeat IPC: 1.975 cumulative IPC: 2.135 (Simulation time: 01 hr 54 min 30 sec)
Heartbeat CPU 1 instructions: 380000000 cycles: 150434900 heartbeat IPC: 2.269 cumulative IPC: 2.294 (Simulation time: 01 hr 54 min 31 sec)
Heartbeat CPU 2 instructions: 460000000 cycles: 150595570 heartbeat IPC: 2.983 cumulative IPC: 2.905 (Simulation time: 01 hr 54 min 40 sec)
Heartbeat CPU 2 instructions: 470000002 cycles: 153990638 heartbeat IPC: 2.945 cumulative IPC: 2.906 (Simulation time: 01 hr 57 min 42 sec)
Heartbeat CPU 1 instructions: 390000000 cycles: 154822159 heartbeat IPC: 2.279 cumulative IPC: 2.294 (Simulation time: 01 hr 58 min 27 sec)
Heartbeat CPU 3 instructions: 370000000 cycles: 155383949 heartbeat IPC: 2.014 cumulative IPC: 2.131 (Simulation time: 01 hr 58 min 57 sec)
Heartbeat CPU 2 instructions: 480000001 cycles: 157409995 heartbeat IPC: 2.925 cumulative IPC: 2.906 (Simulation time: 02 hr 00 min 33 sec)
Heartbeat CPU 1 instructions: 400000000 cycles: 159252645 heartbeat IPC: 2.257 cumulative IPC: 2.293 (Simulation time: 02 hr 02 min 10 sec)
Heartbeat CPU 3 instructions: 380000002 cycles: 160340518 heartbeat IPC: 2.018 cumulative IPC: 2.127 (Simulation time: 02 hr 02 min 52 sec)
Heartbeat CPU 1 instructions: 410000000 cycles: 163706883 heartbeat IPC: 2.245 cumulative IPC: 2.291 (Simulation time: 02 hr 05 min 06 sec)
Heartbeat CPU 1 instructions: 420000004 cycles: 168185089 heartbeat IPC: 2.233 cumulative IPC: 2.289 (Simulation time: 02 hr 07 min 20 sec)
Heartbeat CPU 1 instructions: 430000002 cycles: 172800240 heartbeat IPC: 2.167 cumulative IPC: 2.286 (Simulation time: 02 hr 09 min 33 sec)
Heartbeat CPU 1 instructions: 440000003 cycles: 177394031 heartbeat IPC: 2.177 cumulative IPC: 2.282 (Simulation time: 02 hr 11 min 42 sec)
Heartbeat CPU 1 instructions: 450000003 cycles: 181867467 heartbeat IPC: 2.235 cumulative IPC: 2.281 (Simulation time: 02 hr 13 min 50 sec)
Heartbeat CPU 3 instructions: 390000001 cycles: 182443215 heartbeat IPC: 0.4524 cumulative IPC: 1.898 (Simulation time: 02 hr 14 min 12 sec)
Heartbeat CPU 2 instructions: 490000000 cycles: 182558385 heartbeat IPC: 0.3976 cumulative IPC: 2.516 (Simulation time: 02 hr 14 min 17 sec)
Heartbeat CPU 1 instructions: 460000003 cycles: 186336810 heartbeat IPC: 2.237 cumulative IPC: 2.28 (Simulation time: 02 hr 16 min 47 sec)
Heartbeat CPU 2 instructions: 500000003 cycles: 186856800 heartbeat IPC: 2.326 cumulative IPC: 2.511 (Simulation time: 02 hr 17 min 06 sec)
Heartbeat CPU 3 instructions: 400000003 cycles: 187132229 heartbeat IPC: 2.133 cumulative IPC: 1.904 (Simulation time: 02 hr 17 min 18 sec)
Heartbeat CPU 0 instructions: 140000001 cycles: 188577456 heartbeat IPC: 0.2529 cumulative IPC: 0.5367 (Simulation time: 02 hr 18 min 15 sec)
Heartbeat CPU 1 instructions: 470000002 cycles: 190681154 heartbeat IPC: 2.302 cumulative IPC: 2.28 (Simulation time: 02 hr 19 min 42 sec)
Heartbeat CPU 2 instructions: 510000004 cycles: 191079536 heartbeat IPC: 2.368 cumulative IPC: 2.508 (Simulation time: 02 hr 19 min 57 sec)
Heartbeat CPU 3 instructions: 410000003 cycles: 191898760 heartbeat IPC: 2.098 cumulative IPC: 1.91 (Simulation time: 02 hr 20 min 31 sec)
Heartbeat CPU 1 instructions: 480000000 cycles: 195056583 heartbeat IPC: 2.285 cumulative IPC: 2.281 (Simulation time: 02 hr 22 min 38 sec)
Heartbeat CPU 2 instructions: 520000003 cycles: 195185313 heartbeat IPC: 2.436 cumulative IPC: 2.506 (Simulation time: 02 hr 22 min 43 sec)
Heartbeat CPU 3 instructions: 420000001 cycles: 196577373 heartbeat IPC: 2.137 cumulative IPC: 1.916 (Simulation time: 02 hr 23 min 39 sec)
Heartbeat CPU 2 instructions: 530000000 cycles: 199335464 heartbeat IPC: 2.41 cumulative IPC: 2.504 (Simulation time: 02 hr 25 min 26 sec)
Heartbeat CPU 1 instructions: 490000002 cycles: 199364620 heartbeat IPC: 2.321 cumulative IPC: 2.282 (Simulation time: 02 hr 25 min 27 sec)
Heartbeat CPU 3 instructions: 430000001 cycles: 201282166 heartbeat IPC: 2.125 cumulative IPC: 1.921 (Simulation time: 02 hr 26 min 45 sec)
Heartbeat CPU 2 instructions: 540000004 cycles: 203491941 heartbeat IPC: 2.406 cumulative IPC: 2.502 (Simulation time: 02 hr 28 min 10 sec)
Heartbeat CPU 1 instructions: 500000000 cycles: 203710525 heartbeat IPC: 2.301 cumulative IPC: 2.282 (Simulation time: 02 hr 28 min 18 sec)
Heartbeat CPU 3 instructions: 440000004 cycles: 205985429 heartbeat IPC: 2.126 cumulative IPC: 1.926 (Simulation time: 02 hr 29 min 46 sec)
Heartbeat CPU 2 instructions: 550000001 cycles: 207633641 heartbeat IPC: 2.414 cumulative IPC: 2.5 (Simulation time: 02 hr 30 min 51 sec)
Heartbeat CPU 1 instructions: 510000004 cycles: 208011997 heartbeat IPC: 2.325 cumulative IPC: 2.283 (Simulation time: 02 hr 31 min 05 sec)
Heartbeat CPU 3 instructions: 450000000 cycles: 210782465 heartbeat IPC: 2.085 cumulative IPC: 1.93 (Simulation time: 02 hr 32 min 54 sec)
Heartbeat CPU 0 instructions: 150000003 cycles: 211361364 heartbeat IPC: 0.4389 cumulative IPC: 0.525 (Simulation time: 02 hr 33 min 17 sec)
Heartbeat CPU 1 instructions: 520000000 cycles: 212348952 heartbeat IPC: 2.306 cumulative IPC: 2.284 (Simulation time: 02 hr 33 min 49 sec)
Heartbeat CPU 2 instructions: 560000000 cycles: 213560008 heartbeat IPC: 1.687 cumulative IPC: 2.475 (Simulation time: 02 hr 34 min 26 sec)
Heartbeat CPU 3 instructions: 460000001 cycles: 217991736 heartbeat IPC: 1.387 cumulative IPC: 1.911 (Simulation time: 02 hr 36 min 30 sec)
Heartbeat CPU 1 instructions: 530000002 cycles: 219226634 heartbeat IPC: 1.454 cumulative IPC: 2.255 (Simulation time: 02 hr 37 min 04 sec)
Heartbeat CPU 1 instructions: 540000003 cycles: 225594595 heartbeat IPC: 1.57 cumulative IPC: 2.233 (Simulation time: 02 hr 40 min 24 sec)
Heartbeat CPU 3 instructions: 470000002 cycles: 226428759 heartbeat IPC: 1.185 cumulative IPC: 1.881 (Simulation time: 02 hr 40 min 57 sec)
Heartbeat CPU 1 instructions: 550000001 cycles: 229939813 heartbeat IPC: 2.301 cumulative IPC: 2.235 (Simulation time: 02 hr 42 min 51 sec)
Heartbeat CPU 3 instructions: 480000000 cycles: 232981950 heartbeat IPC: 1.526 cumulative IPC: 1.87 (Simulation time: 02 hr 44 min 44 sec)
Heartbeat CPU 1 instructions: 560000002 cycles: 234307256 heartbeat IPC: 2.29 cumulative IPC: 2.236 (Simulation time: 02 hr 45 min 39 sec)
Heartbeat CPU 2 instructions: 570000001 cycles: 234581464 heartbeat IPC: 0.4757 cumulative IPC: 2.278 (Simulation time: 02 hr 45 min 50 sec)
Heartbeat CPU 1 instructions: 570000001 cycles: 238647387 heartbeat IPC: 2.304 cumulative IPC: 2.237 (Simulation time: 02 hr 48 min 21 sec)
Heartbeat CPU 2 instructions: 580000001 cycles: 238949100 heartbeat IPC: 2.29 cumulative IPC: 2.278 (Simulation time: 02 hr 48 min 33 sec)
Heartbeat CPU 3 instructions: 490000002 cycles: 239548163 heartbeat IPC: 1.523 cumulative IPC: 1.859 (Simulation time: 02 hr 48 min 55 sec)
Heartbeat CPU 1 instructions: 580000001 cycles: 242943600 heartbeat IPC: 2.328 cumulative IPC: 2.239 (Simulation time: 02 hr 51 min 09 sec)
Heartbeat CPU 2 instructions: 590000004 cycles: 243204336 heartbeat IPC: 2.35 cumulative IPC: 2.28 (Simulation time: 02 hr 51 min 19 sec)
Heartbeat CPU 3 instructions: 500000000 cycles: 245812169 heartbeat IPC: 1.596 cumulative IPC: 1.852 (Simulation time: 02 hr 53 min 03 sec)
Heartbeat CPU 1 instructions: 590000002 cycles: 247217888 heartbeat IPC: 2.34 cumulative IPC: 2.241 (Simulation time: 02 hr 53 min 55 sec)
Heartbeat CPU 2 instructions: 600000004 cycles: 247446367 heartbeat IPC: 2.357 cumulative IPC: 2.281 (Simulation time: 02 hr 54 min 05 sec)
Heartbeat CPU 1 instructions: 600000000 cycles: 251479293 heartbeat IPC: 2.347 cumulative IPC: 2.243 (Simulation time: 02 hr 56 min 39 sec)
Heartbeat CPU 2 instructions: 610000000 cycles: 251680272 heartbeat IPC: 2.362 cumulative IPC: 2.283 (Simulation time: 02 hr 56 min 47 sec)
Heartbeat CPU 3 instructions: 510000002 cycles: 252051362 heartbeat IPC: 1.603 cumulative IPC: 1.845 (Simulation time: 02 hr 57 min 02 sec)
Heartbeat CPU 0 instructions: 160000002 cycles: 252787639 heartbeat IPC: 0.2414 cumulative IPC: 0.4743 (Simulation time: 02 hr 57 min 31 sec)
Heartbeat CPU 1 instructions: 610000000 cycles: 255785523 heartbeat IPC: 2.322 cumulative IPC: 2.244 (Simulation time: 02 hr 59 min 27 sec)
Heartbeat CPU 2 instructions: 620000002 cycles: 255936670 heartbeat IPC: 2.349 cumulative IPC: 2.284 (Simulation time: 02 hr 59 min 33 sec)
Heartbeat CPU 3 instructions: 520000000 cycles: 258353908 heartbeat IPC: 1.587 cumulative IPC: 1.838 (Simulation time: 03 hr 01 min 11 sec)
Heartbeat CPU 1 instructions: 620000000 cycles: 260136170 heartbeat IPC: 2.299 cumulative IPC: 2.245 (Simulation time: 03 hr 02 min 20 sec)
Heartbeat CPU 2 instructions: 630000004 cycles: 260158247 heartbeat IPC: 2.369 cumulative IPC: 2.285 (Simulation time: 03 hr 02 min 21 sec)
Heartbeat CPU 1 instructions: 630000001 cycles: 264510450 heartbeat IPC: 2.286 cumulative IPC: 2.246 (Simulation time: 03 hr 04 min 50 sec)
Heartbeat CPU 3 instructions: 530000003 cycles: 264925521 heartbeat IPC: 1.522 cumulative IPC: 1.83 (Simulation time: 03 hr 05 min 03 sec)
Heartbeat CPU 1 instructions: 640000001 cycles: 268869096 heartbeat IPC: 2.294 cumulative IPC: 2.247 (Simulation time: 03 hr 07 min 11 sec)
Heartbeat CPU 3 instructions: 540000000 cycles: 272417609 heartbeat IPC: 1.335 cumulative IPC: 1.815 (Simulation time: 03 hr 09 min 05 sec)
Heartbeat CPU 1 instructions: 650000000 cycles: 273271399 heartbeat IPC: 2.272 cumulative IPC: 2.247 (Simulation time: 03 hr 09 min 32 sec)
Heartbeat CPU 1 instructions: 660000002 cycles: 277680251 heartbeat IPC: 2.268 cumulative IPC: 2.248 (Simulation time: 03 hr 12 min 02 sec)
Heartbeat CPU 2 instructions: 640000004 cycles: 278406150 heartbeat IPC: 0.548 cumulative IPC: 2.162 (Simulation time: 03 hr 12 min 31 sec)
Heartbeat CPU 3 instructions: 550000002 cycles: 279468557 heartbeat IPC: 1.418 cumulative IPC: 1.804 (Simulation time: 03 hr 13 min 15 sec)
Heartbeat CPU 1 instructions: 670000001 cycles: 282069124 heartbeat IPC: 2.278 cumulative IPC: 2.248 (Simulation time: 03 hr 15 min 01 sec)
Heartbeat CPU 2 instructions: 650000003 cycles: 282610686 heartbeat IPC: 2.378 cumulative IPC: 2.166 (Simulation time: 03 hr 15 min 23 sec)
Heartbeat CPU 3 instructions: 560000002 cycles: 285591871 heartbeat IPC: 1.633 cumulative IPC: 1.8 (Simulation time: 03 hr 17 min 17 sec)
Heartbeat CPU 1 instructions: 680000002 cycles: 286494194 heartbeat IPC: 2.26 cumulative IPC: 2.248 (Simulation time: 03 hr 17 min 59 sec)
Heartbeat CPU 2 instructions: 660000003 cycles: 286928515 heartbeat IPC: 2.316 cumulative IPC: 2.168 (Simulation time: 03 hr 18 min 22 sec)
Heartbeat CPU 0 instructions: 170000001 cycles: 287930455 heartbeat IPC: 0.2846 cumulative IPC: 0.4493 (Simulation time: 03 hr 19 min 16 sec)
Heartbeat CPU 1 instructions: 690000001 cycles: 290901318 heartbeat IPC: 2.269 cumulative IPC: 2.249 (Simulation time: 03 hr 21 min 49 sec)
Heartbeat CPU 2 instructions: 670000000 cycles: 291138596 heartbeat IPC: 2.375 cumulative IPC: 2.171 (Simulation time: 03 hr 21 min 58 sec)
Heartbeat CPU 3 instructions: 570000004 cycles: 291840572 heartbeat IPC: 1.6 cumulative IPC: 1.796 (Simulation time: 03 hr 22 min 25 sec)
Heartbeat CPU 1 instructions: 700000000 cycles: 295306343 heartbeat IPC: 2.27 cumulative IPC: 2.249 (Simulation time: 03 hr 24 min 51 sec)
Heartbeat CPU 2 instructions: 680000002 cycles: 295370278 heartbeat IPC: 2.363 cumulative IPC: 2.174 (Simulation time: 03 hr 24 min 54 sec)
Heartbeat CPU 3 instructions: 580000000 cycles: 298132864 heartbeat IPC: 1.589 cumulative IPC: 1.791 (Simulation time: 03 hr 27 min 29 sec)
Heartbeat CPU 2 instructions: 690000000 cycles: 299538802 heartbeat IPC: 2.399 cumulative IPC: 2.178 (Simulation time: 03 hr 28 min 48 sec)
Heartbeat CPU 1 instructions: 710000002 cycles: 299720119 heartbeat IPC: 2.266 cumulative IPC: 2.249 (Simulation time: 03 hr 28 min 57 sec)
Heartbeat CPU 2 instructions: 700000000 cycles: 303785382 heartbeat IPC: 2.355 cumulative IPC: 2.18 (Simulation time: 03 hr 32 min 18 sec)
Heartbeat CPU 1 instructions: 720000004 cycles: 304172513 heartbeat IPC: 2.246 cumulative IPC: 2.249 (Simulation time: 03 hr 32 min 37 sec)
Heartbeat CPU 3 instructions: 590000001 cycles: 304401507 heartbeat IPC: 1.595 cumulative IPC: 1.787 (Simulation time: 03 hr 32 min 47 sec)
Heartbeat CPU 1 instructions: 730000002 cycles: 308595153 heartbeat IPC: 2.261 cumulative IPC: 2.25 (Simulation time: 03 hr 36 min 16 sec)
Heartbeat CPU 3 instructions: 600000000 cycles: 310974421 heartbeat IPC: 1.521 cumulative IPC: 1.781 (Simulation time: 03 hr 37 min 52 sec)
Heartbeat CPU 1 instructions: 740000004 cycles: 313099715 heartbeat IPC: 2.22 cumulative IPC: 2.249 (Simulation time: 03 hr 39 min 13 sec)
Heartbeat CPU 1 instructions: 750000001 cycles: 317717270 heartbeat IPC: 2.166 cumulative IPC: 2.248 (Simulation time: 03 hr 42 min 08 sec)
Heartbeat CPU 3 instructions: 610000002 cycles: 318391464 heartbeat IPC: 1.348 cumulative IPC: 1.77 (Simulation time: 03 hr 42 min 37 sec)
Heartbeat CPU 2 instructions: 710000001 cycles: 318977873 heartbeat IPC: 0.6582 cumulative IPC: 2.103 (Simulation time: 03 hr 43 min 02 sec)
Heartbeat CPU 1 instructions: 760000000 cycles: 322254332 heartbeat IPC: 2.204 cumulative IPC: 2.247 (Simulation time: 03 hr 44 min 54 sec)
Heartbeat CPU 0 instructions: 180000001 cycles: 325975615 heartbeat IPC: 0.2628 cumulative IPC: 0.4261 (Simulation time: 03 hr 47 min 17 sec)
Heartbeat CPU 1 instructions: 770000002 cycles: 326681489 heartbeat IPC: 2.259 cumulative IPC: 2.247 (Simulation time: 03 hr 47 min 51 sec)
Heartbeat CPU 2 instructions: 720000000 cycles: 327342803 heartbeat IPC: 1.195 cumulative IPC: 2.078 (Simulation time: 03 hr 48 min 24 sec)
Heartbeat CPU 1 instructions: 780000002 cycles: 331091301 heartbeat IPC: 2.268 cumulative IPC: 2.248 (Simulation time: 03 hr 51 min 31 sec)
Heartbeat CPU 2 instructions: 730000001 cycles: 331855519 heartbeat IPC: 2.216 cumulative IPC: 2.08 (Simulation time: 03 hr 52 min 11 sec)
Heartbeat CPU 1 instructions: 790000002 cycles: 335581800 heartbeat IPC: 2.227 cumulative IPC: 2.247 (Simulation time: 03 hr 55 min 12 sec)
Heartbeat CPU 2 instructions: 740000001 cycles: 336874396 heartbeat IPC: 1.992 cumulative IPC: 2.079 (Simulation time: 03 hr 56 min 14 sec)
Heartbeat CPU 3 instructions: 620000000 cycles: 339288488 heartbeat IPC: 0.4785 cumulative IPC: 1.685 (Simulation time: 03 hr 58 min 10 sec)
Heartbeat CPU 1 instructions: 800000001 cycles: 340038936 heartbeat IPC: 2.244 cumulative IPC: 2.247 (Simulation time: 03 hr 58 min 46 sec)
Heartbeat CPU 2 instructions: 750000000 cycles: 341832856 heartbeat IPC: 2.017 cumulative IPC: 2.078 (Simulation time: 04 hr 00 min 08 sec)
Heartbeat CPU 1 instructions: 810000000 cycles: 344618521 heartbeat IPC: 2.184 cumulative IPC: 2.246 (Simulation time: 04 hr 02 min 04 sec)
Heartbeat CPU 2 instructions: 760000000 cycles: 347187055 heartbeat IPC: 1.868 cumulative IPC: 2.074 (Simulation time: 04 hr 03 min 34 sec)
Heartbeat CPU 1 instructions: 820000000 cycles: 349087141 heartbeat IPC: 2.238 cumulative IPC: 2.246 (Simulation time: 04 hr 04 min 36 sec)
Heartbeat CPU 2 instructions: 770000004 cycles: 352010609 heartbeat IPC: 2.073 cumulative IPC: 2.074 (Simulation time: 04 hr 06 min 37 sec)
Heartbeat CPU 1 instructions: 830000004 cycles: 353584789 heartbeat IPC: 2.223 cumulative IPC: 2.246 (Simulation time: 04 hr 07 min 54 sec)
Heartbeat CPU 3 instructions: 630000003 cycles: 354037052 heartbeat IPC: 0.678 cumulative IPC: 1.641 (Simulation time: 04 hr 08 min 16 sec)
Heartbeat CPU 2 instructions: 780000003 cycles: 356640785 heartbeat IPC: 2.16 cumulative IPC: 2.075 (Simulation time: 04 hr 10 min 13 sec)
Heartbeat CPU 1 instructions: 840000003 cycles: 358052093 heartbeat IPC: 2.238 cumulative IPC: 2.246 (Simulation time: 04 hr 11 min 00 sec)
Heartbeat CPU 1 instructions: 850000001 cycles: 362498083 heartbeat IPC: 2.249 cumulative IPC: 2.246 (Simulation time: 04 hr 13 min 16 sec)
Heartbeat CPU 1 instructions: 860000003 cycles: 366985749 heartbeat IPC: 2.228 cumulative IPC: 2.246 (Simulation time: 04 hr 15 min 43 sec)
Heartbeat CPU 3 instructions: 640000001 cycles: 368595037 heartbeat IPC: 0.6869 cumulative IPC: 1.601 (Simulation time: 04 hr 16 min 33 sec)
Heartbeat CPU 1 instructions: 870000003 cycles: 371464830 heartbeat IPC: 2.233 cumulative IPC: 2.245 (Simulation time: 04 hr 17 min 58 sec)
Heartbeat CPU 1 instructions: 880000000 cycles: 375971256 heartbeat IPC: 2.219 cumulative IPC: 2.245 (Simulation time: 04 hr 20 min 42 sec)
Heartbeat CPU 2 instructions: 790000003 cycles: 379814043 heartbeat IPC: 0.4315 cumulative IPC: 1.969 (Simulation time: 04 hr 23 min 17 sec)
Heartbeat CPU 1 instructions: 890000004 cycles: 380422247 heartbeat IPC: 2.247 cumulative IPC: 2.245 (Simulation time: 04 hr 23 min 44 sec)
Heartbeat CPU 2 instructions: 800000000 cycles: 384178637 heartbeat IPC: 2.291 cumulative IPC: 1.973 (Simulation time: 04 hr 26 min 18 sec)
Heartbeat CPU 1 instructions: 900000000 cycles: 384829902 heartbeat IPC: 2.269 cumulative IPC: 2.245 (Simulation time: 04 hr 26 min 45 sec)
Heartbeat CPU 3 instructions: 650000000 cycles: 385120842 heartbeat IPC: 0.6051 cumulative IPC: 1.556 (Simulation time: 04 hr 26 min 55 sec)
Heartbeat CPU 2 instructions: 810000003 cycles: 388496812 heartbeat IPC: 2.316 cumulative IPC: 1.977 (Simulation time: 04 hr 29 min 21 sec)
Heartbeat CPU 1 instructions: 910000003 cycles: 389258391 heartbeat IPC: 2.258 cumulative IPC: 2.246 (Simulation time: 04 hr 29 min 53 sec)
Heartbeat CPU 3 instructions: 660000001 cycles: 390636926 heartbeat IPC: 1.813 cumulative IPC: 1.559 (Simulation time: 04 hr 30 min 49 sec)
Heartbeat CPU 2 instructions: 820000004 cycles: 392732636 heartbeat IPC: 2.361 cumulative IPC: 1.981 (Simulation time: 04 hr 32 min 11 sec)
Heartbeat CPU 1 instructions: 920000001 cycles: 393658387 heartbeat IPC: 2.273 cumulative IPC: 2.246 (Simulation time: 04 hr 32 min 47 sec)
Heartbeat CPU 2 instructions: 830000003 cycles: 397209267 heartbeat IPC: 2.234 cumulative IPC: 1.984 (Simulation time: 04 hr 35 min 01 sec)
Heartbeat CPU 1 instructions: 930000001 cycles: 398118040 heartbeat IPC: 2.242 cumulative IPC: 2.246 (Simulation time: 04 hr 35 min 35 sec)
Heartbeat CPU 3 instructions: 670000001 cycles: 399684328 heartbeat IPC: 1.105 cumulative IPC: 1.549 (Simulation time: 04 hr 36 min 32 sec)
Heartbeat CPU 2 instructions: 840000000 cycles: 402107554 heartbeat IPC: 2.042 cumulative IPC: 1.985 (Simulation time: 04 hr 37 min 56 sec)
Heartbeat CPU 1 instructions: 940000000 cycles: 402634924 heartbeat IPC: 2.214 cumulative IPC: 2.245 (Simulation time: 04 hr 38 min 13 sec)
Heartbeat CPU 0 instructions: 190000003 cycles: 403420332 heartbeat IPC: 0.1291 cumulative IPC: 0.366 (Simulation time: 04 hr 38 min 39 sec)
Heartbeat CPU 2 instructions: 850000002 cycles: 407074150 heartbeat IPC: 2.013 cumulative IPC: 1.986 (Simulation time: 04 hr 40 min 43 sec)
Heartbeat CPU 1 instructions: 950000000 cycles: 407141959 heartbeat IPC: 2.219 cumulative IPC: 2.245 (Simulation time: 04 hr 40 min 45 sec)
Heartbeat CPU 1 instructions: 960000003 cycles: 411707462 heartbeat IPC: 2.19 cumulative IPC: 2.245 (Simulation time: 04 hr 43 min 14 sec)
Heartbeat CPU 1 instructions: 970000001 cycles: 416235615 heartbeat IPC: 2.208 cumulative IPC: 2.244 (Simulation time: 04 hr 45 min 18 sec)
Heartbeat CPU 1 instructions: 980000000 cycles: 420875613 heartbeat IPC: 2.155 cumulative IPC: 2.243 (Simulation time: 04 hr 47 min 32 sec)
Heartbeat CPU 1 instructions: 990000002 cycles: 425420614 heartbeat IPC: 2.2 cumulative IPC: 2.243 (Simulation time: 04 hr 49 min 44 sec)
Heartbeat CPU 1 instructions: 1000000004 cycles: 430003501 heartbeat IPC: 2.182 cumulative IPC: 2.242 (Simulation time: 04 hr 52 min 17 sec)
Heartbeat CPU 1 instructions: 1010000000 cycles: 434590496 heartbeat IPC: 2.18 cumulative IPC: 2.241 (Simulation time: 04 hr 54 min 37 sec)
Heartbeat CPU 2 instructions: 860000004 cycles: 437265205 heartbeat IPC: 0.3312 cumulative IPC: 1.866 (Simulation time: 04 hr 55 min 53 sec)
Heartbeat CPU 1 instructions: 1020000002 cycles: 439082406 heartbeat IPC: 2.226 cumulative IPC: 2.241 (Simulation time: 04 hr 56 min 58 sec)
Heartbeat CPU 2 instructions: 870000004 cycles: 441859689 heartbeat IPC: 2.177 cumulative IPC: 1.869 (Simulation time: 04 hr 58 min 43 sec)
Heartbeat CPU 3 instructions: 680000002 cycles: 442261917 heartbeat IPC: 0.2349 cumulative IPC: 1.416 (Simulation time: 04 hr 58 min 58 sec)
Heartbeat CPU 1 instructions: 1030000004 cycles: 443495880 heartbeat IPC: 2.266 cumulative IPC: 2.241 (Simulation time: 04 hr 59 min 48 sec)
Heartbeat CPU 2 instructions: 880000000 cycles: 446326012 heartbeat IPC: 2.239 cumulative IPC: 1.873 (Simulation time: 05 hr 01 min 50 sec)
Heartbeat CPU 3 instructions: 690000001 cycles: 446557910 heartbeat IPC: 2.328 cumulative IPC: 1.425 (Simulation time: 05 hr 02 min 00 sec)
Heartbeat CPU 1 instructions: 1040000001 cycles: 447838457 heartbeat IPC: 2.303 cumulative IPC: 2.242 (Simulation time: 05 hr 02 min 51 sec)
Heartbeat CPU 2 instructions: 890000002 cycles: 450632650 heartbeat IPC: 2.322 cumulative IPC: 1.877 (Simulation time: 05 hr 04 min 46 sec)
Heartbeat CPU 3 instructions: 700000003 cycles: 451366340 heartbeat IPC: 2.08 cumulative IPC: 1.432 (Simulation time: 05 hr 05 min 19 sec)
Heartbeat CPU 1 instructions: 1050000004 cycles: 452114706 heartbeat IPC: 2.338 cumulative IPC: 2.243 (Simulation time: 05 hr 05 min 53 sec)
Heartbeat CPU 2 instructions: 900000002 cycles: 454739244 heartbeat IPC: 2.435 cumulative IPC: 1.883 (Simulation time: 05 hr 07 min 50 sec)
Heartbeat CPU 3 instructions: 710000001 cycles: 455096973 heartbeat IPC: 2.681 cumulative IPC: 1.443 (Simulation time: 05 hr 08 min 04 sec)
Heartbeat CPU 1 instructions: 1060000001 cycles: 456446099 heartbeat IPC: 2.309 cumulative IPC: 2.244 (Simulation time: 05 hr 09 min 02 sec)
Heartbeat CPU 3 instructions: 720000003 cycles: 458525011 heartbeat IPC: 2.917 cumulative IPC: 1.455 (Simulation time: 05 hr 10 min 36 sec)
Heartbeat CPU 2 instructions: 910000001 cycles: 458851437 heartbeat IPC: 2.432 cumulative IPC: 1.888 (Simulation time: 05 hr 10 min 51 sec)
Heartbeat CPU 1 instructions: 1070000000 cycles: 460743441 heartbeat IPC: 2.327 cumulative IPC: 2.244 (Simulation time: 05 hr 12 min 08 sec)
Heartbeat CPU 0 instructions: 200000001 cycles: 462974258 heartbeat IPC: 0.1679 cumulative IPC: 0.3393 (Simulation time: 05 hr 13 min 36 sec)
Simulation finished CPU 0 instructions: 150000003 cycles: 442103647 cumulative IPC: 0.3393 (Simulation time: 05 hr 13 min 36 sec)
Simulation complete CPU 0 instructions: 150000003 cycles: 442103647 cumulative IPC: 0.3393 (Simulation time: 05 hr 13 min 36 sec)
Simulation complete CPU 1 instructions: 992382105 cycles: 442103647 cumulative IPC: 2.245 (Simulation time: 05 hr 13 min 36 sec)
Simulation complete CPU 2 instructions: 836656869 cycles: 442103647 cumulative IPC: 1.892 (Simulation time: 05 hr 13 min 36 sec)
Simulation complete CPU 3 instructions: 645366925 cycles: 442103647 cumulative IPC: 1.46 (Simulation time: 05 hr 13 min 36 sec)

ChampSim completed all CPUs

=== Simulation ===
CPU 0 runs /home/das/dpc3_traces/620.omnetpp_s-874B.champsimtrace.xzCPU 1 runs /home/das/dpc3_traces/603.bwaves_s-3699B.champsimtrace.xzCPU 2 runs /home/das/dpc3_traces/654.roms_s-842B.champsimtrace.xzCPU 3 runs /home/das/dpc3_traces/621.wrf_s-575B.champsimtrace.xz
Total Simulation Statistics (not including warmup)

CPU 0 cumulative IPC: 0.3393 instructions: 150000003 cycles: 442103647
CPU 0 Branch Prediction Accuracy: 94.9% MPKI: 10.6 Average ROB Occupancy at Mispredict: 81.17
Branch type MPKI
BRANCH_DIRECT_JUMP: 0.923
BRANCH_INDIRECT: 0.128
BRANCH_CONDITIONAL: 8.42
BRANCH_DIRECT_CALL: 0.00016
BRANCH_INDIRECT_CALL: 0.734
BRANCH_RETURN: 0.399


CPU 1 cumulative IPC: 2.245 instructions: 992382105 cycles: 442103647
CPU 1 Branch Prediction Accuracy: 90.02% MPKI: 14.54 Average ROB Occupancy at Mispredict: 30.03
Branch type MPKI
BRANCH_DIRECT_JUMP: 0.0595
BRANCH_INDIRECT: 0
BRANCH_CONDITIONAL: 14.4
BRANCH_DIRECT_CALL: 0
BRANCH_INDIRECT_CALL: 0
BRANCH_RETURN: 0.0661


CPU 2 cumulative IPC: 1.892 instructions: 836656869 cycles: 442103647
CPU 2 Branch Prediction Accuracy: 91.49% MPKI: 11.26 Average ROB Occupancy at Mispredict: 78.18
Branch type MPKI
BRANCH_DIRECT_JUMP: 0.0745
BRANCH_INDIRECT: 0
BRANCH_CONDITIONAL: 6.95
BRANCH_DIRECT_CALL: 9.56e-06
BRANCH_INDIRECT_CALL: 0
BRANCH_RETURN: 4.24


CPU 3 cumulative IPC: 1.46 instructions: 645366925 cycles: 442103647
CPU 3 Branch Prediction Accuracy: 95.44% MPKI: 5.754 Average ROB Occupancy at Mispredict: 102.7
Branch type MPKI
BRANCH_DIRECT_JUMP: 0.000473
BRANCH_INDIRECT: 2.48e-05
BRANCH_CONDITIONAL: 5.32
BRANCH_DIRECT_CALL: 0.00282
BRANCH_INDIRECT_CALL: 0
BRANCH_RETURN: 0.434

LLC TOTAL        ACCESS:    3526795 HIT:    1739371 MISS:    1787424
LLC LOAD         ACCESS:    1682885 HIT:     534848 MISS:    1148037
LLC RFO          ACCESS:     258023 HIT:     146390 MISS:     111633
LLC PREFETCH     ACCESS:      18507 HIT:       2739 MISS:      15768
LLC WRITE        ACCESS:     971193 HIT:     944022 MISS:      27171
LLC TRANSLATION  ACCESS:     596187 HIT:     111372 MISS:     484815
LLC PREFETCH REQUESTED:          0 ISSUED:          0 USEFUL:          0 USELESS:          0
LLC AVERAGE MISS LATENCY: 1673 cycles
LLC TOTAL        ACCESS:     290575 HIT:      47631 MISS:     242944
LLC LOAD         ACCESS:       2076 HIT:         62 MISS:       2014
LLC RFO          ACCESS:     126662 HIT:       1494 MISS:     125168
LLC PREFETCH     ACCESS:      32934 HIT:       2379 MISS:      30555
LLC WRITE        ACCESS:     128887 HIT:      43695 MISS:      85192
LLC TRANSLATION  ACCESS:         16 HIT:          1 MISS:         15
LLC PREFETCH REQUESTED:          0 ISSUED:          0 USEFUL:          0 USELESS:          0
LLC AVERAGE MISS LATENCY: 1673 cycles
LLC TOTAL        ACCESS:    2387808 HIT:     623307 MISS:    1764501
LLC LOAD         ACCESS:     181929 HIT:       8452 MISS:     173477
LLC RFO          ACCESS:     612312 HIT:        490 MISS:     611822
LLC PREFETCH     ACCESS:     971358 HIT:      14396 MISS:     956962
LLC WRITE        ACCESS:     615992 HIT:     598365 MISS:      17627
LLC TRANSLATION  ACCESS:       6217 HIT:       1604 MISS:       4613
LLC PREFETCH REQUESTED:          0 ISSUED:          0 USEFUL:          0 USELESS:          0
LLC AVERAGE MISS LATENCY: 1673 cycles
LLC TOTAL        ACCESS:    4045068 HIT:    2454488 MISS:    1590580
LLC LOAD         ACCESS:     724996 HIT:     442942 MISS:     282054
LLC RFO          ACCESS:     806677 HIT:     279735 MISS:     526942
LLC PREFETCH     ACCESS:    1209089 HIT:     444079 MISS:     765010
LLC WRITE        ACCESS:    1299809 HIT:    1285741 MISS:      14068
LLC TRANSLATION  ACCESS:       4497 HIT:       1991 MISS:       2506
LLC PREFETCH REQUESTED:          0 ISSUED:          0 USEFUL:          0 USELESS:          0
LLC AVERAGE MISS LATENCY: 1673 cycles
cpu0_DTLB TOTAL        ACCESS:   38300971 HIT:   35009346 MISS:    3291625
cpu0_DTLB LOAD         ACCESS:   38300971 HIT:   35009346 MISS:    3291625
cpu0_DTLB RFO          ACCESS:          0 HIT:          0 MISS:          0
cpu0_DTLB PREFETCH     ACCESS:          0 HIT:          0 MISS:          0
cpu0_DTLB WRITE        ACCESS:          0 HIT:          0 MISS:          0
cpu0_DTLB TRANSLATION  ACCESS:          0 HIT:          0 MISS:          0
cpu0_DTLB PREFETCH REQUESTED:          0 ISSUED:          0 USEFUL:          0 USELESS:          0
cpu0_DTLB AVERAGE MISS LATENCY: 90.27 cycles
cpu0_DTLB TOTAL        ACCESS:          0 HIT:          0 MISS:          0
cpu0_DTLB LOAD         ACCESS:          0 HIT:          0 MISS:          0
cpu0_DTLB RFO          ACCESS:          0 HIT:          0 MISS:          0
cpu0_DTLB PREFETCH     ACCESS:          0 HIT:          0 MISS:          0
cpu0_DTLB WRITE        ACCESS:          0 HIT:          0 MISS:          0
cpu0_DTLB TRANSLATION  ACCESS:          0 HIT:          0 MISS:          0
cpu0_DTLB PREFETCH REQUESTED:          0 ISSUED:          0 USEFUL:          0 USELESS:          0
cpu0_DTLB AVERAGE MISS LATENCY: 90.27 cycles
cpu0_DTLB TOTAL        ACCESS:          0 HIT:          0 MISS:          0
cpu0_DTLB LOAD         ACCESS:          0 HIT:          0 MISS:          0
cpu0_DTLB RFO          ACCESS:          0 HIT:          0 MISS:          0
cpu0_DTLB PREFETCH     ACCESS:          0 HIT:          0 MISS:          0
cpu0_DTLB WRITE        ACCESS:          0 HIT:          0 MISS:          0
cpu0_DTLB TRANSLATION  ACCESS:          0 HIT:          0 MISS:          0
cpu0_DTLB PREFETCH REQUESTED:          0 ISSUED:          0 USEFUL:          0 USELESS:          0
cpu0_DTLB AVERAGE MISS LATENCY: 90.27 cycles
cpu0_DTLB TOTAL        ACCESS:          0 HIT:          0 MISS:          0
cpu0_DTLB LOAD         ACCESS:          0 HIT:          0 MISS:          0
cpu0_DTLB RFO          ACCESS:          0 HIT:          0 MISS:          0
cpu0_DTLB PREFETCH     ACCESS:          0 HIT:          0 MISS:          0
cpu0_DTLB WRITE        ACCESS:          0 HIT:          0 MISS:          0
cpu0_DTLB TRANSLATION  ACCESS:          0 HIT:          0 MISS:          0
cpu0_DTLB PREFETCH REQUESTED:          0 ISSUED:          0 USEFUL:          0 USELESS:          0
cpu0_DTLB AVERAGE MISS LATENCY: 90.27 cycles
cpu0_ITLB TOTAL        ACCESS:   10784484 HIT:   10512363 MISS:     272121
cpu0_ITLB LOAD         ACCESS:   10784484 HIT:   10512363 MISS:     272121
cpu0_ITLB RFO          ACCESS:          0 HIT:          0 MISS:          0
cpu0_ITLB PREFETCH     ACCESS:          0 HIT:          0 MISS:          0
cpu0_ITLB WRITE        ACCESS:          0 HIT:          0 MISS:          0
cpu0_ITLB TRANSLATION  ACCESS:          0 HIT:          0 MISS:          0
cpu0_ITLB PREFETCH REQUESTED:          0 ISSUED:          0 USEFUL:          0 USELESS:          0
cpu0_ITLB AVERAGE MISS LATENCY: 7.494 cycles
cpu0_ITLB TOTAL        ACCESS:          0 HIT:          0 MISS:          0
cpu0_ITLB LOAD         ACCESS:          0 HIT:          0 MISS:          0
cpu0_ITLB RFO          ACCESS:          0 HIT:          0 MISS:          0
cpu0_ITLB PREFETCH     ACCESS:          0 HIT:          0 MISS:          0
cpu0_ITLB WRITE        ACCESS:          0 HIT:          0 MISS:          0
cpu0_ITLB TRANSLATION  ACCESS:          0 HIT:          0 MISS:          0
cpu0_ITLB PREFETCH REQUESTED:          0 ISSUED:          0 USEFUL:          0 USELESS:          0
cpu0_ITLB AVERAGE MISS LATENCY: 7.494 cycles
cpu0_ITLB TOTAL        ACCESS:          0 HIT:          0 MISS:          0
cpu0_ITLB LOAD         ACCESS:          0 HIT:          0 MISS:          0
cpu0_ITLB RFO          ACCESS:          0 HIT:          0 MISS:          0
cpu0_ITLB PREFETCH     ACCESS:          0 HIT:          0 MISS:          0
cpu0_ITLB WRITE        ACCESS:          0 HIT:          0 MISS:          0
cpu0_ITLB TRANSLATION  ACCESS:          0 HIT:          0 MISS:          0
cpu0_ITLB PREFETCH REQUESTED:          0 ISSUED:          0 USEFUL:          0 USELESS:          0
cpu0_ITLB AVERAGE MISS LATENCY: 7.494 cycles
cpu0_ITLB TOTAL        ACCESS:          0 HIT:          0 MISS:          0
cpu0_ITLB LOAD         ACCESS:          0 HIT:          0 MISS:          0
cpu0_ITLB RFO          ACCESS:          0 HIT:          0 MISS:          0
cpu0_ITLB PREFETCH     ACCESS:          0 HIT:          0 MISS:          0
cpu0_ITLB WRITE        ACCESS:          0 HIT:          0 MISS:          0
cpu0_ITLB TRANSLATION  ACCESS:          0 HIT:          0 MISS:          0
cpu0_ITLB PREFETCH REQUESTED:          0 ISSUED:          0 USEFUL:          0 USELESS:          0
cpu0_ITLB AVERAGE MISS LATENCY: 7.494 cycles
cpu0_L1D TOTAL        ACCESS:   49863703 HIT:   44974637 MISS:    4889066
cpu0_L1D LOAD         ACCESS:   22948242 HIT:   19903696 MISS:    3044546
cpu0_L1D RFO          ACCESS:          0 HIT:          0 MISS:          0
cpu0_L1D PREFETCH     ACCESS:      32470 HIT:       4044 MISS:      28426
cpu0_L1D WRITE        ACCESS:   25991820 HIT:   24921819 MISS:    1070001
cpu0_L1D TRANSLATION  ACCESS:     891171 HIT:     145078 MISS:     746093
cpu0_L1D PREFETCH REQUESTED:      32470 ISSUED:      32470 USEFUL:       1688 USELESS:       1425
cpu0_L1D AVERAGE MISS LATENCY: 212.6 cycles
cpu0_L1D TOTAL        ACCESS:          0 HIT:          0 MISS:          0
cpu0_L1D LOAD         ACCESS:          0 HIT:          0 MISS:          0
cpu0_L1D RFO          ACCESS:          0 HIT:          0 MISS:          0
cpu0_L1D PREFETCH     ACCESS:          0 HIT:          0 MISS:          0
cpu0_L1D WRITE        ACCESS:          0 HIT:          0 MISS:          0
cpu0_L1D TRANSLATION  ACCESS:          0 HIT:          0 MISS:          0
cpu0_L1D PREFETCH REQUESTED:      32470 ISSUED:      32470 USEFUL:       1688 USELESS:       1425
cpu0_L1D AVERAGE MISS LATENCY: 212.6 cycles
cpu0_L1D TOTAL        ACCESS:          0 HIT:          0 MISS:          0
cpu0_L1D LOAD         ACCESS:          0 HIT:          0 MISS:          0
cpu0_L1D RFO          ACCESS:          0 HIT:          0 MISS:          0
cpu0_L1D PREFETCH     ACCESS:          0 HIT:          0 MISS:          0
cpu0_L1D WRITE        ACCESS:          0 HIT:          0 MISS:          0
cpu0_L1D TRANSLATION  ACCESS:          0 HIT:          0 MISS:          0
cpu0_L1D PREFETCH REQUESTED:      32470 ISSUED:      32470 USEFUL:       1688 USELESS:       1425
cpu0_L1D AVERAGE MISS LATENCY: 212.6 cycles
cpu0_L1D TOTAL        ACCESS:          0 HIT:          0 MISS:          0
cpu0_L1D LOAD         ACCESS:          0 HIT:          0 MISS:          0
cpu0_L1D RFO          ACCESS:          0 HIT:          0 MISS:          0
cpu0_L1D PREFETCH     ACCESS:          0 HIT:          0 MISS:          0
cpu0_L1D WRITE        ACCESS:          0 HIT:          0 MISS:          0
cpu0_L1D TRANSLATION  ACCESS:          0 HIT:          0 MISS:          0
cpu0_L1D PREFETCH REQUESTED:      32470 ISSUED:      32470 USEFUL:       1688 USELESS:       1425
cpu0_L1D AVERAGE MISS LATENCY: 212.6 cycles
cpu0_L1I TOTAL        ACCESS:   12867432 HIT:   12793438 MISS:      73994
cpu0_L1I LOAD         ACCESS:   12867432 HIT:   12793438 MISS:      73994
cpu0_L1I RFO          ACCESS:          0 HIT:          0 MISS:          0
cpu0_L1I PREFETCH     ACCESS:          0 HIT:          0 MISS:          0
cpu0_L1I WRITE        ACCESS:          0 HIT:          0 MISS:          0
cpu0_L1I TRANSLATION  ACCESS:          0 HIT:          0 MISS:          0
cpu0_L1I PREFETCH REQUESTED:          0 ISSUED:          0 USEFUL:          0 USELESS:          0
cpu0_L1I AVERAGE MISS LATENCY: 38.28 cycles
cpu0_L1I TOTAL        ACCESS:          0 HIT:          0 MISS:          0
cpu0_L1I LOAD         ACCESS:          0 HIT:          0 MISS:          0
cpu0_L1I RFO          ACCESS:          0 HIT:          0 MISS:          0
cpu0_L1I PREFETCH     ACCESS:          0 HIT:          0 MISS:          0
cpu0_L1I WRITE        ACCESS:          0 HIT:          0 MISS:          0
cpu0_L1I TRANSLATION  ACCESS:          0 HIT:          0 MISS:          0
cpu0_L1I PREFETCH REQUESTED:          0 ISSUED:          0 USEFUL:          0 USELESS:          0
cpu0_L1I AVERAGE MISS LATENCY: 38.28 cycles
cpu0_L1I TOTAL        ACCESS:          0 HIT:          0 MISS:          0
cpu0_L1I LOAD         ACCESS:          0 HIT:          0 MISS:          0
cpu0_L1I RFO          ACCESS:          0 HIT:          0 MISS:          0
cpu0_L1I PREFETCH     ACCESS:          0 HIT:          0 MISS:          0
cpu0_L1I WRITE        ACCESS:          0 HIT:          0 MISS:          0
cpu0_L1I TRANSLATION  ACCESS:          0 HIT:          0 MISS:          0
cpu0_L1I PREFETCH REQUESTED:          0 ISSUED:          0 USEFUL:          0 USELESS:          0
cpu0_L1I AVERAGE MISS LATENCY: 38.28 cycles
cpu0_L1I TOTAL        ACCESS:          0 HIT:          0 MISS:          0
cpu0_L1I LOAD         ACCESS:          0 HIT:          0 MISS:          0
cpu0_L1I RFO          ACCESS:          0 HIT:          0 MISS:          0
cpu0_L1I PREFETCH     ACCESS:          0 HIT:          0 MISS:          0
cpu0_L1I WRITE        ACCESS:          0 HIT:          0 MISS:          0
cpu0_L1I TRANSLATION  ACCESS:          0 HIT:          0 MISS:          0
cpu0_L1I PREFETCH REQUESTED:          0 ISSUED:          0 USEFUL:          0 USELESS:          0
cpu0_L1I AVERAGE MISS LATENCY: 38.28 cycles
cpu0_L2C TOTAL        ACCESS:    5077306 HIT:    2518198 MISS:    2559108
cpu0_L2C LOAD         ACCESS:    2538082 HIT:     854499 MISS:    1683583
cpu0_L2C RFO          ACCESS:     365323 HIT:     107300 MISS:     258023
cpu0_L2C PREFETCH     ACCESS:      27256 HIT:       8339 MISS:      18917
cpu0_L2C WRITE        ACCESS:    1401328 HIT:    1398930 MISS:       2398
cpu0_L2C TRANSLATION  ACCESS:     745317 HIT:     149130 MISS:     596187
cpu0_L2C PREFETCH REQUESTED:          0 ISSUED:          0 USEFUL:          0 USELESS:          0
cpu0_L2C AVERAGE MISS LATENCY: 404.8 cycles
cpu0_L2C TOTAL        ACCESS:          0 HIT:          0 MISS:          0
cpu0_L2C LOAD         ACCESS:          0 HIT:          0 MISS:          0
cpu0_L2C RFO          ACCESS:          0 HIT:          0 MISS:          0
cpu0_L2C PREFETCH     ACCESS:          0 HIT:          0 MISS:          0
cpu0_L2C WRITE        ACCESS:          0 HIT:          0 MISS:          0
cpu0_L2C TRANSLATION  ACCESS:          0 HIT:          0 MISS:          0
cpu0_L2C PREFETCH REQUESTED:          0 ISSUED:          0 USEFUL:          0 USELESS:          0
cpu0_L2C AVERAGE MISS LATENCY: 404.8 cycles
cpu0_L2C TOTAL        ACCESS:          0 HIT:          0 MISS:          0
cpu0_L2C LOAD         ACCESS:          0 HIT:          0 MISS:          0
cpu0_L2C RFO          ACCESS:          0 HIT:          0 MISS:          0
cpu0_L2C PREFETCH     ACCESS:          0 HIT:          0 MISS:          0
cpu0_L2C WRITE        ACCESS:          0 HIT:          0 MISS:          0
cpu0_L2C TRANSLATION  ACCESS:          0 HIT:          0 MISS:          0
cpu0_L2C PREFETCH REQUESTED:          0 ISSUED:          0 USEFUL:          0 USELESS:          0
cpu0_L2C AVERAGE MISS LATENCY: 404.8 cycles
cpu0_L2C TOTAL        ACCESS:          0 HIT:          0 MISS:          0
cpu0_L2C LOAD         ACCESS:          0 HIT:          0 MISS:          0
cpu0_L2C RFO          ACCESS:          0 HIT:          0 MISS:          0
cpu0_L2C PREFETCH     ACCESS:          0 HIT:          0 MISS:          0
cpu0_L2C WRITE        ACCESS:          0 HIT:          0 MISS:          0
cpu0_L2C TRANSLATION  ACCESS:          0 HIT:          0 MISS:          0
cpu0_L2C PREFETCH REQUESTED:          0 ISSUED:          0 USEFUL:          0 USELESS:          0
cpu0_L2C AVERAGE MISS LATENCY: 404.8 cycles
cpu0_STLB TOTAL        ACCESS:    3014321 HIT:    2371884 MISS:     642437
cpu0_STLB LOAD         ACCESS:    3014321 HIT:    2371884 MISS:     642437
cpu0_STLB RFO          ACCESS:          0 HIT:          0 MISS:          0
cpu0_STLB PREFETCH     ACCESS:          0 HIT:          0 MISS:          0
cpu0_STLB WRITE        ACCESS:          0 HIT:          0 MISS:          0
cpu0_STLB TRANSLATION  ACCESS:          0 HIT:          0 MISS:          0
cpu0_STLB PREFETCH REQUESTED:          0 ISSUED:          0 USEFUL:          0 USELESS:          0
cpu0_STLB AVERAGE MISS LATENCY: 441.4 cycles
cpu0_STLB TOTAL        ACCESS:          0 HIT:          0 MISS:          0
cpu0_STLB LOAD         ACCESS:          0 HIT:          0 MISS:          0
cpu0_STLB RFO          ACCESS:          0 HIT:          0 MISS:          0
cpu0_STLB PREFETCH     ACCESS:          0 HIT:          0 MISS:          0
cpu0_STLB WRITE        ACCESS:          0 HIT:          0 MISS:          0
cpu0_STLB TRANSLATION  ACCESS:          0 HIT:          0 MISS:          0
cpu0_STLB PREFETCH REQUESTED:          0 ISSUED:          0 USEFUL:          0 USELESS:          0
cpu0_STLB AVERAGE MISS LATENCY: 441.4 cycles
cpu0_STLB TOTAL        ACCESS:          0 HIT:          0 MISS:          0
cpu0_STLB LOAD         ACCESS:          0 HIT:          0 MISS:          0
cpu0_STLB RFO          ACCESS:          0 HIT:          0 MISS:          0
cpu0_STLB PREFETCH     ACCESS:          0 HIT:          0 MISS:          0
cpu0_STLB WRITE        ACCESS:          0 HIT:          0 MISS:          0
cpu0_STLB TRANSLATION  ACCESS:          0 HIT:          0 MISS:          0
cpu0_STLB PREFETCH REQUESTED:          0 ISSUED:          0 USEFUL:          0 USELESS:          0
cpu0_STLB AVERAGE MISS LATENCY: 441.4 cycles
cpu0_STLB TOTAL        ACCESS:          0 HIT:          0 MISS:          0
cpu0_STLB LOAD         ACCESS:          0 HIT:          0 MISS:          0
cpu0_STLB RFO          ACCESS:          0 HIT:          0 MISS:          0
cpu0_STLB PREFETCH     ACCESS:          0 HIT:          0 MISS:          0
cpu0_STLB WRITE        ACCESS:          0 HIT:          0 MISS:          0
cpu0_STLB TRANSLATION  ACCESS:          0 HIT:          0 MISS:          0
cpu0_STLB PREFETCH REQUESTED:          0 ISSUED:          0 USEFUL:          0 USELESS:          0
cpu0_STLB AVERAGE MISS LATENCY: 441.4 cycles
cpu1_DTLB TOTAL        ACCESS:          0 HIT:          0 MISS:          0
cpu1_DTLB LOAD         ACCESS:          0 HIT:          0 MISS:          0
cpu1_DTLB RFO          ACCESS:          0 HIT:          0 MISS:          0
cpu1_DTLB PREFETCH     ACCESS:          0 HIT:          0 MISS:          0
cpu1_DTLB WRITE        ACCESS:          0 HIT:          0 MISS:          0
cpu1_DTLB TRANSLATION  ACCESS:          0 HIT:          0 MISS:          0
cpu1_DTLB PREFETCH REQUESTED:          0 ISSUED:          0 USEFUL:          0 USELESS:          0
cpu1_DTLB AVERAGE MISS LATENCY: 21.99 cycles
cpu1_DTLB TOTAL        ACCESS:  125333614 HIT:  125313319 MISS:      20295
cpu1_DTLB LOAD         ACCESS:  125333614 HIT:  125313319 MISS:      20295
cpu1_DTLB RFO          ACCESS:          0 HIT:          0 MISS:          0
cpu1_DTLB PREFETCH     ACCESS:          0 HIT:          0 MISS:          0
cpu1_DTLB WRITE        ACCESS:          0 HIT:          0 MISS:          0
cpu1_DTLB TRANSLATION  ACCESS:          0 HIT:          0 MISS:          0
cpu1_DTLB PREFETCH REQUESTED:          0 ISSUED:          0 USEFUL:          0 USELESS:          0
cpu1_DTLB AVERAGE MISS LATENCY: 21.99 cycles
cpu1_DTLB TOTAL        ACCESS:          0 HIT:          0 MISS:          0
cpu1_DTLB LOAD         ACCESS:          0 HIT:          0 MISS:          0
cpu1_DTLB RFO          ACCESS:          0 HIT:          0 MISS:          0
cpu1_DTLB PREFETCH     ACCESS:          0 HIT:          0 MISS:          0
cpu1_DTLB WRITE        ACCESS:          0 HIT:          0 MISS:          0
cpu1_DTLB TRANSLATION  ACCESS:          0 HIT:          0 MISS:          0
cpu1_DTLB PREFETCH REQUESTED:          0 ISSUED:          0 USEFUL:          0 USELESS:          0
cpu1_DTLB AVERAGE MISS LATENCY: 21.99 cycles
cpu1_DTLB TOTAL        ACCESS:          0 HIT:          0 MISS:          0
cpu1_DTLB LOAD         ACCESS:          0 HIT:          0 MISS:          0
cpu1_DTLB RFO          ACCESS:          0 HIT:          0 MISS:          0
cpu1_DTLB PREFETCH     ACCESS:          0 HIT:          0 MISS:          0
cpu1_DTLB WRITE        ACCESS:          0 HIT:          0 MISS:          0
cpu1_DTLB TRANSLATION  ACCESS:          0 HIT:          0 MISS:          0
cpu1_DTLB PREFETCH REQUESTED:          0 ISSUED:          0 USEFUL:          0 USELESS:          0
cpu1_DTLB AVERAGE MISS LATENCY: 21.99 cycles
cpu1_ITLB TOTAL        ACCESS:          0 HIT:          0 MISS:          0
cpu1_ITLB LOAD         ACCESS:          0 HIT:          0 MISS:          0
cpu1_ITLB RFO          ACCESS:          0 HIT:          0 MISS:          0
cpu1_ITLB PREFETCH     ACCESS:          0 HIT:          0 MISS:          0
cpu1_ITLB WRITE        ACCESS:          0 HIT:          0 MISS:          0
cpu1_ITLB TRANSLATION  ACCESS:          0 HIT:          0 MISS:          0
cpu1_ITLB PREFETCH REQUESTED:          0 ISSUED:          0 USEFUL:          0 USELESS:          0
cpu1_ITLB AVERAGE MISS LATENCY: -nan cycles
cpu1_ITLB TOTAL        ACCESS:    3175503 HIT:    3175503 MISS:          0
cpu1_ITLB LOAD         ACCESS:    3175503 HIT:    3175503 MISS:          0
cpu1_ITLB RFO          ACCESS:          0 HIT:          0 MISS:          0
cpu1_ITLB PREFETCH     ACCESS:          0 HIT:          0 MISS:          0
cpu1_ITLB WRITE        ACCESS:          0 HIT:          0 MISS:          0
cpu1_ITLB TRANSLATION  ACCESS:          0 HIT:          0 MISS:          0
cpu1_ITLB PREFETCH REQUESTED:          0 ISSUED:          0 USEFUL:          0 USELESS:          0
cpu1_ITLB AVERAGE MISS LATENCY: -nan cycles
cpu1_ITLB TOTAL        ACCESS:          0 HIT:          0 MISS:          0
cpu1_ITLB LOAD         ACCESS:          0 HIT:          0 MISS:          0
cpu1_ITLB RFO          ACCESS:          0 HIT:          0 MISS:          0
cpu1_ITLB PREFETCH     ACCESS:          0 HIT:          0 MISS:          0
cpu1_ITLB WRITE        ACCESS:          0 HIT:          0 MISS:          0
cpu1_ITLB TRANSLATION  ACCESS:          0 HIT:          0 MISS:          0
cpu1_ITLB PREFETCH REQUESTED:          0 ISSUED:          0 USEFUL:          0 USELESS:          0
cpu1_ITLB AVERAGE MISS LATENCY: -nan cycles
cpu1_ITLB TOTAL        ACCESS:          0 HIT:          0 MISS:          0
cpu1_ITLB LOAD         ACCESS:          0 HIT:          0 MISS:          0
cpu1_ITLB RFO          ACCESS:          0 HIT:          0 MISS:          0
cpu1_ITLB PREFETCH     ACCESS:          0 HIT:          0 MISS:          0
cpu1_ITLB WRITE        ACCESS:          0 HIT:          0 MISS:          0
cpu1_ITLB TRANSLATION  ACCESS:          0 HIT:          0 MISS:          0
cpu1_ITLB PREFETCH REQUESTED:          0 ISSUED:          0 USEFUL:          0 USELESS:          0
cpu1_ITLB AVERAGE MISS LATENCY: -nan cycles
cpu1_L1D TOTAL        ACCESS:          0 HIT:          0 MISS:          0
cpu1_L1D LOAD         ACCESS:          0 HIT:          0 MISS:          0
cpu1_L1D RFO          ACCESS:          0 HIT:          0 MISS:          0
cpu1_L1D PREFETCH     ACCESS:          0 HIT:          0 MISS:          0
cpu1_L1D WRITE        ACCESS:          0 HIT:          0 MISS:          0
cpu1_L1D TRANSLATION  ACCESS:          0 HIT:          0 MISS:          0
cpu1_L1D PREFETCH REQUESTED:    4207080 ISSUED:    2034070 USEFUL:      12611 USELESS:       1446
cpu1_L1D AVERAGE MISS LATENCY: 288.5 cycles
cpu1_L1D TOTAL        ACCESS:  186528027 HIT:  185109438 MISS:    1418589
cpu1_L1D LOAD         ACCESS:  146140179 HIT:  146121944 MISS:      18235
cpu1_L1D RFO          ACCESS:          0 HIT:          0 MISS:          0
cpu1_L1D PREFETCH     ACCESS:    2034070 HIT:    1629230 MISS:     404840
cpu1_L1D WRITE        ACCESS:   38351353 HIT:   37356095 MISS:     995258
cpu1_L1D TRANSLATION  ACCESS:       2425 HIT:       2169 MISS:        256
cpu1_L1D PREFETCH REQUESTED:    4207080 ISSUED:    2034070 USEFUL:      12611 USELESS:       1446
cpu1_L1D AVERAGE MISS LATENCY: 288.5 cycles
cpu1_L1D TOTAL        ACCESS:          0 HIT:          0 MISS:          0
cpu1_L1D LOAD         ACCESS:          0 HIT:          0 MISS:          0
cpu1_L1D RFO          ACCESS:          0 HIT:          0 MISS:          0
cpu1_L1D PREFETCH     ACCESS:          0 HIT:          0 MISS:          0
cpu1_L1D WRITE        ACCESS:          0 HIT:          0 MISS:          0
cpu1_L1D TRANSLATION  ACCESS:          0 HIT:          0 MISS:          0
cpu1_L1D PREFETCH REQUESTED:    4207080 ISSUED:    2034070 USEFUL:      12611 USELESS:       1446
cpu1_L1D AVERAGE MISS LATENCY: 288.5 cycles
cpu1_L1D TOTAL        ACCESS:          0 HIT:          0 MISS:          0
cpu1_L1D LOAD         ACCESS:          0 HIT:          0 MISS:          0
cpu1_L1D RFO          ACCESS:          0 HIT:          0 MISS:          0
cpu1_L1D PREFETCH     ACCESS:          0 HIT:          0 MISS:          0
cpu1_L1D WRITE        ACCESS:          0 HIT:          0 MISS:          0
cpu1_L1D TRANSLATION  ACCESS:          0 HIT:          0 MISS:          0
cpu1_L1D PREFETCH REQUESTED:    4207080 ISSUED:    2034070 USEFUL:      12611 USELESS:       1446
cpu1_L1D AVERAGE MISS LATENCY: 288.5 cycles
cpu1_L1I TOTAL        ACCESS:          0 HIT:          0 MISS:          0
cpu1_L1I LOAD         ACCESS:          0 HIT:          0 MISS:          0
cpu1_L1I RFO          ACCESS:          0 HIT:          0 MISS:          0
cpu1_L1I PREFETCH     ACCESS:          0 HIT:          0 MISS:          0
cpu1_L1I WRITE        ACCESS:          0 HIT:          0 MISS:          0
cpu1_L1I TRANSLATION  ACCESS:          0 HIT:          0 MISS:          0
cpu1_L1I PREFETCH REQUESTED:          0 ISSUED:          0 USEFUL:          0 USELESS:          0
cpu1_L1I AVERAGE MISS LATENCY: -nan cycles
cpu1_L1I TOTAL        ACCESS:    3825261 HIT:    3825261 MISS:          0
cpu1_L1I LOAD         ACCESS:    3825261 HIT:    3825261 MISS:          0
cpu1_L1I RFO          ACCESS:          0 HIT:          0 MISS:          0
cpu1_L1I PREFETCH     ACCESS:          0 HIT:          0 MISS:          0
cpu1_L1I WRITE        ACCESS:          0 HIT:          0 MISS:          0
cpu1_L1I TRANSLATION  ACCESS:          0 HIT:          0 MISS:          0
cpu1_L1I PREFETCH REQUESTED:          0 ISSUED:          0 USEFUL:          0 USELESS:          0
cpu1_L1I AVERAGE MISS LATENCY: -nan cycles
cpu1_L1I TOTAL        ACCESS:          0 HIT:          0 MISS:          0
cpu1_L1I LOAD         ACCESS:          0 HIT:          0 MISS:          0
cpu1_L1I RFO          ACCESS:          0 HIT:          0 MISS:          0
cpu1_L1I PREFETCH     ACCESS:          0 HIT:          0 MISS:          0
cpu1_L1I WRITE        ACCESS:          0 HIT:          0 MISS:          0
cpu1_L1I TRANSLATION  ACCESS:          0 HIT:          0 MISS:          0
cpu1_L1I PREFETCH REQUESTED:          0 ISSUED:          0 USEFUL:          0 USELESS:          0
cpu1_L1I AVERAGE MISS LATENCY: -nan cycles
cpu1_L1I TOTAL        ACCESS:          0 HIT:          0 MISS:          0
cpu1_L1I LOAD         ACCESS:          0 HIT:          0 MISS:          0
cpu1_L1I RFO          ACCESS:          0 HIT:          0 MISS:          0
cpu1_L1I PREFETCH     ACCESS:          0 HIT:          0 MISS:          0
cpu1_L1I WRITE        ACCESS:          0 HIT:          0 MISS:          0
cpu1_L1I TRANSLATION  ACCESS:          0 HIT:          0 MISS:          0
cpu1_L1I PREFETCH REQUESTED:          0 ISSUED:          0 USEFUL:          0 USELESS:          0
cpu1_L1I AVERAGE MISS LATENCY: -nan cycles
cpu1_L2C TOTAL        ACCESS:          0 HIT:          0 MISS:          0
cpu1_L2C LOAD         ACCESS:          0 HIT:          0 MISS:          0
cpu1_L2C RFO          ACCESS:          0 HIT:          0 MISS:          0
cpu1_L2C PREFETCH     ACCESS:          0 HIT:          0 MISS:          0
cpu1_L2C WRITE        ACCESS:          0 HIT:          0 MISS:          0
cpu1_L2C TRANSLATION  ACCESS:          0 HIT:          0 MISS:          0
cpu1_L2C PREFETCH REQUESTED:          0 ISSUED:          0 USEFUL:          0 USELESS:          0
cpu1_L2C AVERAGE MISS LATENCY: 2946 cycles
cpu1_L2C TOTAL        ACCESS:     678726 HIT:     494767 MISS:     183959
cpu1_L2C LOAD         ACCESS:      15002 HIT:      12709 MISS:       2293
cpu1_L2C RFO          ACCESS:     129913 HIT:       2420 MISS:     127493
cpu1_L2C PREFETCH     ACCESS:     403488 HIT:     349500 MISS:      53988
cpu1_L2C WRITE        ACCESS:     130067 HIT:     129898 MISS:        169
cpu1_L2C TRANSLATION  ACCESS:        256 HIT:        240 MISS:         16
cpu1_L2C PREFETCH REQUESTED:          0 ISSUED:          0 USEFUL:          0 USELESS:          0
cpu1_L2C AVERAGE MISS LATENCY: 2946 cycles
cpu1_L2C TOTAL        ACCESS:          0 HIT:          0 MISS:          0
cpu1_L2C LOAD         ACCESS:          0 HIT:          0 MISS:          0
cpu1_L2C RFO          ACCESS:          0 HIT:          0 MISS:          0
cpu1_L2C PREFETCH     ACCESS:          0 HIT:          0 MISS:          0
cpu1_L2C WRITE        ACCESS:          0 HIT:          0 MISS:          0
cpu1_L2C TRANSLATION  ACCESS:          0 HIT:          0 MISS:          0
cpu1_L2C PREFETCH REQUESTED:          0 ISSUED:          0 USEFUL:          0 USELESS:          0
cpu1_L2C AVERAGE MISS LATENCY: 2946 cycles
cpu1_L2C TOTAL        ACCESS:          0 HIT:          0 MISS:          0
cpu1_L2C LOAD         ACCESS:          0 HIT:          0 MISS:          0
cpu1_L2C RFO          ACCESS:          0 HIT:          0 MISS:          0
cpu1_L2C PREFETCH     ACCESS:          0 HIT:          0 MISS:          0
cpu1_L2C WRITE        ACCESS:          0 HIT:          0 MISS:          0
cpu1_L2C TRANSLATION  ACCESS:          0 HIT:          0 MISS:          0
cpu1_L2C PREFETCH REQUESTED:          0 ISSUED:          0 USEFUL:          0 USELESS:          0
cpu1_L2C AVERAGE MISS LATENCY: 2946 cycles
cpu1_STLB TOTAL        ACCESS:          0 HIT:          0 MISS:          0
cpu1_STLB LOAD         ACCESS:          0 HIT:          0 MISS:          0
cpu1_STLB RFO          ACCESS:          0 HIT:          0 MISS:          0
cpu1_STLB PREFETCH     ACCESS:          0 HIT:          0 MISS:          0
cpu1_STLB WRITE        ACCESS:          0 HIT:          0 MISS:          0
cpu1_STLB TRANSLATION  ACCESS:          0 HIT:          0 MISS:          0
cpu1_STLB PREFETCH REQUESTED:          0 ISSUED:          0 USEFUL:          0 USELESS:          0
cpu1_STLB AVERAGE MISS LATENCY: 232.3 cycles
cpu1_STLB TOTAL        ACCESS:       2561 HIT:        141 MISS:       2420
cpu1_STLB LOAD         ACCESS:       2561 HIT:        141 MISS:       2420
cpu1_STLB RFO          ACCESS:          0 HIT:          0 MISS:          0
cpu1_STLB PREFETCH     ACCESS:          0 HIT:          0 MISS:          0
cpu1_STLB WRITE        ACCESS:          0 HIT:          0 MISS:          0
cpu1_STLB TRANSLATION  ACCESS:          0 HIT:          0 MISS:          0
cpu1_STLB PREFETCH REQUESTED:          0 ISSUED:          0 USEFUL:          0 USELESS:          0
cpu1_STLB AVERAGE MISS LATENCY: 232.3 cycles
cpu1_STLB TOTAL        ACCESS:          0 HIT:          0 MISS:          0
cpu1_STLB LOAD         ACCESS:          0 HIT:          0 MISS:          0
cpu1_STLB RFO          ACCESS:          0 HIT:          0 MISS:          0
cpu1_STLB PREFETCH     ACCESS:          0 HIT:          0 MISS:          0
cpu1_STLB WRITE        ACCESS:          0 HIT:          0 MISS:          0
cpu1_STLB TRANSLATION  ACCESS:          0 HIT:          0 MISS:          0
cpu1_STLB PREFETCH REQUESTED:          0 ISSUED:          0 USEFUL:          0 USELESS:          0
cpu1_STLB AVERAGE MISS LATENCY: 232.3 cycles
cpu1_STLB TOTAL        ACCESS:          0 HIT:          0 MISS:          0
cpu1_STLB LOAD         ACCESS:          0 HIT:          0 MISS:          0
cpu1_STLB RFO          ACCESS:          0 HIT:          0 MISS:          0
cpu1_STLB PREFETCH     ACCESS:          0 HIT:          0 MISS:          0
cpu1_STLB WRITE        ACCESS:          0 HIT:          0 MISS:          0
cpu1_STLB TRANSLATION  ACCESS:          0 HIT:          0 MISS:          0
cpu1_STLB PREFETCH REQUESTED:          0 ISSUED:          0 USEFUL:          0 USELESS:          0
cpu1_STLB AVERAGE MISS LATENCY: 232.3 cycles
cpu2_DTLB TOTAL        ACCESS:          0 HIT:          0 MISS:          0
cpu2_DTLB LOAD         ACCESS:          0 HIT:          0 MISS:          0
cpu2_DTLB RFO          ACCESS:          0 HIT:          0 MISS:          0
cpu2_DTLB PREFETCH     ACCESS:          0 HIT:          0 MISS:          0
cpu2_DTLB WRITE        ACCESS:          0 HIT:          0 MISS:          0
cpu2_DTLB TRANSLATION  ACCESS:          0 HIT:          0 MISS:          0
cpu2_DTLB PREFETCH REQUESTED:          0 ISSUED:          0 USEFUL:          0 USELESS:          0
cpu2_DTLB AVERAGE MISS LATENCY: 53.09 cycles
cpu2_DTLB TOTAL        ACCESS:          0 HIT:          0 MISS:          0
cpu2_DTLB LOAD         ACCESS:          0 HIT:          0 MISS:          0
cpu2_DTLB RFO          ACCESS:          0 HIT:          0 MISS:          0
cpu2_DTLB PREFETCH     ACCESS:          0 HIT:          0 MISS:          0
cpu2_DTLB WRITE        ACCESS:          0 HIT:          0 MISS:          0
cpu2_DTLB TRANSLATION  ACCESS:          0 HIT:          0 MISS:          0
cpu2_DTLB PREFETCH REQUESTED:          0 ISSUED:          0 USEFUL:          0 USELESS:          0
cpu2_DTLB AVERAGE MISS LATENCY: 53.09 cycles
cpu2_DTLB TOTAL        ACCESS:  118760790 HIT:  118580659 MISS:     180131
cpu2_DTLB LOAD         ACCESS:  118760790 HIT:  118580659 MISS:     180131
cpu2_DTLB RFO          ACCESS:          0 HIT:          0 MISS:          0
cpu2_DTLB PREFETCH     ACCESS:          0 HIT:          0 MISS:          0
cpu2_DTLB WRITE        ACCESS:          0 HIT:          0 MISS:          0
cpu2_DTLB TRANSLATION  ACCESS:          0 HIT:          0 MISS:          0
cpu2_DTLB PREFETCH REQUESTED:          0 ISSUED:          0 USEFUL:          0 USELESS:          0
cpu2_DTLB AVERAGE MISS LATENCY: 53.09 cycles
cpu2_DTLB TOTAL        ACCESS:          0 HIT:          0 MISS:          0
cpu2_DTLB LOAD         ACCESS:          0 HIT:          0 MISS:          0
cpu2_DTLB RFO          ACCESS:          0 HIT:          0 MISS:          0
cpu2_DTLB PREFETCH     ACCESS:          0 HIT:          0 MISS:          0
cpu2_DTLB WRITE        ACCESS:          0 HIT:          0 MISS:          0
cpu2_DTLB TRANSLATION  ACCESS:          0 HIT:          0 MISS:          0
cpu2_DTLB PREFETCH REQUESTED:          0 ISSUED:          0 USEFUL:          0 USELESS:          0
cpu2_DTLB AVERAGE MISS LATENCY: 53.09 cycles
cpu2_ITLB TOTAL        ACCESS:          0 HIT:          0 MISS:          0
cpu2_ITLB LOAD         ACCESS:          0 HIT:          0 MISS:          0
cpu2_ITLB RFO          ACCESS:          0 HIT:          0 MISS:          0
cpu2_ITLB PREFETCH     ACCESS:          0 HIT:          0 MISS:          0
cpu2_ITLB WRITE        ACCESS:          0 HIT:          0 MISS:          0
cpu2_ITLB TRANSLATION  ACCESS:          0 HIT:          0 MISS:          0
cpu2_ITLB PREFETCH REQUESTED:          0 ISSUED:          0 USEFUL:          0 USELESS:          0
cpu2_ITLB AVERAGE MISS LATENCY: 703 cycles
cpu2_ITLB TOTAL        ACCESS:          0 HIT:          0 MISS:          0
cpu2_ITLB LOAD         ACCESS:          0 HIT:          0 MISS:          0
cpu2_ITLB RFO          ACCESS:          0 HIT:          0 MISS:          0
cpu2_ITLB PREFETCH     ACCESS:          0 HIT:          0 MISS:          0
cpu2_ITLB WRITE        ACCESS:          0 HIT:          0 MISS:          0
cpu2_ITLB TRANSLATION  ACCESS:          0 HIT:          0 MISS:          0
cpu2_ITLB PREFETCH REQUESTED:          0 ISSUED:          0 USEFUL:          0 USELESS:          0
cpu2_ITLB AVERAGE MISS LATENCY: 703 cycles
cpu2_ITLB TOTAL        ACCESS:    3929597 HIT:    3929589 MISS:          8
cpu2_ITLB LOAD         ACCESS:    3929597 HIT:    3929589 MISS:          8
cpu2_ITLB RFO          ACCESS:          0 HIT:          0 MISS:          0
cpu2_ITLB PREFETCH     ACCESS:          0 HIT:          0 MISS:          0
cpu2_ITLB WRITE        ACCESS:          0 HIT:          0 MISS:          0
cpu2_ITLB TRANSLATION  ACCESS:          0 HIT:          0 MISS:          0
cpu2_ITLB PREFETCH REQUESTED:          0 ISSUED:          0 USEFUL:          0 USELESS:          0
cpu2_ITLB AVERAGE MISS LATENCY: 703 cycles
cpu2_ITLB TOTAL        ACCESS:          0 HIT:          0 MISS:          0
cpu2_ITLB LOAD         ACCESS:          0 HIT:          0 MISS:          0
cpu2_ITLB RFO          ACCESS:          0 HIT:          0 MISS:          0
cpu2_ITLB PREFETCH     ACCESS:          0 HIT:          0 MISS:          0
cpu2_ITLB WRITE        ACCESS:          0 HIT:          0 MISS:          0
cpu2_ITLB TRANSLATION  ACCESS:          0 HIT:          0 MISS:          0
[...]
cpu2_L2C PREFETCH     ACCESS:          0 HIT:          0 MISS:          0
cpu2_L2C WRITE        ACCESS:          0 HIT:          0 MISS:          0
cpu2_L2C TRANSLATION  ACCESS:          0 HIT:          0 MISS:          0
cpu2_L2C PREFETCH REQUESTED:          0 ISSUED:          0 USEFUL:          0 USELESS:          0
cpu2_L2C AVERAGE MISS LATENCY: 918.1 cycles
cpu2_L2C TOTAL        ACCESS:          0 HIT:          0 MISS:          0
cpu2_L2C LOAD         ACCESS:          0 HIT:          0 MISS:          0
cpu2_L2C RFO          ACCESS:          0 HIT:          0 MISS:          0
cpu2_L2C PREFETCH     ACCESS:          0 HIT:          0 MISS:          0
cpu2_L2C WRITE        ACCESS:          0 HIT:          0 MISS:          0
cpu2_L2C TRANSLATION  ACCESS:          0 HIT:          0 MISS:          0
cpu2_L2C PREFETCH REQUESTED:          0 ISSUED:          0 USEFUL:          0 USELESS:          0
cpu2_L2C AVERAGE MISS LATENCY: 918.1 cycles
cpu2_L2C TOTAL        ACCESS:     140069 HIT:     104492 MISS:      35577
cpu2_L2C LOAD         ACCESS:       2154 HIT:       1062 MISS:       1092
cpu2_L2C RFO          ACCESS:       8727 HIT:        536 MISS:       8191
cpu2_L2C PREFETCH     ACCESS:     120361 HIT:      94116 MISS:      26245
cpu2_L2C WRITE        ACCESS:       8778 HIT:       8778 MISS:          0
cpu2_L2C TRANSLATION  ACCESS:         49 HIT:          0 MISS:         49
cpu2_L2C PREFETCH REQUESTED:          0 ISSUED:          0 USEFUL:          0 USELESS:          0
cpu2_L2C AVERAGE MISS LATENCY: 918.1 cycles
cpu2_L2C TOTAL        ACCESS:          0 HIT:          0 MISS:          0
cpu2_L2C LOAD         ACCESS:          0 HIT:          0 MISS:          0
cpu2_L2C RFO          ACCESS:          0 HIT:          0 MISS:          0
cpu2_L2C PREFETCH     ACCESS:          0 HIT:          0 MISS:          0
cpu2_L2C WRITE        ACCESS:          0 HIT:          0 MISS:          0
cpu2_L2C TRANSLATION  ACCESS:          0 HIT:          0 MISS:          0
cpu2_L2C PREFETCH REQUESTED:          0 ISSUED:          0 USEFUL:          0 USELESS:          0
cpu2_L2C AVERAGE MISS LATENCY: 918.1 cycles
cpu2_STLB TOTAL        ACCESS:          0 HIT:          0 MISS:          0
cpu2_STLB LOAD         ACCESS:          0 HIT:          0 MISS:          0
cpu2_STLB RFO          ACCESS:          0 HIT:          0 MISS:          0
cpu2_STLB PREFETCH     ACCESS:          0 HIT:          0 MISS:          0
cpu2_STLB WRITE        ACCESS:          0 HIT:          0 MISS:          0
cpu2_STLB TRANSLATION  ACCESS:          0 HIT:          0 MISS:          0
cpu2_STLB PREFETCH REQUESTED:          0 ISSUED:          0 USEFUL:          0 USELESS:          0
cpu2_STLB AVERAGE MISS LATENCY: 441.1 cycles
cpu2_STLB TOTAL        ACCESS:          0 HIT:          0 MISS:          0
cpu2_STLB LOAD         ACCESS:          0 HIT:          0 MISS:          0
cpu2_STLB RFO          ACCESS:          0 HIT:          0 MISS:          0
cpu2_STLB PREFETCH     ACCESS:          0 HIT:          0 MISS:          0
cpu2_STLB WRITE        ACCESS:          0 HIT:          0 MISS:          0
cpu2_STLB TRANSLATION  ACCESS:          0 HIT:          0 MISS:          0
cpu2_STLB PREFETCH REQUESTED:          0 ISSUED:          0 USEFUL:          0 USELESS:          0
cpu2_STLB AVERAGE MISS LATENCY: 441.1 cycles
cpu2_STLB TOTAL        ACCESS:        484 HIT:         49 MISS:        435
cpu2_STLB LOAD         ACCESS:        484 HIT:         49 MISS:        435
cpu2_STLB RFO          ACCESS:          0 HIT:          0 MISS:          0
cpu2_STLB PREFETCH     ACCESS:          0 HIT:          0 MISS:          0
cpu2_STLB WRITE        ACCESS:          0 HIT:          0 MISS:          0
cpu2_STLB TRANSLATION  ACCESS:          0 HIT:          0 MISS:          0
cpu2_STLB PREFETCH REQUESTED:          0 ISSUED:          0 USEFUL:          0 USELESS:          0
cpu2_STLB AVERAGE MISS LATENCY: 441.1 cycles
cpu2_STLB TOTAL        ACCESS:          0 HIT:          0 MISS:          0
cpu2_STLB LOAD         ACCESS:          0 HIT:          0 MISS:          0
cpu2_STLB RFO          ACCESS:          0 HIT:          0 MISS:          0
cpu2_STLB PREFETCH     ACCESS:          0 HIT:          0 MISS:          0
cpu2_STLB WRITE        ACCESS:          0 HIT:          0 MISS:          0
cpu2_STLB TRANSLATION  ACCESS:          0 HIT:          0 MISS:          0
cpu2_STLB PREFETCH REQUESTED:          0 ISSUED:          0 USEFUL:          0 USELESS:          0
cpu2_STLB AVERAGE MISS LATENCY: 441.1 cycles
cpu3_DTLB TOTAL        ACCESS:          0 HIT:          0 MISS:          0
cpu3_DTLB LOAD         ACCESS:          0 HIT:          0 MISS:          0
cpu3_DTLB RFO          ACCESS:          0 HIT:          0 MISS:          0
cpu3_DTLB PREFETCH     ACCESS:          0 HIT:          0 MISS:          0
cpu3_DTLB WRITE        ACCESS:          0 HIT:          0 MISS:          0
cpu3_DTLB TRANSLATION  ACCESS:          0 HIT:          0 MISS:          0
cpu3_DTLB PREFETCH REQUESTED:          0 ISSUED:          0 USEFUL:          0 USELESS:          0
cpu3_DTLB AVERAGE MISS LATENCY: 8.722 cycles
cpu3_DTLB TOTAL        ACCESS:          0 HIT:          0 MISS:          0
cpu3_DTLB LOAD         ACCESS:          0 HIT:          0 MISS:          0
cpu3_DTLB RFO          ACCESS:          0 HIT:          0 MISS:          0
cpu3_DTLB PREFETCH     ACCESS:          0 HIT:          0 MISS:          0
cpu3_DTLB WRITE        ACCESS:          0 HIT:          0 MISS:          0
cpu3_DTLB TRANSLATION  ACCESS:          0 HIT:          0 MISS:          0
cpu3_DTLB PREFETCH REQUESTED:          0 ISSUED:          0 USEFUL:          0 USELESS:          0
cpu3_DTLB AVERAGE MISS LATENCY: 8.722 cycles
cpu3_DTLB TOTAL        ACCESS:          0 HIT:          0 MISS:          0
cpu3_DTLB LOAD         ACCESS:          0 HIT:          0 MISS:          0
cpu3_DTLB RFO          ACCESS:          0 HIT:          0 MISS:          0
cpu3_DTLB PREFETCH     ACCESS:          0 HIT:          0 MISS:          0
cpu3_DTLB WRITE        ACCESS:          0 HIT:          0 MISS:          0
cpu3_DTLB TRANSLATION  ACCESS:          0 HIT:          0 MISS:          0
cpu3_DTLB PREFETCH REQUESTED:          0 ISSUED:          0 USEFUL:          0 USELESS:          0
cpu3_DTLB AVERAGE MISS LATENCY: 8.722 cycles
cpu3_DTLB TOTAL        ACCESS:   17833522 HIT:   17823105 MISS:      10417
cpu3_DTLB LOAD         ACCESS:   17833522 HIT:   17823105 MISS:      10417
cpu3_DTLB RFO          ACCESS:          0 HIT:          0 MISS:          0
cpu3_DTLB PREFETCH     ACCESS:          0 HIT:          0 MISS:          0
cpu3_DTLB WRITE        ACCESS:          0 HIT:          0 MISS:          0
cpu3_DTLB TRANSLATION  ACCESS:          0 HIT:          0 MISS:          0
cpu3_DTLB PREFETCH REQUESTED:          0 ISSUED:          0 USEFUL:          0 USELESS:          0
cpu3_DTLB AVERAGE MISS LATENCY: 8.722 cycles
cpu3_ITLB TOTAL        ACCESS:          0 HIT:          0 MISS:          0
cpu3_ITLB LOAD         ACCESS:          0 HIT:          0 MISS:          0
cpu3_ITLB RFO          ACCESS:          0 HIT:          0 MISS:          0
cpu3_ITLB PREFETCH     ACCESS:          0 HIT:          0 MISS:          0
cpu3_ITLB WRITE        ACCESS:          0 HIT:          0 MISS:          0
cpu3_ITLB TRANSLATION  ACCESS:          0 HIT:          0 MISS:          0
cpu3_ITLB PREFETCH REQUESTED:          0 ISSUED:          0 USEFUL:          0 USELESS:          0
cpu3_ITLB AVERAGE MISS LATENCY: 394.2 cycles
cpu3_ITLB TOTAL        ACCESS:          0 HIT:          0 MISS:          0
cpu3_ITLB LOAD         ACCESS:          0 HIT:          0 MISS:          0
cpu3_ITLB RFO          ACCESS:          0 HIT:          0 MISS:          0
cpu3_ITLB PREFETCH     ACCESS:          0 HIT:          0 MISS:          0
cpu3_ITLB WRITE        ACCESS:          0 HIT:          0 MISS:          0
cpu3_ITLB TRANSLATION  ACCESS:          0 HIT:          0 MISS:          0
cpu3_ITLB PREFETCH REQUESTED:          0 ISSUED:          0 USEFUL:          0 USELESS:          0
cpu3_ITLB AVERAGE MISS LATENCY: 394.2 cycles
cpu3_ITLB TOTAL        ACCESS:          0 HIT:          0 MISS:          0
cpu3_ITLB LOAD         ACCESS:          0 HIT:          0 MISS:          0
cpu3_ITLB RFO          ACCESS:          0 HIT:          0 MISS:          0
cpu3_ITLB PREFETCH     ACCESS:          0 HIT:          0 MISS:          0
cpu3_ITLB WRITE        ACCESS:          0 HIT:          0 MISS:          0
cpu3_ITLB TRANSLATION  ACCESS:          0 HIT:          0 MISS:          0
cpu3_ITLB PREFETCH REQUESTED:          0 ISSUED:          0 USEFUL:          0 USELESS:          0
cpu3_ITLB AVERAGE MISS LATENCY: 394.2 cycles
cpu3_ITLB TOTAL        ACCESS:     497739 HIT:     497739 MISS:          0
cpu3_ITLB LOAD         ACCESS:     497739 HIT:     497739 MISS:          0
cpu3_ITLB RFO          ACCESS:          0 HIT:          0 MISS:          0
cpu3_ITLB PREFETCH     ACCESS:          0 HIT:          0 MISS:          0
cpu3_ITLB WRITE        ACCESS:          0 HIT:          0 MISS:          0
cpu3_ITLB TRANSLATION  ACCESS:          0 HIT:          0 MISS:          0
cpu3_ITLB PREFETCH REQUESTED:          0 ISSUED:          0 USEFUL:          0 USELESS:          0
cpu3_ITLB AVERAGE MISS LATENCY: 394.2 cycles
cpu3_L1D TOTAL        ACCESS:          0 HIT:          0 MISS:          0
cpu3_L1D LOAD         ACCESS:          0 HIT:          0 MISS:          0
cpu3_L1D RFO          ACCESS:          0 HIT:          0 MISS:          0
cpu3_L1D PREFETCH     ACCESS:          0 HIT:          0 MISS:          0
cpu3_L1D WRITE        ACCESS:          0 HIT:          0 MISS:          0
cpu3_L1D TRANSLATION  ACCESS:          0 HIT:          0 MISS:          0
cpu3_L1D PREFETCH REQUESTED:  108252459 ISSUED:   10051415 USEFUL:     963723 USELESS:     202249
cpu3_L1D AVERAGE MISS LATENCY: 182.9 cycles
cpu3_L1D TOTAL        ACCESS:          0 HIT:          0 MISS:          0
cpu3_L1D LOAD         ACCESS:          0 HIT:          0 MISS:          0
cpu3_L1D RFO          ACCESS:          0 HIT:          0 MISS:          0
cpu3_L1D PREFETCH     ACCESS:          0 HIT:          0 MISS:          0
cpu3_L1D WRITE        ACCESS:          0 HIT:          0 MISS:          0
cpu3_L1D TRANSLATION  ACCESS:          0 HIT:          0 MISS:          0
cpu3_L1D PREFETCH REQUESTED:  108252459 ISSUED:   10051415 USEFUL:     963723 USELESS:     202249
cpu3_L1D AVERAGE MISS LATENCY: 182.9 cycles
cpu3_L1D TOTAL        ACCESS:          0 HIT:          0 MISS:          0
cpu3_L1D LOAD         ACCESS:          0 HIT:          0 MISS:          0
cpu3_L1D RFO          ACCESS:          0 HIT:          0 MISS:          0
cpu3_L1D PREFETCH     ACCESS:          0 HIT:          0 MISS:          0
cpu3_L1D WRITE        ACCESS:          0 HIT:          0 MISS:          0
cpu3_L1D TRANSLATION  ACCESS:          0 HIT:          0 MISS:          0
cpu3_L1D PREFETCH REQUESTED:  108252459 ISSUED:   10051415 USEFUL:     963723 USELESS:     202249
cpu3_L1D AVERAGE MISS LATENCY: 182.9 cycles
cpu3_L1D TOTAL        ACCESS:   21914474 HIT:   21896172 MISS:      18302
cpu3_L1D LOAD         ACCESS:   16328180 HIT:   16326316 MISS:       1864
cpu3_L1D RFO          ACCESS:          0 HIT:          0 MISS:          0
cpu3_L1D PREFETCH     ACCESS:      23822 HIT:      13494 MISS:      10328
cpu3_L1D WRITE        ACCESS:    5562301 HIT:    5556345 MISS:       5956
cpu3_L1D TRANSLATION  ACCESS:        171 HIT:         17 MISS:        154
cpu3_L1D PREFETCH REQUESTED:  108252459 ISSUED:   10051415 USEFUL:     963723 USELESS:     202249
cpu3_L1D AVERAGE MISS LATENCY: 182.9 cycles
cpu3_L1I TOTAL        ACCESS:          0 HIT:          0 MISS:          0
cpu3_L1I LOAD         ACCESS:          0 HIT:          0 MISS:          0
cpu3_L1I RFO          ACCESS:          0 HIT:          0 MISS:          0
cpu3_L1I PREFETCH     ACCESS:          0 HIT:          0 MISS:          0
cpu3_L1I WRITE        ACCESS:          0 HIT:          0 MISS:          0
cpu3_L1I TRANSLATION  ACCESS:          0 HIT:          0 MISS:          0
cpu3_L1I PREFETCH REQUESTED:          0 ISSUED:          0 USEFUL:          0 USELESS:          0
cpu3_L1I AVERAGE MISS LATENCY: 16.77 cycles
cpu3_L1I TOTAL        ACCESS:          0 HIT:          0 MISS:          0
cpu3_L1I LOAD         ACCESS:          0 HIT:          0 MISS:          0
cpu3_L1I RFO          ACCESS:          0 HIT:          0 MISS:          0
cpu3_L1I PREFETCH     ACCESS:          0 HIT:          0 MISS:          0
cpu3_L1I WRITE        ACCESS:          0 HIT:          0 MISS:          0
cpu3_L1I TRANSLATION  ACCESS:          0 HIT:          0 MISS:          0
cpu3_L1I PREFETCH REQUESTED:          0 ISSUED:          0 USEFUL:          0 USELESS:          0
cpu3_L1I AVERAGE MISS LATENCY: 16.77 cycles
cpu3_L1I TOTAL        ACCESS:          0 HIT:          0 MISS:          0
cpu3_L1I LOAD         ACCESS:          0 HIT:          0 MISS:          0
cpu3_L1I RFO          ACCESS:          0 HIT:          0 MISS:          0
cpu3_L1I PREFETCH     ACCESS:          0 HIT:          0 MISS:          0
cpu3_L1I WRITE        ACCESS:          0 HIT:          0 MISS:          0
cpu3_L1I TRANSLATION  ACCESS:          0 HIT:          0 MISS:          0
cpu3_L1I PREFETCH REQUESTED:          0 ISSUED:          0 USEFUL:          0 USELESS:          0
cpu3_L1I AVERAGE MISS LATENCY: 16.77 cycles
cpu3_L1I TOTAL        ACCESS:     550993 HIT:     549563 MISS:       1430
cpu3_L1I LOAD         ACCESS:     550993 HIT:     549563 MISS:       1430
cpu3_L1I RFO          ACCESS:          0 HIT:          0 MISS:          0
cpu3_L1I PREFETCH     ACCESS:          0 HIT:          0 MISS:          0
cpu3_L1I WRITE        ACCESS:          0 HIT:          0 MISS:          0
cpu3_L1I TRANSLATION  ACCESS:          0 HIT:          0 MISS:          0
cpu3_L1I PREFETCH REQUESTED:          0 ISSUED:          0 USEFUL:          0 USELESS:          0
cpu3_L1I AVERAGE MISS LATENCY: 16.77 cycles
cpu3_L2C TOTAL        ACCESS:          0 HIT:          0 MISS:          0
cpu3_L2C LOAD         ACCESS:          0 HIT:          0 MISS:          0
cpu3_L2C RFO          ACCESS:          0 HIT:          0 MISS:          0
cpu3_L2C PREFETCH     ACCESS:          0 HIT:          0 MISS:          0
cpu3_L2C WRITE        ACCESS:          0 HIT:          0 MISS:          0
cpu3_L2C TRANSLATION  ACCESS:          0 HIT:          0 MISS:          0
cpu3_L2C PREFETCH REQUESTED:          0 ISSUED:          0 USEFUL:          0 USELESS:          0
cpu3_L2C AVERAGE MISS LATENCY: 1041 cycles
cpu3_L2C TOTAL        ACCESS:          0 HIT:          0 MISS:          0
cpu3_L2C LOAD         ACCESS:          0 HIT:          0 MISS:          0
cpu3_L2C RFO          ACCESS:          0 HIT:          0 MISS:          0
cpu3_L2C PREFETCH     ACCESS:          0 HIT:          0 MISS:          0
cpu3_L2C WRITE        ACCESS:          0 HIT:          0 MISS:          0
cpu3_L2C TRANSLATION  ACCESS:          0 HIT:          0 MISS:          0
cpu3_L2C PREFETCH REQUESTED:          0 ISSUED:          0 USEFUL:          0 USELESS:          0
cpu3_L2C AVERAGE MISS LATENCY: 1041 cycles
cpu3_L2C TOTAL        ACCESS:          0 HIT:          0 MISS:          0
cpu3_L2C LOAD         ACCESS:          0 HIT:          0 MISS:          0
cpu3_L2C RFO          ACCESS:          0 HIT:          0 MISS:          0
cpu3_L2C PREFETCH     ACCESS:          0 HIT:          0 MISS:          0
cpu3_L2C WRITE        ACCESS:          0 HIT:          0 MISS:          0
cpu3_L2C TRANSLATION  ACCESS:          0 HIT:          0 MISS:          0
cpu3_L2C PREFETCH REQUESTED:          0 ISSUED:          0 USEFUL:          0 USELESS:          0
cpu3_L2C AVERAGE MISS LATENCY: 1041 cycles
cpu3_L2C TOTAL        ACCESS:      18147 HIT:      12509 MISS:       5638
cpu3_L2C LOAD         ACCESS:       2107 HIT:       1295 MISS:        812
cpu3_L2C RFO          ACCESS:       2518 HIT:        101 MISS:       2417
cpu3_L2C PREFETCH     ACCESS:      10293 HIT:       7988 MISS:       2305
cpu3_L2C WRITE        ACCESS:       3075 HIT:       3066 MISS:          9
cpu3_L2C TRANSLATION  ACCESS:        154 HIT:         59 MISS:         95
cpu3_L2C PREFETCH REQUESTED:          0 ISSUED:          0 USEFUL:          0 USELESS:          0
cpu3_L2C AVERAGE MISS LATENCY: 1041 cycles
cpu3_STLB TOTAL        ACCESS:          0 HIT:          0 MISS:          0
cpu3_STLB LOAD         ACCESS:          0 HIT:          0 MISS:          0
cpu3_STLB RFO          ACCESS:          0 HIT:          0 MISS:          0
cpu3_STLB PREFETCH     ACCESS:          0 HIT:          0 MISS:          0
cpu3_STLB WRITE        ACCESS:          0 HIT:          0 MISS:          0
cpu3_STLB TRANSLATION  ACCESS:          0 HIT:          0 MISS:          0
cpu3_STLB PREFETCH REQUESTED:          0 ISSUED:          0 USEFUL:          0 USELESS:          0
cpu3_STLB AVERAGE MISS LATENCY: 378.2 cycles
cpu3_STLB TOTAL        ACCESS:          0 HIT:          0 MISS:          0
cpu3_STLB LOAD         ACCESS:          0 HIT:          0 MISS:          0
cpu3_STLB RFO          ACCESS:          0 HIT:          0 MISS:          0
cpu3_STLB PREFETCH     ACCESS:          0 HIT:          0 MISS:          0
cpu3_STLB WRITE        ACCESS:          0 HIT:          0 MISS:          0
cpu3_STLB TRANSLATION  ACCESS:          0 HIT:          0 MISS:          0
cpu3_STLB PREFETCH REQUESTED:          0 ISSUED:          0 USEFUL:          0 USELESS:          0
cpu3_STLB AVERAGE MISS LATENCY: 378.2 cycles
cpu3_STLB TOTAL        ACCESS:          0 HIT:          0 MISS:          0
cpu3_STLB LOAD         ACCESS:          0 HIT:          0 MISS:          0
cpu3_STLB RFO          ACCESS:          0 HIT:          0 MISS:          0
cpu3_STLB PREFETCH     ACCESS:          0 HIT:          0 MISS:          0
cpu3_STLB WRITE        ACCESS:          0 HIT:          0 MISS:          0
cpu3_STLB TRANSLATION  ACCESS:          0 HIT:          0 MISS:          0
cpu3_STLB PREFETCH REQUESTED:          0 ISSUED:          0 USEFUL:          0 USELESS:          0
cpu3_STLB AVERAGE MISS LATENCY: 378.2 cycles
cpu3_STLB TOTAL        ACCESS:       9138 HIT:       8968 MISS:        170
cpu3_STLB LOAD         ACCESS:       9138 HIT:       8968 MISS:        170
cpu3_STLB RFO          ACCESS:          0 HIT:          0 MISS:          0
cpu3_STLB PREFETCH     ACCESS:          0 HIT:          0 MISS:          0
cpu3_STLB WRITE        ACCESS:          0 HIT:          0 MISS:          0
cpu3_STLB TRANSLATION  ACCESS:          0 HIT:          0 MISS:          0
cpu3_STLB PREFETCH REQUESTED:          0 ISSUED:          0 USEFUL:          0 USELESS:          0
cpu3_STLB AVERAGE MISS LATENCY: 378.2 cycles

DRAM Statistics

Channel 0 RQ ROW_BUFFER_HIT:     946708
  ROW_BUFFER_MISS:    4290929
 AVG DBUS CONGESTED CYCLE: 3.97
WQ ROW_BUFFER_HIT: Channel 0 
  ROW_BUFFER_MISS:      75697
  FULL:    2116919
BERTI TO_L1: 55254605 TO_L2: 114920201 TO_L2_BC_MSHR: 50222479
BERTI AVG_LAT: 442.414 NUM_TRACK_LATENCY: 8138689 NUM_CANT_TRACK_LATENCY: 161338
BERTI CROSS_PAGE 26905630 NO_CROSS_PAGE: 143269176
BERTI FOUND_BERTI: 59914904 NO_FOUND_BERTI: 303172051
BERTI AVERAGE_ISSUED: 5.83721
BERTI TO_L1: 55254605 TO_L2: 114920201 TO_L2_BC_MSHR: 50222479
BERTI AVG_LAT: 442.414 NUM_TRACK_LATENCY: 8138689 NUM_CANT_TRACK_LATENCY: 161338
BERTI CROSS_PAGE 26905630 NO_CROSS_PAGE: 143269176
BERTI FOUND_BERTI: 59914904 NO_FOUND_BERTI: 303172051
BERTI AVERAGE_ISSUED: 5.83721
BERTI TO_L1: 55254605 TO_L2: 114920201 TO_L2_BC_MSHR: 50222479
BERTI AVG_LAT: 442.414 NUM_TRACK_LATENCY: 8138689 NUM_CANT_TRACK_LATENCY: 161338
BERTI CROSS_PAGE 26905630 NO_CROSS_PAGE: 143269176
BERTI FOUND_BERTI: 59914904 NO_FOUND_BERTI: 303172051
BERTI AVERAGE_ISSUED: 5.83721
BERTI TO_L1: 55254605 TO_L2: 114920201 TO_L2_BC_MSHR: 50222479
BERTI AVG_LAT: 442.414 NUM_TRACK_LATENCY: 8138689 NUM_CANT_TRACK_LATENCY: 161338
BERTI CROSS_PAGE 26905630 NO_CROSS_PAGE: 143269176
BERTI FOUND_BERTI: 59914904 NO_FOUND_BERTI: 303172051
BERTI AVERAGE_ISSUED: 5.83721
