WARNING: physical memory size is smaller than virtual memory size.
WARNING: option --warmup_instructions is deprecated. Use --warmup-instructions instead.
WARNING: option --simulation_instructions is deprecated. Use --simulation-instructions instead.

*** ChampSim Multicore Out-of-Order Simulator ***
Warmup Instructions: 50000000
Simulation Instructions: 150000000
Number of CPUs: 4
Page size: 4096

Berti Prefetcher
BERTI HASH ORIGINAL
BERTI IP MASK ffff
Berti Prefetcher
BERTI HASH ORIGINAL
BERTI IP MASK ffff
Berti Prefetcher
BERTI HASH ORIGINAL
BERTI IP MASK ffff
Berti Prefetcher
BERTI HASH ORIGINAL
BERTI IP MASK ffff
Off-chip DRAM Size: 4 GiB Channels: 1 Width: 64-bit Data Race: 3200 MT/s
Heartbeat CPU 2 instructions: 10000001 cycles: 2500046 heartbeat IPC: 4 cumulative IPC: 4 (Simulation time: 00 hr 02 min 17 sec)
Heartbeat CPU 1 instructions: 10000003 cycles: 2521875 heartbeat IPC: 3.965 cumulative IPC: 3.965 (Simulation time: 00 hr 02 min 19 sec)
Heartbeat CPU 3 instructions: 10000002 cycles: 2711686 heartbeat IPC: 3.688 cumulative IPC: 3.688 (Simulation time: 00 hr 02 min 29 sec)
Heartbeat CPU 0 instructions: 10000004 cycles: 4174678 heartbeat IPC: 2.395 cumulative IPC: 2.395 (Simulation time: 00 hr 03 min 50 sec)
Heartbeat CPU 2 instructions: 20000001 cycles: 5000046 heartbeat IPC: 4 cumulative IPC: 4 (Simulation time: 00 hr 04 min 39 sec)
Heartbeat CPU 1 instructions: 20000001 cycles: 5038237 heartbeat IPC: 3.974 cumulative IPC: 3.97 (Simulation time: 00 hr 04 min 41 sec)
Heartbeat CPU 3 instructions: 20000002 cycles: 5231279 heartbeat IPC: 3.969 cumulative IPC: 3.823 (Simulation time: 00 hr 04 min 52 sec)
Heartbeat CPU 2 instructions: 30000001 cycles: 7500046 heartbeat IPC: 4 cumulative IPC: 4 (Simulation time: 00 hr 07 min 02 sec)
Heartbeat CPU 1 instructions: 30000000 cycles: 7553266 heartbeat IPC: 3.976 cumulative IPC: 3.972 (Simulation time: 00 hr 07 min 05 sec)
Heartbeat CPU 3 instructions: 30000000 cycles: 7750626 heartbeat IPC: 3.969 cumulative IPC: 3.871 (Simulation time: 00 hr 07 min 16 sec)
Heartbeat CPU 0 instructions: 20000000 cycles: 8345477 heartbeat IPC: 2.398 cumulative IPC: 2.397 (Simulation time: 00 hr 07 min 49 sec)
Heartbeat CPU 2 instructions: 40000001 cycles: 10000046 heartbeat IPC: 4 cumulative IPC: 4 (Simulation time: 00 hr 09 min 19 sec)
Heartbeat CPU 1 instructions: 40000003 cycles: 10077277 heartbeat IPC: 3.962 cumulative IPC: 3.969 (Simulation time: 00 hr 09 min 24 sec)
Heartbeat CPU 3 instructions: 40000000 cycles: 10280889 heartbeat IPC: 3.952 cumulative IPC: 3.891 (Simulation time: 00 hr 09 min 36 sec)
Heartbeat CPU 2 instructions: 50000001 cycles: 12500046 heartbeat IPC: 4 cumulative IPC: 4 (Simulation time: 00 hr 11 min 38 sec)
Warmup finished CPU 2 instructions: 50000001 cycles: 12500047 cumulative IPC: 4 (Simulation time: 00 hr 11 min 38 sec)
Heartbeat CPU 0 instructions: 30000001 cycles: 12518801 heartbeat IPC: 2.396 cumulative IPC: 2.396 (Simulation time: 00 hr 11 min 39 sec)
Heartbeat CPU 1 instructions: 50000000 cycles: 12599099 heartbeat IPC: 3.965 cumulative IPC: 3.969 (Simulation time: 00 hr 11 min 43 sec)
Warmup finished CPU 1 instructions: 50000000 cycles: 12599100 cumulative IPC: 3.969 (Simulation time: 00 hr 11 min 43 sec)
Heartbeat CPU 3 instructions: 50000001 cycles: 12883129 heartbeat IPC: 3.843 cumulative IPC: 3.881 (Simulation time: 00 hr 11 min 58 sec)
Warmup finished CPU 3 instructions: 50000001 cycles: 12883130 cumulative IPC: 3.881 (Simulation time: 00 hr 11 min 58 sec)
Heartbeat CPU 2 instructions: 60000001 cycles: 15000046 heartbeat IPC: 4 cumulative IPC: 4 (Simulation time: 00 hr 13 min 59 sec)
Heartbeat CPU 1 instructions: 60000002 cycles: 15124094 heartbeat IPC: 3.96 cumulative IPC: 3.967 (Simulation time: 00 hr 14 min 06 sec)
Heartbeat CPU 3 instructions: 60000002 cycles: 15501719 heartbeat IPC: 3.819 cumulative IPC: 3.871 (Simulation time: 00 hr 14 min 28 sec)
Heartbeat CPU 0 instructions: 40000004 cycles: 16705978 heartbeat IPC: 2.388 cumulative IPC: 2.394 (Simulation time: 00 hr 15 min 35 sec)
Heartbeat CPU 2 instructions: 70000001 cycles: 17500046 heartbeat IPC: 4 cumulative IPC: 4 (Simulation time: 00 hr 16 min 19 sec)
Heartbeat CPU 1 instructions: 70000000 cycles: 17648868 heartbeat IPC: 3.961 cumulative IPC: 3.966 (Simulation time: 00 hr 16 min 28 sec)
Heartbeat CPU 3 instructions: 70000001 cycles: 18080153 heartbeat IPC: 3.878 cumulative IPC: 3.872 (Simulation time: 00 hr 16 min 53 sec)
Heartbeat CPU 2 instructions: 80000001 cycles: 20000046 heartbeat IPC: 4 cumulative IPC: 4 (Simulation time: 00 hr 18 min 41 sec)
Heartbeat CPU 1 instructions: 80000001 cycles: 20174084 heartbeat IPC: 3.96 cumulative IPC: 3.965 (Simulation time: 00 hr 18 min 52 sec)
Heartbeat CPU 3 instructions: 80000002 cycles: 20640436 heartbeat IPC: 3.906 cumulative IPC: 3.876 (Simulation time: 00 hr 19 min 19 sec)
Heartbeat CPU 0 instructions: 50000003 cycles: 20872212 heartbeat IPC: 2.4 cumulative IPC: 2.396 (Simulation time: 00 hr 19 min 31 sec)
Warmup finished CPU 0 instructions: 50000003 cycles: 20872213 cumulative IPC: 2.396 (Simulation time: 00 hr 19 min 31 sec)
Warmup complete CPU 0 instructions: 50000003 cycles: 20872213 cumulative IPC: 2.396 (Simulation time: 00 hr 19 min 31 sec)
Warmup complete CPU 1 instructions: 82763880 cycles: 20872213 cumulative IPC: 3.965 (Simulation time: 00 hr 19 min 31 sec)
Warmup complete CPU 2 instructions: 83488665 cycles: 20872213 cumulative IPC: 4 (Simulation time: 00 hr 19 min 31 sec)
Warmup complete CPU 3 instructions: 80844266 cycles: 20872213 cumulative IPC: 3.873 (Simulation time: 00 hr 19 min 31 sec)
Heartbeat CPU 1 instructions: 90000001 cycles: 24033757 heartbeat IPC: 2.591 cumulative IPC: 2.289 (Simulation time: 00 hr 21 min 25 sec)
Heartbeat CPU 3 instructions: 90000003 cycles: 25026580 heartbeat IPC: 2.28 cumulative IPC: 2.204 (Simulation time: 00 hr 22 min 02 sec)
Heartbeat CPU 1 instructions: 100000000 cycles: 28373360 heartbeat IPC: 2.304 cumulative IPC: 2.298 (Simulation time: 00 hr 23 min 49 sec)
Heartbeat CPU 2 instructions: 90000003 cycles: 28489582 heartbeat IPC: 1.178 cumulative IPC: 0.8548 (Simulation time: 00 hr 23 min 52 sec)
Heartbeat CPU 1 instructions: 110000004 cycles: 32827956 heartbeat IPC: 2.245 cumulative IPC: 2.278 (Simulation time: 00 hr 26 min 08 sec)
Heartbeat CPU 1 instructions: 120000001 cycles: 37143179 heartbeat IPC: 2.317 cumulative IPC: 2.289 (Simulation time: 00 hr 28 min 23 sec)
Heartbeat CPU 3 instructions: 100000000 cycles: 41585012 heartbeat IPC: 0.6039 cumulative IPC: 0.9248 (Simulation time: 00 hr 30 min 36 sec)
Heartbeat CPU 1 instructions: 130000000 cycles: 41685972 heartbeat IPC: 2.201 cumulative IPC: 2.269 (Simulation time: 00 hr 30 min 39 sec)
Heartbeat CPU 2 instructions: 100000002 cycles: 45702387 heartbeat IPC: 0.581 cumulative IPC: 0.665 (Simulation time: 00 hr 32 min 34 sec)
Heartbeat CPU 1 instructions: 140000002 cycles: 46246685 heartbeat IPC: 2.193 cumulative IPC: 2.256 (Simulation time: 00 hr 32 min 49 sec)
Heartbeat CPU 1 instructions: 150000002 cycles: 50764481 heartbeat IPC: 2.213 cumulative IPC: 2.249 (Simulation time: 00 hr 34 min 56 sec)
Heartbeat CPU 1 instructions: 160000001 cycles: 55380965 heartbeat IPC: 2.166 cumulative IPC: 2.238 (Simulation time: 00 hr 37 min 06 sec)
Heartbeat CPU 1 instructions: 170000000 cycles: 59938704 heartbeat IPC: 2.194 cumulative IPC: 2.233 (Simulation time: 00 hr 39 min 13 sec)
Heartbeat CPU 1 instructions: 180000002 cycles: 64615784 heartbeat IPC: 2.138 cumulative IPC: 2.223 (Simulation time: 00 hr 41 min 26 sec)
Heartbeat CPU 1 instructions: 190000000 cycles: 69213541 heartbeat IPC: 2.175 cumulative IPC: 2.218 (Simulation time: 00 hr 43 min 37 sec)
Heartbeat CPU 1 instructions: 200000004 cycles: 73740060 heartbeat IPC: 2.209 cumulative IPC: 2.218 (Simulation time: 00 hr 45 min 43 sec)
Heartbeat CPU 1 instructions: 210000001 cycles: 78486523 heartbeat IPC: 2.107 cumulative IPC: 2.208 (Simulation time: 00 hr 48 min 00 sec)
Heartbeat CPU 1 instructions: 220000002 cycles: 83424187 heartbeat IPC: 2.025 cumulative IPC: 2.194 (Simulation time: 00 hr 50 min 21 sec)
Heartbeat CPU 2 instructions: 110000004 cycles: 84541634 heartbeat IPC: 0.2575 cumulative IPC: 0.4164 (Simulation time: 00 hr 50 min 52 sec)
Heartbeat CPU 1 instructions: 230000000 cycles: 88029408 heartbeat IPC: 2.171 cumulative IPC: 2.192 (Simulation time: 00 hr 52 min 38 sec)
Simulation finished CPU 1 instructions: 150000002 cycles: 68469409 cumulative IPC: 2.191 (Simulation time: 00 hr 53 min 17 sec)
Heartbeat CPU 3 instructions: 110000001 cycles: 91052294 heartbeat IPC: 0.2022 cumulative IPC: 0.4154 (Simulation time: 00 hr 54 min 23 sec)
Heartbeat CPU 1 instructions: 240000001 cycles: 92633217 heartbeat IPC: 2.172 cumulative IPC: 2.191 (Simulation time: 00 hr 55 min 26 sec)
Heartbeat CPU 3 instructions: 120000003 cycles: 96188711 heartbeat IPC: 1.947 cumulative IPC: 0.5199 (Simulation time: 00 hr 57 min 43 sec)
Heartbeat CPU 1 instructions: 250000001 cycles: 97136535 heartbeat IPC: 2.221 cumulative IPC: 2.193 (Simulation time: 00 hr 58 min 19 sec)
Heartbeat CPU 2 instructions: 120000004 cycles: 99322618 heartbeat IPC: 0.6765 cumulative IPC: 0.4654 (Simulation time: 00 hr 59 min 44 sec)
Heartbeat CPU 3 instructions: 130000001 cycles: 99948300 heartbeat IPC: 2.66 cumulative IPC: 0.6216 (Simulation time: 01 hr 00 min 08 sec)
Heartbeat CPU 1 instructions: 260000000 cycles: 101577430 heartbeat IPC: 2.252 cumulative IPC: 2.196 (Simulation time: 01 hr 01 min 14 sec)
Heartbeat CPU 3 instructions: 140000000 cycles: 103636014 heartbeat IPC: 2.712 cumulative IPC: 0.7148 (Simulation time: 01 hr 02 min 36 sec)
Heartbeat CPU 1 instructions: 270000003 cycles: 106086636 heartbeat IPC: 2.218 cumulative IPC: 2.197 (Simulation time: 01 hr 04 min 22 sec)
Heartbeat CPU 3 instructions: 150000001 cycles: 109245124 heartbeat IPC: 1.783 cumulative IPC: 0.7825 (Simulation time: 01 hr 06 min 54 sec)
Heartbeat CPU 1 instructions: 280000000 cycles: 110532896 heartbeat IPC: 2.249 cumulative IPC: 2.2 (Simulation time: 01 hr 07 min 55 sec)
Heartbeat CPU 2 instructions: 130000004 cycles: 110679572 heartbeat IPC: 0.8805 cumulative IPC: 0.5179 (Simulation time: 01 hr 08 min 02 sec)
Heartbeat CPU 1 instructions: 290000001 cycles: 114998719 heartbeat IPC: 2.239 cumulative IPC: 2.202 (Simulation time: 01 hr 11 min 12 sec)
Heartbeat CPU 3 instructions: 160000000 cycles: 115132907 heartbeat IPC: 1.698 cumulative IPC: 0.8398 (Simulation time: 01 hr 11 min 19 sec)
Heartbeat CPU 0 instructions: 60000003 cycles: 118083013 heartbeat IPC: 0.1029 cumulative IPC: 0.1029 (Simulation time: 01 hr 13 min 19 sec)
Heartbeat CPU 1 instructions: 300000002 cycles: 119454108 heartbeat IPC: 2.244 cumulative IPC: 2.204 (Simulation time: 01 hr 14 min 06 sec)
Heartbeat CPU 3 instructions: 170000000 cycles: 121297612 heartbeat IPC: 1.622 cumulative IPC: 0.8878 (Simulation time: 01 hr 15 min 24 sec)
Heartbeat CPU 2 instructions: 140000000 cycles: 122196810 heartbeat IPC: 0.8683 cumulative IPC: 0.5577 (Simulation time: 01 hr 16 min 07 sec)
Heartbeat CPU 1 instructions: 310000003 cycles: 123875028 heartbeat IPC: 2.262 cumulative IPC: 2.206 (Simulation time: 01 hr 17 min 31 sec)
Heartbeat CPU 3 instructions: 180000002 cycles: 127299077 heartbeat IPC: 1.666 cumulative IPC: 0.9317 (Simulation time: 01 hr 19 min 52 sec)
Heartbeat CPU 1 instructions: 320000002 cycles: 128374961 heartbeat IPC: 2.222 cumulative IPC: 2.207 (Simulation time: 01 hr 20 min 34 sec)
Heartbeat CPU 3 instructions: 190000002 cycles: 132234935 heartbeat IPC: 2.026 cumulative IPC: 0.9802 (Simulation time: 01 hr 23 min 28 sec)
Heartbeat CPU 1 instructions: 330000004 cycles: 132883444 heartbeat IPC: 2.218 cumulative IPC: 2.207 (Simulation time: 01 hr 24 min 02 sec)
Heartbeat CPU 2 instructions: 150000000 cycles: 133726408 heartbeat IPC: 0.8673 cumulative IPC: 0.5894 (Simulation time: 01 hr 24 min 45 sec)
Heartbeat CPU 1 instructions: 340000001 cycles: 137371367 heartbeat IPC: 2.228 cumulative IPC: 2.208 (Simulation time: 01 hr 27 min 21 sec)
Heartbeat CPU 1 instructions: 350000001 cycles: 141909207 heartbeat IPC: 2.204 cumulative IPC: 2.208 (Simulation time: 01 hr 30 min 16 sec)
Heartbeat CPU 3 instructions: 200000004 cycles: 145195411 heartbeat IPC: 0.7716 cumulative IPC: 0.9584 (Simulation time: 01 hr 32 min 48 sec)
Heartbeat CPU 1 instructions: 360000004 cycles: 146587932 heartbeat IPC: 2.137 cumulative IPC: 2.205 (Simulation time: 01 hr 33 min 47 sec)
Heartbeat CPU 2 instructions: 160000004 cycles: 148159846 heartbeat IPC: 0.6928 cumulative IPC: 0.6011 (Simulation time: 01 hr 34 min 53 sec)
Heartbeat CPU 1 instructions: 370000000 cycles: 151081812 heartbeat IPC: 2.225 cumulative IPC: 2.206 (Simulation time: 01 hr 36 min 46 sec)
Heartbeat CPU 1 instructions: 380000000 cycles: 155654400 heartbeat IPC: 2.187 cumulative IPC: 2.205 (Simulation time: 01 hr 39 min 38 sec)
Heartbeat CPU 1 instructions: 390000000 cycles: 160292009 heartbeat IPC: 2.156 cumulative IPC: 2.204 (Simulation time: 01 hr 42 min 00 sec)
Heartbeat CPU 1 instructions: 400000000 cycles: 164966845 heartbeat IPC: 2.139 cumulative IPC: 2.202 (Simulation time: 01 hr 44 min 20 sec)
Heartbeat CPU 1 instructions: 410000000 cycles: 169527733 heartbeat IPC: 2.193 cumulative IPC: 2.201 (Simulation time: 01 hr 46 min 26 sec)
Heartbeat CPU 1 instructions: 420000004 cycles: 174164609 heartbeat IPC: 2.157 cumulative IPC: 2.2 (Simulation time: 01 hr 49 min 00 sec)
Heartbeat CPU 1 instructions: 430000002 cycles: 178908550 heartbeat IPC: 2.108 cumulative IPC: 2.197 (Simulation time: 01 hr 51 min 53 sec)
Heartbeat CPU 2 instructions: 170000000 cycles: 181860783 heartbeat IPC: 0.2967 cumulative IPC: 0.5374 (Simulation time: 01 hr 53 min 49 sec)
Heartbeat CPU 1 instructions: 440000003 cycles: 183525471 heartbeat IPC: 2.166 cumulative IPC: 2.196 (Simulation time: 01 hr 54 min 46 sec)
Heartbeat CPU 1 instructions: 450000003 cycles: 188022727 heartbeat IPC: 2.224 cumulative IPC: 2.197 (Simulation time: 01 hr 57 min 31 sec)
Heartbeat CPU 1 instructions: 460000003 cycles: 192734260 heartbeat IPC: 2.122 cumulative IPC: 2.195 (Simulation time: 02 hr 00 min 19 sec)
Heartbeat CPU 1 instructions: 470000002 cycles: 197087554 heartbeat IPC: 2.297 cumulative IPC: 2.198 (Simulation time: 02 hr 03 min 01 sec)
Heartbeat CPU 3 instructions: 210000003 cycles: 198844017 heartbeat IPC: 0.1864 cumulative IPC: 0.7257 (Simulation time: 02 hr 04 min 06 sec)
Heartbeat CPU 1 instructions: 480000000 cycles: 201515833 heartbeat IPC: 2.258 cumulative IPC: 2.199 (Simulation time: 02 hr 06 min 12 sec)
Heartbeat CPU 3 instructions: 220000001 cycles: 204115767 heartbeat IPC: 1.897 cumulative IPC: 0.7594 (Simulation time: 02 hr 08 min 18 sec)
Heartbeat CPU 2 instructions: 180000003 cycles: 204358497 heartbeat IPC: 0.4445 cumulative IPC: 0.526 (Simulation time: 02 hr 08 min 30 sec)
Heartbeat CPU 1 instructions: 490000002 cycles: 205829090 heartbeat IPC: 2.318 cumulative IPC: 2.202 (Simulation time: 02 hr 09 min 36 sec)
Heartbeat CPU 3 instructions: 230000001 cycles: 207788189 heartbeat IPC: 2.723 cumulative IPC: 0.798 (Simulation time: 02 hr 10 min 48 sec)
Simulation finished CPU 3 instructions: 150000001 cycles: 187227484 cumulative IPC: 0.8012 (Simulation time: 02 hr 10 min 59 sec)
Heartbeat CPU 1 instructions: 500000000 cycles: 210216005 heartbeat IPC: 2.28 cumulative IPC: 2.204 (Simulation time: 02 hr 12 min 19 sec)
Heartbeat CPU 3 instructions: 240000000 cycles: 211549904 heartbeat IPC: 2.658 cumulative IPC: 0.8347 (Simulation time: 02 hr 13 min 09 sec)
Heartbeat CPU 1 instructions: 510000004 cycles: 214531697 heartbeat IPC: 2.317 cumulative IPC: 2.206 (Simulation time: 02 hr 15 min 02 sec)
Heartbeat CPU 2 instructions: 190000001 cycles: 215704683 heartbeat IPC: 0.8814 cumulative IPC: 0.5467 (Simulation time: 02 hr 15 min 41 sec)
Heartbeat CPU 0 instructions: 70000002 cycles: 216003083 heartbeat IPC: 0.1021 cumulative IPC: 0.1025 (Simulation time: 02 hr 15 min 53 sec)
Heartbeat CPU 3 instructions: 250000004 cycles: 216539625 heartbeat IPC: 2.004 cumulative IPC: 0.8645 (Simulation time: 02 hr 16 min 12 sec)
Heartbeat CPU 1 instructions: 520000000 cycles: 218894752 heartbeat IPC: 2.292 cumulative IPC: 2.208 (Simulation time: 02 hr 17 min 34 sec)
Heartbeat CPU 3 instructions: 260000000 cycles: 222837842 heartbeat IPC: 1.588 cumulative IPC: 0.8871 (Simulation time: 02 hr 19 min 44 sec)
Heartbeat CPU 1 instructions: 530000002 cycles: 225933093 heartbeat IPC: 1.421 cumulative IPC: 2.181 (Simulation time: 02 hr 21 min 38 sec)
Heartbeat CPU 3 instructions: 270000000 cycles: 230320716 heartbeat IPC: 1.336 cumulative IPC: 0.9031 (Simulation time: 02 hr 24 min 33 sec)
Heartbeat CPU 1 instructions: 540000003 cycles: 231815645 heartbeat IPC: 1.7 cumulative IPC: 2.168 (Simulation time: 02 hr 25 min 23 sec)
Heartbeat CPU 2 instructions: 200000000 cycles: 232130347 heartbeat IPC: 0.6088 cumulative IPC: 0.5515 (Simulation time: 02 hr 25 min 35 sec)
Heartbeat CPU 3 instructions: 280000001 cycles: 235945144 heartbeat IPC: 1.778 cumulative IPC: 0.926 (Simulation time: 02 hr 27 min 51 sec)
Heartbeat CPU 1 instructions: 550000001 cycles: 236150513 heartbeat IPC: 2.307 cumulative IPC: 2.17 (Simulation time: 02 hr 27 min 58 sec)
Heartbeat CPU 1 instructions: 560000002 cycles: 240521256 heartbeat IPC: 2.288 cumulative IPC: 2.173 (Simulation time: 02 hr 30 min 24 sec)
Heartbeat CPU 3 instructions: 290000002 cycles: 241933559 heartbeat IPC: 1.67 cumulative IPC: 0.9461 (Simulation time: 02 hr 31 min 13 sec)
Heartbeat CPU 2 instructions: 210000003 cycles: 243282433 heartbeat IPC: 0.8967 cumulative IPC: 0.5688 (Simulation time: 02 hr 32 min 06 sec)
Heartbeat CPU 1 instructions: 570000001 cycles: 244861087 heartbeat IPC: 2.304 cumulative IPC: 2.175 (Simulation time: 02 hr 33 min 11 sec)
Heartbeat CPU 1 instructions: 580000001 cycles: 249253450 heartbeat IPC: 2.277 cumulative IPC: 2.177 (Simulation time: 02 hr 36 min 13 sec)
Heartbeat CPU 3 instructions: 300000002 cycles: 250244223 heartbeat IPC: 1.203 cumulative IPC: 0.9555 (Simulation time: 02 hr 36 min 55 sec)
Heartbeat CPU 1 instructions: 590000002 cycles: 253529538 heartbeat IPC: 2.339 cumulative IPC: 2.18 (Simulation time: 02 hr 39 min 16 sec)
Heartbeat CPU 2 instructions: 220000000 cycles: 256342527 heartbeat IPC: 0.7657 cumulative IPC: 0.5797 (Simulation time: 02 hr 41 min 09 sec)
Heartbeat CPU 1 instructions: 600000000 cycles: 257795773 heartbeat IPC: 2.344 cumulative IPC: 2.183 (Simulation time: 02 hr 41 min 53 sec)
Heartbeat CPU 1 instructions: 610000000 cycles: 262148924 heartbeat IPC: 2.297 cumulative IPC: 2.185 (Simulation time: 02 hr 44 min 19 sec)
Heartbeat CPU 1 instructions: 620000000 cycles: 266572770 heartbeat IPC: 2.26 cumulative IPC: 2.187 (Simulation time: 02 hr 46 min 47 sec)
Heartbeat CPU 1 instructions: 630000001 cycles: 271041490 heartbeat IPC: 2.238 cumulative IPC: 2.187 (Simulation time: 02 hr 49 min 27 sec)
Heartbeat CPU 1 instructions: 640000001 cycles: 275397706 heartbeat IPC: 2.296 cumulative IPC: 2.189 (Simulation time: 02 hr 52 min 06 sec)
Heartbeat CPU 1 instructions: 650000000 cycles: 279886349 heartbeat IPC: 2.228 cumulative IPC: 2.19 (Simulation time: 02 hr 54 min 48 sec)
Heartbeat CPU 1 instructions: 660000002 cycles: 284398251 heartbeat IPC: 2.216 cumulative IPC: 2.19 (Simulation time: 02 hr 57 min 30 sec)
Heartbeat CPU 2 instructions: 230000001 cycles: 286344856 heartbeat IPC: 0.3333 cumulative IPC: 0.5519 (Simulation time: 02 hr 58 min 39 sec)
Heartbeat CPU 1 instructions: 670000001 cycles: 288908474 heartbeat IPC: 2.217 cumulative IPC: 2.191 (Simulation time: 03 hr 00 min 07 sec)
Heartbeat CPU 1 instructions: 680000004 cycles: 293540167 heartbeat IPC: 2.159 cumulative IPC: 2.19 (Simulation time: 03 hr 02 min 55 sec)
Heartbeat CPU 1 instructions: 690000001 cycles: 298100938 heartbeat IPC: 2.193 cumulative IPC: 2.19 (Simulation time: 03 hr 05 min 39 sec)
Simulation finished CPU 2 instructions: 150000003 cycles: 278630653 cumulative IPC: 0.5383 (Simulation time: 03 hr 06 min 29 sec)
Heartbeat CPU 1 instructions: 700000000 cycles: 302713593 heartbeat IPC: 2.168 cumulative IPC: 2.19 (Simulation time: 03 hr 08 min 27 sec)
Heartbeat CPU 3 instructions: 310000000 cycles: 306775170 heartbeat IPC: 0.1769 cumulative IPC: 0.8015 (Simulation time: 03 hr 10 min 54 sec)
Heartbeat CPU 1 instructions: 710000002 cycles: 307297624 heartbeat IPC: 2.181 cumulative IPC: 2.19 (Simulation time: 03 hr 11 min 18 sec)
Heartbeat CPU 1 instructions: 720000004 cycles: 311852913 heartbeat IPC: 2.195 cumulative IPC: 2.19 (Simulation time: 03 hr 14 min 33 sec)
Heartbeat CPU 2 instructions: 240000004 cycles: 313002071 heartbeat IPC: 0.3751 cumulative IPC: 0.5358 (Simulation time: 03 hr 15 min 23 sec)
Heartbeat CPU 3 instructions: 320000004 cycles: 313467398 heartbeat IPC: 1.494 cumulative IPC: 0.8174 (Simulation time: 03 hr 15 min 44 sec)
Heartbeat CPU 1 instructions: 730000002 cycles: 316303393 heartbeat IPC: 2.247 cumulative IPC: 2.191 (Simulation time: 03 hr 18 min 02 sec)
Heartbeat CPU 3 instructions: 330000002 cycles: 317254252 heartbeat IPC: 2.641 cumulative IPC: 0.8407 (Simulation time: 03 hr 18 min 49 sec)
Heartbeat CPU 0 instructions: 80000002 cycles: 319747203 heartbeat IPC: 0.09639 cumulative IPC: 0.1004 (Simulation time: 03 hr 20 min 51 sec)
Heartbeat CPU 1 instructions: 740000004 cycles: 320764215 heartbeat IPC: 2.242 cumulative IPC: 2.192 (Simulation time: 03 hr 21 min 41 sec)
Heartbeat CPU 3 instructions: 340000004 cycles: 320899684 heartbeat IPC: 2.743 cumulative IPC: 0.8638 (Simulation time: 03 hr 21 min 49 sec)
Heartbeat CPU 2 instructions: 250000000 cycles: 324459774 heartbeat IPC: 0.8728 cumulative IPC: 0.5485 (Simulation time: 03 hr 24 min 40 sec)
Heartbeat CPU 3 instructions: 350000004 cycles: 325290344 heartbeat IPC: 2.278 cumulative IPC: 0.8842 (Simulation time: 03 hr 25 min 17 sec)
Heartbeat CPU 1 instructions: 750000001 cycles: 325324470 heartbeat IPC: 2.193 cumulative IPC: 2.192 (Simulation time: 03 hr 25 min 19 sec)
Heartbeat CPU 1 instructions: 760000000 cycles: 329806332 heartbeat IPC: 2.231 cumulative IPC: 2.192 (Simulation time: 03 hr 28 min 39 sec)
Heartbeat CPU 3 instructions: 360000000 cycles: 330582499 heartbeat IPC: 1.89 cumulative IPC: 0.9013 (Simulation time: 03 hr 29 min 13 sec)
Heartbeat CPU 1 instructions: 770000002 cycles: 334246359 heartbeat IPC: 2.252 cumulative IPC: 2.193 (Simulation time: 03 hr 31 min 56 sec)
Heartbeat CPU 2 instructions: 260000000 cycles: 336190189 heartbeat IPC: 0.8525 cumulative IPC: 0.5598 (Simulation time: 03 hr 33 min 20 sec)
Heartbeat CPU 3 instructions: 370000001 cycles: 336299612 heartbeat IPC: 1.749 cumulative IPC: 0.9167 (Simulation time: 03 hr 33 min 25 sec)
Heartbeat CPU 1 instructions: 780000002 cycles: 338691001 heartbeat IPC: 2.25 cumulative IPC: 2.194 (Simulation time: 03 hr 35 min 11 sec)
Heartbeat CPU 3 instructions: 380000002 cycles: 341972357 heartbeat IPC: 1.763 cumulative IPC: 0.9317 (Simulation time: 03 hr 37 min 30 sec)
Heartbeat CPU 1 instructions: 790000002 cycles: 343130260 heartbeat IPC: 2.253 cumulative IPC: 2.195 (Simulation time: 03 hr 38 min 25 sec)
Heartbeat CPU 2 instructions: 270000003 cycles: 347009147 heartbeat IPC: 0.9243 cumulative IPC: 0.5719 (Simulation time: 03 hr 41 min 07 sec)
Heartbeat CPU 1 instructions: 800000001 cycles: 347544286 heartbeat IPC: 2.266 cumulative IPC: 2.196 (Simulation time: 03 hr 41 min 33 sec)
Heartbeat CPU 3 instructions: 390000000 cycles: 347826276 heartbeat IPC: 1.708 cumulative IPC: 0.9456 (Simulation time: 03 hr 41 min 48 sec)
Heartbeat CPU 1 instructions: 810000000 cycles: 351989795 heartbeat IPC: 2.249 cumulative IPC: 2.196 (Simulation time: 03 hr 44 min 54 sec)
Heartbeat CPU 3 instructions: 400000001 cycles: 352469372 heartbeat IPC: 2.154 cumulative IPC: 0.9625 (Simulation time: 03 hr 45 min 15 sec)
Heartbeat CPU 1 instructions: 820000000 cycles: 356413931 heartbeat IPC: 2.26 cumulative IPC: 2.197 (Simulation time: 03 hr 47 min 52 sec)
Heartbeat CPU 2 instructions: 280000002 cycles: 356753905 heartbeat IPC: 1.026 cumulative IPC: 0.5851 (Simulation time: 03 hr 48 min 05 sec)
Heartbeat CPU 1 instructions: 830000004 cycles: 360832088 heartbeat IPC: 2.263 cumulative IPC: 2.198 (Simulation time: 03 hr 50 min 41 sec)
Heartbeat CPU 1 instructions: 840000003 cycles: 365298963 heartbeat IPC: 2.239 cumulative IPC: 2.199 (Simulation time: 03 hr 53 min 32 sec)
Heartbeat CPU 1 instructions: 850000001 cycles: 369784783 heartbeat IPC: 2.229 cumulative IPC: 2.199 (Simulation time: 03 hr 56 min 15 sec)
Heartbeat CPU 3 instructions: 410000000 cycles: 373459878 heartbeat IPC: 0.4764 cumulative IPC: 0.9335 (Simulation time: 03 hr 58 min 18 sec)
Heartbeat CPU 2 instructions: 290000003 cycles: 374074008 heartbeat IPC: 0.5774 cumulative IPC: 0.5847 (Simulation time: 03 hr 58 min 40 sec)
Heartbeat CPU 1 instructions: 860000003 cycles: 374312899 heartbeat IPC: 2.208 cumulative IPC: 2.199 (Simulation time: 03 hr 58 min 48 sec)
Heartbeat CPU 1 instructions: 870000003 cycles: 378893080 heartbeat IPC: 2.183 cumulative IPC: 2.199 (Simulation time: 04 hr 01 min 19 sec)
Heartbeat CPU 1 instructions: 880000000 cycles: 383542906 heartbeat IPC: 2.151 cumulative IPC: 2.198 (Simulation time: 04 hr 04 min 01 sec)
Heartbeat CPU 1 instructions: 890000004 cycles: 388159107 heartbeat IPC: 2.166 cumulative IPC: 2.198 (Simulation time: 04 hr 06 min 09 sec)
Heartbeat CPU 1 instructions: 900000000 cycles: 392762642 heartbeat IPC: 2.172 cumulative IPC: 2.198 (Simulation time: 04 hr 08 min 35 sec)
Heartbeat CPU 1 instructions: 910000003 cycles: 397460491 heartbeat IPC: 2.129 cumulative IPC: 2.197 (Simulation time: 04 hr 11 min 16 sec)
Heartbeat CPU 1 instructions: 920000001 cycles: 401977637 heartbeat IPC: 2.214 cumulative IPC: 2.197 (Simulation time: 04 hr 13 min 51 sec)
Heartbeat CPU 1 instructions: 930000001 cycles: 406568690 heartbeat IPC: 2.178 cumulative IPC: 2.197 (Simulation time: 04 hr 16 min 27 sec)
Heartbeat CPU 0 instructions: 90000001 cycles: 406612295 heartbeat IPC: 0.1151 cumulative IPC: 0.1037 (Simulation time: 04 hr 16 min 29 sec)
Heartbeat CPU 1 instructions: 940000000 cycles: 411267768 heartbeat IPC: 2.128 cumulative IPC: 2.196 (Simulation time: 04 hr 19 min 07 sec)
Heartbeat CPU 2 instructions: 300000000 cycles: 412208946 heartbeat IPC: 0.2622 cumulative IPC: 0.5533 (Simulation time: 04 hr 19 min 39 sec)
Heartbeat CPU 1 instructions: 950000000 cycles: 415923419 heartbeat IPC: 2.148 cumulative IPC: 2.195 (Simulation time: 04 hr 21 min 54 sec)
Heartbeat CPU 3 instructions: 420000002 cycles: 419025987 heartbeat IPC: 0.2195 cumulative IPC: 0.8518 (Simulation time: 04 hr 23 min 48 sec)
Heartbeat CPU 1 instructions: 960000003 cycles: 420515262 heartbeat IPC: 2.178 cumulative IPC: 2.195 (Simulation time: 04 hr 24 min 35 sec)
Heartbeat CPU 3 instructions: 430000000 cycles: 424065687 heartbeat IPC: 1.984 cumulative IPC: 0.866 (Simulation time: 04 hr 26 min 47 sec)
Heartbeat CPU 1 instructions: 970000001 cycles: 424948315 heartbeat IPC: 2.256 cumulative IPC: 2.196 (Simulation time: 04 hr 27 min 20 sec)
Heartbeat CPU 2 instructions: 310000002 cycles: 426839119 heartbeat IPC: 0.6835 cumulative IPC: 0.558 (Simulation time: 04 hr 28 min 28 sec)
Heartbeat CPU 3 instructions: 440000003 cycles: 427999030 heartbeat IPC: 2.542 cumulative IPC: 0.8822 (Simulation time: 04 hr 29 min 10 sec)
Heartbeat CPU 1 instructions: 980000000 cycles: 429464113 heartbeat IPC: 2.214 cumulative IPC: 2.196 (Simulation time: 04 hr 30 min 04 sec)
Heartbeat CPU 3 instructions: 450000002 cycles: 432045028 heartbeat IPC: 2.472 cumulative IPC: 0.8978 (Simulation time: 04 hr 31 min 42 sec)
Heartbeat CPU 1 instructions: 990000002 cycles: 433927364 heartbeat IPC: 2.241 cumulative IPC: 2.196 (Simulation time: 04 hr 32 min 52 sec)
Heartbeat CPU 3 instructions: 460000001 cycles: 437211137 heartbeat IPC: 1.936 cumulative IPC: 0.9107 (Simulation time: 04 hr 34 min 46 sec)
Heartbeat CPU 2 instructions: 320000000 cycles: 438428113 heartbeat IPC: 0.8629 cumulative IPC: 0.5664 (Simulation time: 04 hr 35 min 28 sec)
Heartbeat CPU 1 instructions: 1000000004 cycles: 438456851 heartbeat IPC: 2.208 cumulative IPC: 2.197 (Simulation time: 04 hr 35 min 29 sec)
Heartbeat CPU 3 instructions: 470000000 cycles: 442931819 heartbeat IPC: 1.748 cumulative IPC: 0.922 (Simulation time: 04 hr 38 min 05 sec)
Heartbeat CPU 1 instructions: 1010000000 cycles: 442971445 heartbeat IPC: 2.215 cumulative IPC: 2.197 (Simulation time: 04 hr 38 min 06 sec)
Heartbeat CPU 1 instructions: 1020000002 cycles: 447380206 heartbeat IPC: 2.268 cumulative IPC: 2.197 (Simulation time: 04 hr 40 min 42 sec)
Heartbeat CPU 3 instructions: 480000000 cycles: 448705769 heartbeat IPC: 1.732 cumulative IPC: 0.933 (Simulation time: 04 hr 41 min 30 sec)
Heartbeat CPU 2 instructions: 330000001 cycles: 449628890 heartbeat IPC: 0.8928 cumulative IPC: 0.5749 (Simulation time: 04 hr 42 min 06 sec)
Heartbeat CPU 1 instructions: 1030000004 cycles: 451784110 heartbeat IPC: 2.271 cumulative IPC: 2.198 (Simulation time: 04 hr 43 min 24 sec)
Heartbeat CPU 3 instructions: 490000001 cycles: 454772086 heartbeat IPC: 1.648 cumulative IPC: 0.943 (Simulation time: 04 hr 45 min 09 sec)
Heartbeat CPU 1 instructions: 1040000001 cycles: 456150957 heartbeat IPC: 2.29 cumulative IPC: 2.199 (Simulation time: 04 hr 45 min 58 sec)
Heartbeat CPU 3 instructions: 500000004 cycles: 459234512 heartbeat IPC: 2.241 cumulative IPC: 0.9562 (Simulation time: 04 hr 47 min 52 sec)
Heartbeat CPU 1 instructions: 1050000004 cycles: 460427206 heartbeat IPC: 2.338 cumulative IPC: 2.2 (Simulation time: 04 hr 48 min 35 sec)
Heartbeat CPU 2 instructions: 340000003 cycles: 461303160 heartbeat IPC: 0.8566 cumulative IPC: 0.5824 (Simulation time: 04 hr 49 min 05 sec)
Heartbeat CPU 1 instructions: 1060000001 cycles: 464758959 heartbeat IPC: 2.309 cumulative IPC: 2.202 (Simulation time: 04 hr 50 min 58 sec)
Heartbeat CPU 1 instructions: 1070000000 cycles: 469107756 heartbeat IPC: 2.299 cumulative IPC: 2.202 (Simulation time: 04 hr 53 min 14 sec)
Heartbeat CPU 1 instructions: 1080000000 cycles: 473511965 heartbeat IPC: 2.271 cumulative IPC: 2.203 (Simulation time: 04 hr 55 min 27 sec)
Heartbeat CPU 3 instructions: 510000000 cycles: 474620243 heartbeat IPC: 0.65 cumulative IPC: 0.9458 (Simulation time: 04 hr 56 min 01 sec)
Heartbeat CPU 2 instructions: 350000000 cycles: 475188216 heartbeat IPC: 0.7202 cumulative IPC: 0.5866 (Simulation time: 04 hr 56 min 20 sec)
Heartbeat CPU 1 instructions: 1090000000 cycles: 477819202 heartbeat IPC: 2.322 cumulative IPC: 2.204 (Simulation time: 04 hr 57 min 33 sec)
Heartbeat CPU 1 instructions: 1100000000 cycles: 482115290 heartbeat IPC: 2.328 cumulative IPC: 2.205 (Simulation time: 04 hr 59 min 33 sec)
Heartbeat CPU 1 instructions: 1110000001 cycles: 486577615 heartbeat IPC: 2.241 cumulative IPC: 2.206 (Simulation time: 05 hr 01 min 37 sec)
Heartbeat CPU 0 instructions: 100000000 cycles: 488901657 heartbeat IPC: 0.1215 cumulative IPC: 0.1068 (Simulation time: 05 hr 02 min 42 sec)
Heartbeat CPU 1 instructions: 1120000004 cycles: 490893138 heartbeat IPC: 2.317 cumulative IPC: 2.207 (Simulation time: 05 hr 03 min 39 sec)
Heartbeat CPU 1 instructions: 1130000000 cycles: 495422409 heartbeat IPC: 2.208 cumulative IPC: 2.207 (Simulation time: 05 hr 05 min 45 sec)
Heartbeat CPU 1 instructions: 1140000002 cycles: 499874949 heartbeat IPC: 2.246 cumulative IPC: 2.207 (Simulation time: 05 hr 07 min 48 sec)
Heartbeat CPU 1 instructions: 1150000000 cycles: 504160879 heartbeat IPC: 2.333 cumulative IPC: 2.208 (Simulation time: 05 hr 09 min 49 sec)
Heartbeat CPU 2 instructions: 360000000 cycles: 517016338 heartbeat IPC: 0.2391 cumulative IPC: 0.5573 (Simulation time: 05 hr 15 min 12 sec)
Heartbeat CPU 1 instructions: 1160000001 cycles: 518765548 heartbeat IPC: 0.6847 cumulative IPC: 2.164 (Simulation time: 05 hr 16 min 01 sec)
Heartbeat CPU 1 instructions: 1170000004 cycles: 523315932 heartbeat IPC: 2.198 cumulative IPC: 2.164 (Simulation time: 05 hr 18 min 09 sec)
Heartbeat CPU 1 instructions: 1180000001 cycles: 527633886 heartbeat IPC: 2.316 cumulative IPC: 2.165 (Simulation time: 05 hr 20 min 17 sec)
Heartbeat CPU 3 instructions: 520000003 cycles: 530426498 heartbeat IPC: 0.1792 cumulative IPC: 0.8618 (Simulation time: 05 hr 21 min 47 sec)
Heartbeat CPU 1 instructions: 1190000001 cycles: 532078667 heartbeat IPC: 2.25 cumulative IPC: 2.166 (Simulation time: 05 hr 22 min 42 sec)
Heartbeat CPU 3 instructions: 530000003 cycles: 535399732 heartbeat IPC: 2.011 cumulative IPC: 0.8729 (Simulation time: 05 hr 24 min 41 sec)
Heartbeat CPU 2 instructions: 370000002 cycles: 535835546 heartbeat IPC: 0.5314 cumulative IPC: 0.5564 (Simulation time: 05 hr 24 min 57 sec)
Heartbeat CPU 1 instructions: 1200000001 cycles: 536355051 heartbeat IPC: 2.338 cumulative IPC: 2.167 (Simulation time: 05 hr 25 min 16 sec)
Heartbeat CPU 3 instructions: 540000001 cycles: 539141887 heartbeat IPC: 2.672 cumulative IPC: 0.8859 (Simulation time: 05 hr 27 min 00 sec)
Heartbeat CPU 1 instructions: 1210000002 cycles: 540645595 heartbeat IPC: 2.331 cumulative IPC: 2.169 (Simulation time: 05 hr 27 min 55 sec)
Heartbeat CPU 3 instructions: 550000001 cycles: 543216456 heartbeat IPC: 2.454 cumulative IPC: 0.8982 (Simulation time: 05 hr 29 min 31 sec)
Heartbeat CPU 1 instructions: 1220000003 cycles: 545008915 heartbeat IPC: 2.292 cumulative IPC: 2.17 (Simulation time: 05 hr 30 min 42 sec)
Heartbeat CPU 2 instructions: 380000004 cycles: 547153811 heartbeat IPC: 0.8835 cumulative IPC: 0.5634 (Simulation time: 05 hr 31 min 59 sec)
Heartbeat CPU 3 instructions: 560000000 cycles: 548181284 heartbeat IPC: 2.014 cumulative IPC: 0.9087 (Simulation time: 05 hr 32 min 35 sec)
Heartbeat CPU 1 instructions: 1230000004 cycles: 549293555 heartbeat IPC: 2.334 cumulative IPC: 2.171 (Simulation time: 05 hr 33 min 11 sec)
Heartbeat CPU 1 instructions: 1240000002 cycles: 553594221 heartbeat IPC: 2.325 cumulative IPC: 2.172 (Simulation time: 05 hr 35 min 41 sec)
Heartbeat CPU 3 instructions: 570000004 cycles: 554142980 heartbeat IPC: 1.677 cumulative IPC: 0.9173 (Simulation time: 05 hr 36 min 01 sec)
Heartbeat CPU 1 instructions: 1250000003 cycles: 557972290 heartbeat IPC: 2.284 cumulative IPC: 2.173 (Simulation time: 05 hr 38 min 16 sec)
Heartbeat CPU 2 instructions: 390000003 cycles: 558702176 heartbeat IPC: 0.8659 cumulative IPC: 0.5699 (Simulation time: 05 hr 38 min 42 sec)
Heartbeat CPU 3 instructions: 580000003 cycles: 560054479 heartbeat IPC: 1.692 cumulative IPC: 0.9258 (Simulation time: 05 hr 39 min 27 sec)
Heartbeat CPU 1 instructions: 1260000000 cycles: 562252565 heartbeat IPC: 2.336 cumulative IPC: 2.175 (Simulation time: 05 hr 40 min 50 sec)
Heartbeat CPU 3 instructions: 590000000 cycles: 565888704 heartbeat IPC: 1.714 cumulative IPC: 0.9342 (Simulation time: 05 hr 42 min 52 sec)
Heartbeat CPU 1 instructions: 1270000000 cycles: 566528167 heartbeat IPC: 2.339 cumulative IPC: 2.176 (Simulation time: 05 hr 43 min 17 sec)
Heartbeat CPU 2 instructions: 400000004 cycles: 569833501 heartbeat IPC: 0.8984 cumulative IPC: 0.5766 (Simulation time: 05 hr 45 min 21 sec)
Heartbeat CPU 3 instructions: 600000002 cycles: 570473733 heartbeat IPC: 2.181 cumulative IPC: 0.9446 (Simulation time: 05 hr 45 min 45 sec)
Heartbeat CPU 1 instructions: 1280000001 cycles: 570791464 heartbeat IPC: 2.346 cumulative IPC: 2.177 (Simulation time: 05 hr 45 min 57 sec)
Heartbeat CPU 1 instructions: 1290000003 cycles: 575219976 heartbeat IPC: 2.258 cumulative IPC: 2.178 (Simulation time: 05 hr 48 min 26 sec)
Heartbeat CPU 1 instructions: 1300000001 cycles: 579546036 heartbeat IPC: 2.312 cumulative IPC: 2.179 (Simulation time: 05 hr 50 min 44 sec)
Heartbeat CPU 0 instructions: 110000004 cycles: 579737272 heartbeat IPC: 0.1101 cumulative IPC: 0.1074 (Simulation time: 05 hr 50 min 51 sec)
Heartbeat CPU 2 instructions: 410000002 cycles: 582984087 heartbeat IPC: 0.7604 cumulative IPC: 0.5809 (Simulation time: 05 hr 52 min 37 sec)
Heartbeat CPU 1 instructions: 1310000003 cycles: 583942525 heartbeat IPC: 2.275 cumulative IPC: 2.18 (Simulation time: 05 hr 53 min 06 sec)
Heartbeat CPU 3 instructions: 610000003 cycles: 584867614 heartbeat IPC: 0.6947 cumulative IPC: 0.9382 (Simulation time: 05 hr 53 min 39 sec)
Heartbeat CPU 1 instructions: 1320000003 cycles: 588355909 heartbeat IPC: 2.266 cumulative IPC: 2.18 (Simulation time: 05 hr 55 min 24 sec)
Heartbeat CPU 1 instructions: 1330000004 cycles: 592844542 heartbeat IPC: 2.228 cumulative IPC: 2.181 (Simulation time: 05 hr 57 min 35 sec)
Heartbeat CPU 1 instructions: 1340000000 cycles: 597353995 heartbeat IPC: 2.218 cumulative IPC: 2.181 (Simulation time: 05 hr 59 min 42 sec)
Heartbeat CPU 1 instructions: 1350000002 cycles: 601958683 heartbeat IPC: 2.172 cumulative IPC: 2.181 (Simulation time: 06 hr 01 min 57 sec)
Heartbeat CPU 1 instructions: 1360000003 cycles: 606502894 heartbeat IPC: 2.201 cumulative IPC: 2.181 (Simulation time: 06 hr 04 min 01 sec)
Heartbeat CPU 1 instructions: 1370000003 cycles: 611157940 heartbeat IPC: 2.148 cumulative IPC: 2.181 (Simulation time: 06 hr 06 min 05 sec)
Heartbeat CPU 2 instructions: 420000002 cycles: 612991868 heartbeat IPC: 0.3332 cumulative IPC: 0.5683 (Simulation time: 06 hr 06 min 57 sec)
Heartbeat CPU 1 instructions: 1380000002 cycles: 615735429 heartbeat IPC: 2.185 cumulative IPC: 2.181 (Simulation time: 06 hr 08 min 13 sec)
Heartbeat CPU 1 instructions: 1390000000 cycles: 620425406 heartbeat IPC: 2.132 cumulative IPC: 2.18 (Simulation time: 06 hr 10 min 26 sec)
Heartbeat CPU 1 instructions: 1400000003 cycles: 624989579 heartbeat IPC: 2.191 cumulative IPC: 2.18 (Simulation time: 06 hr 12 min 31 sec)
Heartbeat CPU 1 instructions: 1410000002 cycles: 629524598 heartbeat IPC: 2.205 cumulative IPC: 2.181 (Simulation time: 06 hr 14 min 35 sec)
Heartbeat CPU 1 instructions: 1420000003 cycles: 634208526 heartbeat IPC: 2.135 cumulative IPC: 2.18 (Simulation time: 06 hr 16 min 53 sec)
Heartbeat CPU 3 instructions: 620000003 cycles: 637069621 heartbeat IPC: 0.1916 cumulative IPC: 0.875 (Simulation time: 06 hr 18 min 24 sec)
Heartbeat CPU 1 instructions: 1430000000 cycles: 638711636 heartbeat IPC: 2.221 cumulative IPC: 2.181 (Simulation time: 06 hr 19 min 18 sec)
Heartbeat CPU 2 instructions: 430000001 cycles: 639904820 heartbeat IPC: 0.3716 cumulative IPC: 0.5598 (Simulation time: 06 hr 19 min 56 sec)
Heartbeat CPU 3 instructions: 630000002 cycles: 642172200 heartbeat IPC: 1.96 cumulative IPC: 0.8839 (Simulation time: 06 hr 21 min 15 sec)
Heartbeat CPU 1 instructions: 1440000000 cycles: 643172575 heartbeat IPC: 2.242 cumulative IPC: 2.181 (Simulation time: 06 hr 21 min 49 sec)
Heartbeat CPU 3 instructions: 640000004 cycles: 645985476 heartbeat IPC: 2.622 cumulative IPC: 0.8945 (Simulation time: 06 hr 23 min 33 sec)
Heartbeat CPU 1 instructions: 1450000001 cycles: 647654077 heartbeat IPC: 2.231 cumulative IPC: 2.181 (Simulation time: 06 hr 24 min 33 sec)
Heartbeat CPU 3 instructions: 650000000 cycles: 650465673 heartbeat IPC: 2.232 cumulative IPC: 0.904 (Simulation time: 06 hr 26 min 11 sec)
Heartbeat CPU 2 instructions: 440000001 cycles: 651321872 heartbeat IPC: 0.8759 cumulative IPC: 0.5655 (Simulation time: 06 hr 26 min 40 sec)
Heartbeat CPU 1 instructions: 1460000004 cycles: 652109622 heartbeat IPC: 2.244 cumulative IPC: 2.182 (Simulation time: 06 hr 27 min 09 sec)
Heartbeat CPU 3 instructions: 660000001 cycles: 656289826 heartbeat IPC: 1.717 cumulative IPC: 0.9115 (Simulation time: 06 hr 29 min 26 sec)
Heartbeat CPU 1 instructions: 1470000002 cycles: 656561440 heartbeat IPC: 2.246 cumulative IPC: 2.182 (Simulation time: 06 hr 29 min 36 sec)
Heartbeat CPU 1 instructions: 1480000001 cycles: 661006516 heartbeat IPC: 2.25 cumulative IPC: 2.183 (Simulation time: 06 hr 32 min 04 sec)
Heartbeat CPU 3 instructions: 670000000 cycles: 662175410 heartbeat IPC: 1.699 cumulative IPC: 0.9187 (Simulation time: 06 hr 32 min 41 sec)
Heartbeat CPU 2 instructions: 450000002 cycles: 662879287 heartbeat IPC: 0.8652 cumulative IPC: 0.5709 (Simulation time: 06 hr 33 min 04 sec)
Heartbeat CPU 1 instructions: 1490000000 cycles: 665420381 heartbeat IPC: 2.266 cumulative IPC: 2.183 (Simulation time: 06 hr 34 min 39 sec)
Heartbeat CPU 3 instructions: 680000000 cycles: 667807718 heartbeat IPC: 1.775 cumulative IPC: 0.9261 (Simulation time: 06 hr 35 min 53 sec)
Heartbeat CPU 1 instructions: 1500000003 cycles: 669861635 heartbeat IPC: 2.252 cumulative IPC: 2.184 (Simulation time: 06 hr 37 min 00 sec)
Heartbeat CPU 3 instructions: 690000004 cycles: 672944267 heartbeat IPC: 1.947 cumulative IPC: 0.9342 (Simulation time: 06 hr 38 min 47 sec)
Heartbeat CPU 2 instructions: 460000000 cycles: 674065110 heartbeat IPC: 0.894 cumulative IPC: 0.5764 (Simulation time: 06 hr 39 min 26 sec)
Heartbeat CPU 1 instructions: 1510000002 cycles: 674278787 heartbeat IPC: 2.264 cumulative IPC: 2.184 (Simulation time: 06 hr 39 min 34 sec)
Heartbeat CPU 0 instructions: 120000004 cycles: 678170975 heartbeat IPC: 0.1016 cumulative IPC: 0.1065 (Simulation time: 06 hr 41 min 29 sec)
Heartbeat CPU 1 instructions: 1520000003 cycles: 678730967 heartbeat IPC: 2.246 cumulative IPC: 2.185 (Simulation time: 06 hr 41 min 45 sec)
Heartbeat CPU 1 instructions: 1530000000 cycles: 683203558 heartbeat IPC: 2.236 cumulative IPC: 2.185 (Simulation time: 06 hr 44 min 00 sec)
Heartbeat CPU 3 instructions: 700000000 cycles: 685665073 heartbeat IPC: 0.7861 cumulative IPC: 0.9314 (Simulation time: 06 hr 45 min 11 sec)
Heartbeat CPU 1 instructions: 1540000002 cycles: 687659783 heartbeat IPC: 2.244 cumulative IPC: 2.185 (Simulation time: 06 hr 46 min 11 sec)
Heartbeat CPU 2 instructions: 470000001 cycles: 688130508 heartbeat IPC: 0.711 cumulative IPC: 0.5793 (Simulation time: 06 hr 46 min 23 sec)
Heartbeat CPU 1 instructions: 1550000003 cycles: 692143823 heartbeat IPC: 2.23 cumulative IPC: 2.186 (Simulation time: 06 hr 48 min 13 sec)
Heartbeat CPU 1 instructions: 1560000000 cycles: 696593604 heartbeat IPC: 2.247 cumulative IPC: 2.186 (Simulation time: 06 hr 50 min 15 sec)
Heartbeat CPU 1 instructions: 1570000004 cycles: 701102025 heartbeat IPC: 2.218 cumulative IPC: 2.186 (Simulation time: 06 hr 52 min 11 sec)
Heartbeat CPU 1 instructions: 1580000000 cycles: 705597968 heartbeat IPC: 2.224 cumulative IPC: 2.187 (Simulation time: 06 hr 54 min 09 sec)
Heartbeat CPU 1 instructions: 1590000000 cycles: 710197115 heartbeat IPC: 2.174 cumulative IPC: 2.187 (Simulation time: 06 hr 56 min 07 sec)
Heartbeat CPU 1 instructions: 1600000003 cycles: 714673582 heartbeat IPC: 2.234 cumulative IPC: 2.187 (Simulation time: 06 hr 58 min 05 sec)
Heartbeat CPU 1 instructions: 1610000001 cycles: 719314209 heartbeat IPC: 2.155 cumulative IPC: 2.187 (Simulation time: 06 hr 59 min 59 sec)
Heartbeat CPU 2 instructions: 480000000 cycles: 720004988 heartbeat IPC: 0.3137 cumulative IPC: 0.5671 (Simulation time: 07 hr 00 min 16 sec)
Heartbeat CPU 1 instructions: 1620000000 cycles: 723783987 heartbeat IPC: 2.237 cumulative IPC: 2.187 (Simulation time: 07 hr 01 min 55 sec)
Heartbeat CPU 1 instructions: 1630000000 cycles: 728354778 heartbeat IPC: 2.188 cumulative IPC: 2.187 (Simulation time: 07 hr 03 min 57 sec)
Heartbeat CPU 1 instructions: 1640000001 cycles: 732845072 heartbeat IPC: 2.227 cumulative IPC: 2.187 (Simulation time: 07 hr 05 min 50 sec)
Heartbeat CPU 1 instructions: 1650000001 cycles: 737417383 heartbeat IPC: 2.187 cumulative IPC: 2.187 (Simulation time: 07 hr 07 min 52 sec)
Heartbeat CPU 3 instructions: 710000000 cycles: 739423122 heartbeat IPC: 0.186 cumulative IPC: 0.8756 (Simulation time: 07 hr 08 min 49 sec)
Heartbeat CPU 1 instructions: 1660000004 cycles: 741832884 heartbeat IPC: 2.265 cumulative IPC: 2.188 (Simulation time: 07 hr 10 min 04 sec)
Heartbeat CPU 2 instructions: 490000001 cycles: 744335470 heartbeat IPC: 0.411 cumulative IPC: 0.5619 (Simulation time: 07 hr 11 min 26 sec)
Heartbeat CPU 3 instructions: 720000002 cycles: 744793598 heartbeat IPC: 1.862 cumulative IPC: 0.8829 (Simulation time: 07 hr 11 min 41 sec)
Heartbeat CPU 1 instructions: 1670000004 cycles: 746280131 heartbeat IPC: 2.249 cumulative IPC: 2.188 (Simulation time: 07 hr 12 min 28 sec)
Heartbeat CPU 3 instructions: 730000003 cycles: 748736292 heartbeat IPC: 2.536 cumulative IPC: 0.8919 (Simulation time: 07 hr 13 min 48 sec)
Heartbeat CPU 1 instructions: 1680000000 cycles: 750763146 heartbeat IPC: 2.231 cumulative IPC: 2.188 (Simulation time: 07 hr 14 min 57 sec)
Heartbeat CPU 3 instructions: 740000002 cycles: 753355958 heartbeat IPC: 2.165 cumulative IPC: 0.8999 (Simulation time: 07 hr 16 min 22 sec)
Heartbeat CPU 1 instructions: 1690000003 cycles: 755188173 heartbeat IPC: 2.26 cumulative IPC: 2.189 (Simulation time: 07 hr 17 min 18 sec)
Heartbeat CPU 2 instructions: 500000003 cycles: 755760708 heartbeat IPC: 0.8753 cumulative IPC: 0.5668 (Simulation time: 07 hr 17 min 35 sec)
Heartbeat CPU 3 instructions: 750000003 cycles: 759082188 heartbeat IPC: 1.746 cumulative IPC: 0.9065 (Simulation time: 07 hr 19 min 20 sec)
Heartbeat CPU 1 instructions: 1700000002 cycles: 759625368 heartbeat IPC: 2.254 cumulative IPC: 2.189 (Simulation time: 07 hr 19 min 38 sec)
Heartbeat CPU 1 instructions: 1710000000 cycles: 764067725 heartbeat IPC: 2.251 cumulative IPC: 2.19 (Simulation time: 07 hr 21 min 56 sec)
Heartbeat CPU 3 instructions: 760000000 cycles: 764727047 heartbeat IPC: 1.772 cumulative IPC: 0.913 (Simulation time: 07 hr 22 min 17 sec)
Heartbeat CPU 2 instructions: 510000004 cycles: 767040656 heartbeat IPC: 0.8865 cumulative IPC: 0.5716 (Simulation time: 07 hr 23 min 31 sec)
Heartbeat CPU 1 instructions: 1720000002 cycles: 768524986 heartbeat IPC: 2.244 cumulative IPC: 2.19 (Simulation time: 07 hr 24 min 21 sec)
Heartbeat CPU 3 instructions: 770000003 cycles: 770619847 heartbeat IPC: 1.697 cumulative IPC: 0.9192 (Simulation time: 07 hr 25 min 24 sec)
Heartbeat CPU 1 instructions: 1730000001 cycles: 772907990 heartbeat IPC: 2.282 cumulative IPC: 2.19 (Simulation time: 07 hr 26 min 41 sec)
Heartbeat CPU 3 instructions: 780000002 cycles: 775838242 heartbeat IPC: 1.916 cumulative IPC: 0.9261 (Simulation time: 07 hr 28 min 17 sec)
Heartbeat CPU 0 instructions: 130000002 cycles: 777147524 heartbeat IPC: 0.101 cumulative IPC: 0.1058 (Simulation time: 07 hr 29 min 04 sec)
Heartbeat CPU 1 instructions: 1740000002 cycles: 777295431 heartbeat IPC: 2.279 cumulative IPC: 2.191 (Simulation time: 07 hr 29 min 08 sec)
Heartbeat CPU 2 instructions: 520000002 cycles: 778805817 heartbeat IPC: 0.85 cumulative IPC: 0.5759 (Simulation time: 07 hr 29 min 55 sec)
Heartbeat CPU 1 instructions: 1750000001 cycles: 781527403 heartbeat IPC: 2.363 cumulative IPC: 2.192 (Simulation time: 07 hr 31 min 17 sec)
Heartbeat CPU 1 instructions: 1760000003 cycles: 785758779 heartbeat IPC: 2.363 cumulative IPC: 2.193 (Simulation time: 07 hr 33 min 17 sec)
Heartbeat CPU 3 instructions: 790000003 cycles: 786431322 heartbeat IPC: 0.944 cumulative IPC: 0.9263 (Simulation time: 07 hr 33 min 40 sec)
Heartbeat CPU 1 instructions: 1770000001 cycles: 790096569 heartbeat IPC: 2.305 cumulative IPC: 2.193 (Simulation time: 07 hr 35 min 24 sec)
Heartbeat CPU 2 instructions: 530000004 cycles: 792447819 heartbeat IPC: 0.733 cumulative IPC: 0.5787 (Simulation time: 07 hr 36 min 31 sec)
Heartbeat CPU 1 instructions: 1780000002 cycles: 794288192 heartbeat IPC: 2.386 cumulative IPC: 2.194 (Simulation time: 07 hr 37 min 21 sec)
Heartbeat CPU 1 instructions: 1790000004 cycles: 798533733 heartbeat IPC: 2.355 cumulative IPC: 2.195 (Simulation time: 07 hr 39 min 14 sec)
Heartbeat CPU 1 instructions: 1800000003 cycles: 802823616 heartbeat IPC: 2.331 cumulative IPC: 2.196 (Simulation time: 07 hr 41 min 02 sec)
Heartbeat CPU 1 instructions: 1810000002 cycles: 807238823 heartbeat IPC: 2.265 cumulative IPC: 2.196 (Simulation time: 07 hr 42 min 52 sec)
Heartbeat CPU 1 instructions: 1820000002 cycles: 811446746 heartbeat IPC: 2.376 cumulative IPC: 2.197 (Simulation time: 07 hr 44 min 40 sec)
Heartbeat CPU 1 instructions: 1830000002 cycles: 815846640 heartbeat IPC: 2.273 cumulative IPC: 2.198 (Simulation time: 07 hr 46 min 34 sec)
Heartbeat CPU 1 instructions: 1840000001 cycles: 820099292 heartbeat IPC: 2.351 cumulative IPC: 2.199 (Simulation time: 07 hr 48 min 28 sec)
Heartbeat CPU 1 instructions: 1850000001 cycles: 824336321 heartbeat IPC: 2.36 cumulative IPC: 2.2 (Simulation time: 07 hr 50 min 10 sec)
Heartbeat CPU 2 instructions: 540000002 cycles: 826443215 heartbeat IPC: 0.2942 cumulative IPC: 0.5667 (Simulation time: 07 hr 51 min 01 sec)
Heartbeat CPU 1 instructions: 1860000001 cycles: 828574236 heartbeat IPC: 2.36 cumulative IPC: 2.2 (Simulation time: 07 hr 51 min 53 sec)
Heartbeat CPU 1 instructions: 1870000004 cycles: 833029260 heartbeat IPC: 2.245 cumulative IPC: 2.201 (Simulation time: 07 hr 53 min 49 sec)
Heartbeat CPU 1 instructions: 1880000003 cycles: 837278901 heartbeat IPC: 2.353 cumulative IPC: 2.201 (Simulation time: 07 hr 55 min 40 sec)
Heartbeat CPU 3 instructions: 800000000 cycles: 841327227 heartbeat IPC: 0.1822 cumulative IPC: 0.8765 (Simulation time: 07 hr 57 min 22 sec)
Heartbeat CPU 1 instructions: 1890000000 cycles: 841850250 heartbeat IPC: 2.188 cumulative IPC: 2.201 (Simulation time: 07 hr 57 min 37 sec)
Heartbeat CPU 1 instructions: 1900000000 cycles: 846167510 heartbeat IPC: 2.316 cumulative IPC: 2.202 (Simulation time: 07 hr 59 min 49 sec)
Heartbeat CPU 3 instructions: 810000002 cycles: 846423151 heartbeat IPC: 1.962 cumulative IPC: 0.8832 (Simulation time: 07 hr 59 min 57 sec)
Heartbeat CPU 2 instructions: 550000000 cycles: 850943511 heartbeat IPC: 0.4082 cumulative IPC: 0.562 (Simulation time: 08 hr 02 min 07 sec)
Heartbeat CPU 3 instructions: 820000003 cycles: 850969965 heartbeat IPC: 2.199 cumulative IPC: 0.8904 (Simulation time: 08 hr 02 min 07 sec)
Heartbeat CPU 1 instructions: 1910000002 cycles: 855119062 heartbeat IPC: 1.117 cumulative IPC: 2.19 (Simulation time: 08 hr 04 min 07 sec)
Heartbeat CPU 3 instructions: 830000001 cycles: 856831779 heartbeat IPC: 1.706 cumulative IPC: 0.8962 (Simulation time: 08 hr 05 min 04 sec)
Heartbeat CPU 1 instructions: 1920000001 cycles: 859467015 heartbeat IPC: 2.3 cumulative IPC: 2.191 (Simulation time: 08 hr 06 min 27 sec)
Heartbeat CPU 3 instructions: 840000001 cycles: 861929539 heartbeat IPC: 1.962 cumulative IPC: 0.9026 (Simulation time: 08 hr 07 min 46 sec)
Heartbeat CPU 1 instructions: 1930000002 cycles: 863757596 heartbeat IPC: 2.331 cumulative IPC: 2.192 (Simulation time: 08 hr 08 min 46 sec)
Heartbeat CPU 2 instructions: 560000002 cycles: 864179874 heartbeat IPC: 0.7555 cumulative IPC: 0.5651 (Simulation time: 08 hr 09 min 01 sec)
Heartbeat CPU 3 instructions: 850000003 cycles: 867451440 heartbeat IPC: 1.811 cumulative IPC: 0.9085 (Simulation time: 08 hr 10 min 47 sec)
Heartbeat CPU 1 instructions: 1940000002 cycles: 868141993 heartbeat IPC: 2.281 cumulative IPC: 2.192 (Simulation time: 08 hr 11 min 07 sec)
Heartbeat CPU 1 instructions: 1950000004 cycles: 872394237 heartbeat IPC: 2.352 cumulative IPC: 2.193 (Simulation time: 08 hr 13 min 20 sec)
Heartbeat CPU 3 instructions: 860000001 cycles: 872981018 heartbeat IPC: 1.808 cumulative IPC: 0.9144 (Simulation time: 08 hr 13 min 37 sec)
Heartbeat CPU 2 instructions: 570000000 cycles: 875389638 heartbeat IPC: 0.8921 cumulative IPC: 0.5693 (Simulation time: 08 hr 14 min 49 sec)
Heartbeat CPU 1 instructions: 1960000000 cycles: 876619052 heartbeat IPC: 2.367 cumulative IPC: 2.194 (Simulation time: 08 hr 15 min 27 sec)
Heartbeat CPU 0 instructions: 140000001 cycles: 878372985 heartbeat IPC: 0.09879 cumulative IPC: 0.105 (Simulation time: 08 hr 16 min 24 sec)
Heartbeat CPU 3 instructions: 870000000 cycles: 878628852 heartbeat IPC: 1.771 cumulative IPC: 0.92 (Simulation time: 08 hr 16 min 32 sec)
Heartbeat CPU 1 instructions: 1970000004 cycles: 880924011 heartbeat IPC: 2.323 cumulative IPC: 2.194 (Simulation time: 08 hr 17 min 48 sec)
Heartbeat CPU 1 instructions: 1980000000 cycles: 885171323 heartbeat IPC: 2.354 cumulative IPC: 2.195 (Simulation time: 08 hr 19 min 52 sec)
Heartbeat CPU 2 instructions: 580000000 cycles: 886527928 heartbeat IPC: 0.8978 cumulative IPC: 0.5736 (Simulation time: 08 hr 20 min 31 sec)
Heartbeat CPU 3 instructions: 880000000 cycles: 888915781 heartbeat IPC: 0.9721 cumulative IPC: 0.9206 (Simulation time: 08 hr 21 min 37 sec)
Heartbeat CPU 1 instructions: 1990000001 cycles: 889411116 heartbeat IPC: 2.359 cumulative IPC: 2.196 (Simulation time: 08 hr 21 min 51 sec)
*** Reached end of trace: (1, "/home/das/dpc3_traces/603.bwaves_s-3699B.champsimtrace.xz")
Heartbeat CPU 1 instructions: 2000000001 cycles: 893686632 heartbeat IPC: 2.339 cumulative IPC: 2.197 (Simulation time: 08 hr 23 min 50 sec)
Heartbeat CPU 1 instructions: 2010000004 cycles: 897999337 heartbeat IPC: 2.319 cumulative IPC: 2.197 (Simulation time: 08 hr 25 min 39 sec)
Heartbeat CPU 1 instructions: 2020000004 cycles: 907108541 heartbeat IPC: 1.098 cumulative IPC: 2.186 (Simulation time: 08 hr 29 min 02 sec)
Heartbeat CPU 2 instructions: 590000004 cycles: 915695378 heartbeat IPC: 0.3428 cumulative IPC: 0.566 (Simulation time: 08 hr 32 min 11 sec)
Heartbeat CPU 1 instructions: 2030000000 cycles: 917167396 heartbeat IPC: 0.9941 cumulative IPC: 2.173 (Simulation time: 08 hr 32 min 46 sec)
Heartbeat CPU 1 instructions: 2040000001 cycles: 921575000 heartbeat IPC: 2.269 cumulative IPC: 2.173 (Simulation time: 08 hr 34 min 31 sec)
Heartbeat CPU 1 instructions: 2050000003 cycles: 925972728 heartbeat IPC: 2.274 cumulative IPC: 2.174 (Simulation time: 08 hr 36 min 12 sec)
Heartbeat CPU 1 instructions: 2060000001 cycles: 930298001 heartbeat IPC: 2.312 cumulative IPC: 2.174 (Simulation time: 08 hr 37 min 50 sec)
Heartbeat CPU 1 instructions: 2070000003 cycles: 934684856 heartbeat IPC: 2.28 cumulative IPC: 2.175 (Simulation time: 08 hr 39 min 31 sec)
Heartbeat CPU 1 instructions: 2080000002 cycles: 938947728 heartbeat IPC: 2.346 cumulative IPC: 2.175 (Simulation time: 08 hr 41 min 10 sec)
Heartbeat CPU 1 instructions: 2090000000 cycles: 943324748 heartbeat IPC: 2.285 cumulative IPC: 2.176 (Simulation time: 08 hr 42 min 58 sec)
Heartbeat CPU 1 instructions: 2100000003 cycles: 947728231 heartbeat IPC: 2.271 cumulative IPC: 2.176 (Simulation time: 08 hr 44 min 50 sec)
Heartbeat CPU 3 instructions: 890000004 cycles: 949164133 heartbeat IPC: 0.166 cumulative IPC: 0.8717 (Simulation time: 08 hr 45 min 22 sec)
Heartbeat CPU 2 instructions: 600000000 cycles: 949308189 heartbeat IPC: 0.2975 cumulative IPC: 0.5563 (Simulation time: 08 hr 45 min 26 sec)
Heartbeat CPU 1 instructions: 2110000000 cycles: 952320301 heartbeat IPC: 2.178 cumulative IPC: 2.176 (Simulation time: 08 hr 46 min 52 sec)
Heartbeat CPU 3 instructions: 900000000 cycles: 954198938 heartbeat IPC: 1.986 cumulative IPC: 0.8777 (Simulation time: 08 hr 47 min 47 sec)
Heartbeat CPU 1 instructions: 2120000000 cycles: 956691550 heartbeat IPC: 2.288 cumulative IPC: 2.177 (Simulation time: 08 hr 49 min 03 sec)
Heartbeat CPU 3 instructions: 910000002 cycles: 958082360 heartbeat IPC: 2.575 cumulative IPC: 0.8847 (Simulation time: 08 hr 49 min 46 sec)
Heartbeat CPU 2 instructions: 610000001 cycles: 961030078 heartbeat IPC: 0.8531 cumulative IPC: 0.56 (Simulation time: 08 hr 51 min 19 sec)
Heartbeat CPU 1 instructions: 2130000004 cycles: 961206359 heartbeat IPC: 2.215 cumulative IPC: 2.177 (Simulation time: 08 hr 51 min 25 sec)
Heartbeat CPU 3 instructions: 920000000 cycles: 961814702 heartbeat IPC: 2.679 cumulative IPC: 0.8918 (Simulation time: 08 hr 51 min 45 sec)
Heartbeat CPU 1 instructions: 2140000001 cycles: 965650250 heartbeat IPC: 2.25 cumulative IPC: 2.177 (Simulation time: 08 hr 53 min 40 sec)
Heartbeat CPU 3 instructions: 930000001 cycles: 967304740 heartbeat IPC: 1.821 cumulative IPC: 0.8972 (Simulation time: 08 hr 54 min 28 sec)
Heartbeat CPU 1 instructions: 2150000001 cycles: 970076291 heartbeat IPC: 2.259 cumulative IPC: 2.178 (Simulation time: 08 hr 55 min 44 sec)
Heartbeat CPU 2 instructions: 620000003 cycles: 972458161 heartbeat IPC: 0.875 cumulative IPC: 0.5638 (Simulation time: 08 hr 56 min 53 sec)
Heartbeat CPU 3 instructions: 940000004 cycles: 973002285 heartbeat IPC: 1.755 cumulative IPC: 0.9024 (Simulation time: 08 hr 57 min 09 sec)
Heartbeat CPU 1 instructions: 2160000000 cycles: 974512564 heartbeat IPC: 2.254 cumulative IPC: 2.178 (Simulation time: 08 hr 57 min 55 sec)
Heartbeat CPU 1 instructions: 2170000000 cycles: 978938230 heartbeat IPC: 2.26 cumulative IPC: 2.179 (Simulation time: 09 hr 00 min 06 sec)
Heartbeat CPU 3 instructions: 950000000 cycles: 979057618 heartbeat IPC: 1.651 cumulative IPC: 0.9071 (Simulation time: 09 hr 00 min 10 sec)
Heartbeat CPU 0 instructions: 150000003 cycles: 980989174 heartbeat IPC: 0.09745 cumulative IPC: 0.1042 (Simulation time: 09 hr 01 min 08 sec)
Heartbeat CPU 1 instructions: 2180000002 cycles: 983466931 heartbeat IPC: 2.208 cumulative IPC: 2.179 (Simulation time: 09 hr 02 min 17 sec)
Heartbeat CPU 2 instructions: 630000004 cycles: 984149108 heartbeat IPC: 0.8554 cumulative IPC: 0.5673 (Simulation time: 09 hr 02 min 35 sec)
Heartbeat CPU 3 instructions: 960000000 cycles: 985212517 heartbeat IPC: 1.625 cumulative IPC: 0.9117 (Simulation time: 09 hr 03 min 06 sec)
Heartbeat CPU 1 instructions: 2190000000 cycles: 987950091 heartbeat IPC: 2.231 cumulative IPC: 2.179 (Simulation time: 09 hr 04 min 30 sec)
Heartbeat CPU 3 instructions: 970000002 cycles: 989761491 heartbeat IPC: 2.198 cumulative IPC: 0.9177 (Simulation time: 09 hr 05 min 32 sec)
Heartbeat CPU 1 instructions: 2200000003 cycles: 992364113 heartbeat IPC: 2.266 cumulative IPC: 2.179 (Simulation time: 09 hr 06 min 52 sec)
Heartbeat CPU 2 instructions: 640000000 cycles: 995699252 heartbeat IPC: 0.8658 cumulative IPC: 0.5709 (Simulation time: 09 hr 08 min 13 sec)
Heartbeat CPU 1 instructions: 2210000000 cycles: 996954153 heartbeat IPC: 2.179 cumulative IPC: 2.179 (Simulation time: 09 hr 08 min 46 sec)
Heartbeat CPU 1 instructions: 2220000001 cycles: 1001610045 heartbeat IPC: 2.148 cumulative IPC: 2.179 (Simulation time: 09 hr 10 min 45 sec)
Heartbeat CPU 3 instructions: 980000003 cycles: 1003011882 heartbeat IPC: 0.7547 cumulative IPC: 0.9155 (Simulation time: 09 hr 11 min 25 sec)
Heartbeat CPU 1 instructions: 2230000004 cycles: 1006221581 heartbeat IPC: 2.168 cumulative IPC: 2.179 (Simulation time: 09 hr 12 min 44 sec)
Heartbeat CPU 1 instructions: 2240000000 cycles: 1010892099 heartbeat IPC: 2.141 cumulative IPC: 2.179 (Simulation time: 09 hr 14 min 39 sec)
Heartbeat CPU 2 instructions: 650000003 cycles: 1014559389 heartbeat IPC: 0.5302 cumulative IPC: 0.5701 (Simulation time: 09 hr 16 min 14 sec)
Heartbeat CPU 1 instructions: 2250000004 cycles: 1015563290 heartbeat IPC: 2.141 cumulative IPC: 2.179 (Simulation time: 09 hr 16 min 44 sec)
Heartbeat CPU 1 instructions: 2260000000 cycles: 1020142410 heartbeat IPC: 2.184 cumulative IPC: 2.179 (Simulation time: 09 hr 18 min 32 sec)
Heartbeat CPU 1 instructions: 2270000002 cycles: 1024895526 heartbeat IPC: 2.104 cumulative IPC: 2.178 (Simulation time: 09 hr 20 min 25 sec)
Heartbeat CPU 1 instructions: 2280000002 cycles: 1029519424 heartbeat IPC: 2.163 cumulative IPC: 2.178 (Simulation time: 09 hr 22 min 24 sec)
Heartbeat CPU 1 instructions: 2290000000 cycles: 1034154650 heartbeat IPC: 2.157 cumulative IPC: 2.178 (Simulation time: 09 hr 24 min 18 sec)
Heartbeat CPU 1 instructions: 2300000000 cycles: 1038942658 heartbeat IPC: 2.089 cumulative IPC: 2.178 (Simulation time: 09 hr 26 min 18 sec)
Heartbeat CPU 1 instructions: 2310000002 cycles: 1043563438 heartbeat IPC: 2.164 cumulative IPC: 2.178 (Simulation time: 09 hr 28 min 27 sec)
Heartbeat CPU 1 instructions: 2320000001 cycles: 1048207367 heartbeat IPC: 2.153 cumulative IPC: 2.178 (Simulation time: 09 hr 30 min 39 sec)
Heartbeat CPU 2 instructions: 660000000 cycles: 1052069635 heartbeat IPC: 0.2666 cumulative IPC: 0.5591 (Simulation time: 09 hr 32 min 24 sec)
Heartbeat CPU 1 instructions: 2330000003 cycles: 1052929523 heartbeat IPC: 2.118 cumulative IPC: 2.177 (Simulation time: 09 hr 32 min 48 sec)
Heartbeat CPU 3 instructions: 990000003 cycles: 1057398373 heartbeat IPC: 0.1839 cumulative IPC: 0.8771 (Simulation time: 09 hr 34 min 54 sec)
Heartbeat CPU 1 instructions: 2340000000 cycles: 1057562034 heartbeat IPC: 2.159 cumulative IPC: 2.177 (Simulation time: 09 hr 34 min 59 sec)
Heartbeat CPU 1 instructions: 2350000000 cycles: 1062124084 heartbeat IPC: 2.192 cumulative IPC: 2.177 (Simulation time: 09 hr 37 min 18 sec)
Heartbeat CPU 3 instructions: 1000000002 cycles: 1062605159 heartbeat IPC: 1.921 cumulative IPC: 0.8823 (Simulation time: 09 hr 37 min 36 sec)
Heartbeat CPU 3 instructions: 1010000000 cycles: 1066350656 heartbeat IPC: 2.67 cumulative IPC: 0.8887 (Simulation time: 09 hr 39 min 54 sec)
Heartbeat CPU 2 instructions: 670000004 cycles: 1066451921 heartbeat IPC: 0.6953 cumulative IPC: 0.5609 (Simulation time: 09 hr 39 min 57 sec)
Heartbeat CPU 1 instructions: 2360000003 cycles: 1066759445 heartbeat IPC: 2.157 cumulative IPC: 2.177 (Simulation time: 09 hr 40 min 10 sec)
Heartbeat CPU 3 instructions: 1020000001 cycles: 1070369332 heartbeat IPC: 2.488 cumulative IPC: 0.8949 (Simulation time: 09 hr 42 min 18 sec)
Heartbeat CPU 1 instructions: 2370000001 cycles: 1071258026 heartbeat IPC: 2.223 cumulative IPC: 2.178 (Simulation time: 09 hr 42 min 44 sec)
Heartbeat CPU 1 instructions: 2380000001 cycles: 1075732490 heartbeat IPC: 2.235 cumulative IPC: 2.178 (Simulation time: 09 hr 45 min 06 sec)
Heartbeat CPU 3 instructions: 1030000000 cycles: 1076615805 heartbeat IPC: 1.601 cumulative IPC: 0.899 (Simulation time: 09 hr 45 min 35 sec)
Heartbeat CPU 2 instructions: 680000002 cycles: 1077924427 heartbeat IPC: 0.8716 cumulative IPC: 0.5643 (Simulation time: 09 hr 46 min 19 sec)
Heartbeat CPU 1 instructions: 2390000004 cycles: 1080208276 heartbeat IPC: 2.234 cumulative IPC: 2.178 (Simulation time: 09 hr 47 min 44 sec)
Heartbeat CPU 0 instructions: 160000002 cycles: 1081751157 heartbeat IPC: 0.09924 cumulative IPC: 0.1037 (Simulation time: 09 hr 48 min 38 sec)
Heartbeat CPU 3 instructions: 1040000001 cycles: 1081789096 heartbeat IPC: 1.933 cumulative IPC: 0.9041 (Simulation time: 09 hr 48 min 39 sec)
Heartbeat CPU 1 instructions: 2400000000 cycles: 1084664303 heartbeat IPC: 2.244 cumulative IPC: 2.178 (Simulation time: 09 hr 50 min 24 sec)
Heartbeat CPU 3 instructions: 1050000003 cycles: 1087307984 heartbeat IPC: 1.812 cumulative IPC: 0.9088 (Simulation time: 09 hr 51 min 48 sec)
Heartbeat CPU 1 instructions: 2410000000 cycles: 1089094932 heartbeat IPC: 2.257 cumulative IPC: 2.179 (Simulation time: 09 hr 52 min 45 sec)
Heartbeat CPU 2 instructions: 690000000 cycles: 1089315234 heartbeat IPC: 0.8779 cumulative IPC: 0.5677 (Simulation time: 09 hr 52 min 53 sec)
Heartbeat CPU 1 instructions: 2420000003 cycles: 1093484076 heartbeat IPC: 2.278 cumulative IPC: 2.179 (Simulation time: 09 hr 54 min 57 sec)
Heartbeat CPU 3 instructions: 1060000002 cycles: 1093634304 heartbeat IPC: 1.581 cumulative IPC: 0.9127 (Simulation time: 09 hr 55 min 01 sec)
Heartbeat CPU 1 instructions: 2430000003 cycles: 1097956328 heartbeat IPC: 2.236 cumulative IPC: 2.179 (Simulation time: 09 hr 57 min 24 sec)
Heartbeat CPU 3 instructions: 1070000001 cycles: 1098448894 heartbeat IPC: 2.077 cumulative IPC: 0.9179 (Simulation time: 09 hr 57 min 40 sec)
Heartbeat CPU 2 instructions: 700000002 cycles: 1101184765 heartbeat IPC: 0.8425 cumulative IPC: 0.5707 (Simulation time: 09 hr 58 min 56 sec)
Heartbeat CPU 1 instructions: 2440000002 cycles: 1102398475 heartbeat IPC: 2.251 cumulative IPC: 2.18 (Simulation time: 09 hr 59 min 27 sec)
Heartbeat CPU 1 instructions: 2450000002 cycles: 1106832859 heartbeat IPC: 2.255 cumulative IPC: 2.18 (Simulation time: 10 hr 01 min 34 sec)
Heartbeat CPU 1 instructions: 2460000001 cycles: 1111339183 heartbeat IPC: 2.219 cumulative IPC: 2.18 (Simulation time: 10 hr 03 min 43 sec)
Heartbeat CPU 1 instructions: 2470000001 cycles: 1115586327 heartbeat IPC: 2.355 cumulative IPC: 2.181 (Simulation time: 10 hr 05 min 38 sec)
Heartbeat CPU 2 instructions: 710000001 cycles: 1117304796 heartbeat IPC: 0.6203 cumulative IPC: 0.5714 (Simulation time: 10 hr 06 min 24 sec)
Heartbeat CPU 1 instructions: 2480000004 cycles: 1120018040 heartbeat IPC: 2.256 cumulative IPC: 2.181 (Simulation time: 10 hr 07 min 29 sec)
Heartbeat CPU 1 instructions: 2490000001 cycles: 1124274450 heartbeat IPC: 2.349 cumulative IPC: 2.182 (Simulation time: 10 hr 09 min 21 sec)
Heartbeat CPU 1 instructions: 2500000000 cycles: 1128692473 heartbeat IPC: 2.263 cumulative IPC: 2.182 (Simulation time: 10 hr 11 min 12 sec)
Heartbeat CPU 1 instructions: 2510000003 cycles: 1133026717 heartbeat IPC: 2.307 cumulative IPC: 2.182 (Simulation time: 10 hr 12 min 56 sec)
Heartbeat CPU 1 instructions: 2520000004 cycles: 1137464684 heartbeat IPC: 2.253 cumulative IPC: 2.183 (Simulation time: 10 hr 14 min 43 sec)
Heartbeat CPU 3 instructions: 1080000001 cycles: 1147495728 heartbeat IPC: 0.2039 cumulative IPC: 0.8869 (Simulation time: 10 hr 18 min 20 sec)
Heartbeat CPU 1 instructions: 2530000001 cycles: 1148421912 heartbeat IPC: 0.9126 cumulative IPC: 2.17 (Simulation time: 10 hr 18 min 39 sec)
Heartbeat CPU 1 instructions: 2540000003 cycles: 1157137336 heartbeat IPC: 1.147 cumulative IPC: 2.163 (Simulation time: 10 hr 22 min 02 sec)
Heartbeat CPU 2 instructions: 720000000 cycles: 1160783391 heartbeat IPC: 0.23 cumulative IPC: 0.5584 (Simulation time: 10 hr 23 min 27 sec)
Heartbeat CPU 1 instructions: 2550000000 cycles: 1161420615 heartbeat IPC: 2.335 cumulative IPC: 2.163 (Simulation time: 10 hr 23 min 43 sec)
Heartbeat CPU 1 instructions: 2560000001 cycles: 1165837778 heartbeat IPC: 2.264 cumulative IPC: 2.164 (Simulation time: 10 hr 25 min 34 sec)
Heartbeat CPU 3 instructions: 1090000003 cycles: 1169888943 heartbeat IPC: 0.4466 cumulative IPC: 0.8783 (Simulation time: 10 hr 27 min 30 sec)
Heartbeat CPU 1 instructions: 2570000000 cycles: 1170117394 heartbeat IPC: 2.337 cumulative IPC: 2.164 (Simulation time: 10 hr 27 min 36 sec)
Heartbeat CPU 3 instructions: 1100000000 cycles: 1174206764 heartbeat IPC: 2.316 cumulative IPC: 0.8837 (Simulation time: 10 hr 29 min 40 sec)
Heartbeat CPU 1 instructions: 2580000001 cycles: 1174509297 heartbeat IPC: 2.277 cumulative IPC: 2.165 (Simulation time: 10 hr 29 min 49 sec)
Heartbeat CPU 2 instructions: 730000001 cycles: 1175925284 heartbeat IPC: 0.6604 cumulative IPC: 0.5597 (Simulation time: 10 hr 30 min 36 sec)
Heartbeat CPU 3 instructions: 1110000002 cycles: 1178009137 heartbeat IPC: 2.63 cumulative IPC: 0.8894 (Simulation time: 10 hr 31 min 39 sec)
Heartbeat CPU 1 instructions: 2590000001 cycles: 1178775642 heartbeat IPC: 2.344 cumulative IPC: 2.165 (Simulation time: 10 hr 32 min 04 sec)
Heartbeat CPU 3 instructions: 1120000000 cycles: 1182039619 heartbeat IPC: 2.481 cumulative IPC: 0.8949 (Simulation time: 10 hr 34 min 03 sec)
Heartbeat CPU 1 instructions: 2600000004 cycles: 1183042510 heartbeat IPC: 2.344 cumulative IPC: 2.166 (Simulation time: 10 hr 34 min 36 sec)
Heartbeat CPU 0 instructions: 170000001 cycles: 1183194955 heartbeat IPC: 0.09858 cumulative IPC: 0.1032 (Simulation time: 10 hr 34 min 41 sec)
Heartbeat CPU 2 instructions: 740000001 cycles: 1186880441 heartbeat IPC: 0.9128 cumulative IPC: 0.563 (Simulation time: 10 hr 36 min 36 sec)
Heartbeat CPU 1 instructions: 2610000004 cycles: 1187400896 heartbeat IPC: 2.294 cumulative IPC: 2.166 (Simulation time: 10 hr 36 min 52 sec)
Heartbeat CPU 3 instructions: 1130000003 cycles: 1187864656 heartbeat IPC: 1.717 cumulative IPC: 0.899 (Simulation time: 10 hr 37 min 08 sec)
Heartbeat CPU 1 instructions: 2620000000 cycles: 1191730423 heartbeat IPC: 2.31 cumulative IPC: 2.167 (Simulation time: 10 hr 39 min 04 sec)
Heartbeat CPU 3 instructions: 1140000002 cycles: 1193609779 heartbeat IPC: 1.741 cumulative IPC: 0.9031 (Simulation time: 10 hr 40 min 00 sec)
Heartbeat CPU 1 instructions: 2630000000 cycles: 1196105047 heartbeat IPC: 2.286 cumulative IPC: 2.167 (Simulation time: 10 hr 41 min 10 sec)
Heartbeat CPU 2 instructions: 750000001 cycles: 1197873216 heartbeat IPC: 0.9097 cumulative IPC: 0.5663 (Simulation time: 10 hr 42 min 04 sec)
Heartbeat CPU 3 instructions: 1150000004 cycles: 1198676647 heartbeat IPC: 1.974 cumulative IPC: 0.9078 (Simulation time: 10 hr 42 min 30 sec)
Heartbeat CPU 1 instructions: 2640000000 cycles: 1200417649 heartbeat IPC: 2.319 cumulative IPC: 2.168 (Simulation time: 10 hr 43 min 21 sec)
Heartbeat CPU 1 instructions: 2650000004 cycles: 1204816830 heartbeat IPC: 2.273 cumulative IPC: 2.168 (Simulation time: 10 hr 45 min 32 sec)
Heartbeat CPU 3 instructions: 1160000004 cycles: 1205240141 heartbeat IPC: 1.524 cumulative IPC: 0.9112 (Simulation time: 10 hr 45 min 44 sec)
Heartbeat CPU 2 instructions: 760000002 cycles: 1209067253 heartbeat IPC: 0.8933 cumulative IPC: 0.5694 (Simulation time: 10 hr 47 min 49 sec)
Heartbeat CPU 1 instructions: 2660000000 cycles: 1209275517 heartbeat IPC: 2.243 cumulative IPC: 2.169 (Simulation time: 10 hr 47 min 55 sec)
Heartbeat CPU 3 instructions: 1170000000 cycles: 1210838197 heartbeat IPC: 1.786 cumulative IPC: 0.9153 (Simulation time: 10 hr 48 min 44 sec)
Heartbeat CPU 1 instructions: 2670000000 cycles: 1213684506 heartbeat IPC: 2.268 cumulative IPC: 2.169 (Simulation time: 10 hr 50 min 04 sec)
Heartbeat CPU 1 instructions: 2680000001 cycles: 1218168213 heartbeat IPC: 2.23 cumulative IPC: 2.169 (Simulation time: 10 hr 52 min 16 sec)
Heartbeat CPU 1 instructions: 2690000000 cycles: 1222668367 heartbeat IPC: 2.222 cumulative IPC: 2.169 (Simulation time: 10 hr 54 min 18 sec)
Heartbeat CPU 2 instructions: 770000004 cycles: 1223309697 heartbeat IPC: 0.7021 cumulative IPC: 0.5709 (Simulation time: 10 hr 54 min 33 sec)
Heartbeat CPU 1 instructions: 2700000002 cycles: 1227242517 heartbeat IPC: 2.186 cumulative IPC: 2.17 (Simulation time: 10 hr 56 min 07 sec)
Heartbeat CPU 1 instructions: 2710000001 cycles: 1231799420 heartbeat IPC: 2.194 cumulative IPC: 2.17 (Simulation time: 10 hr 58 min 08 sec)
Heartbeat CPU 1 instructions: 2720000003 cycles: 1236440382 heartbeat IPC: 2.155 cumulative IPC: 2.17 (Simulation time: 11 hr 00 min 17 sec)
Heartbeat CPU 1 instructions: 2730000001 cycles: 1240939822 heartbeat IPC: 2.222 cumulative IPC: 2.17 (Simulation time: 11 hr 02 min 11 sec)
Heartbeat CPU 1 instructions: 2740000003 cycles: 1245555996 heartbeat IPC: 2.166 cumulative IPC: 2.17 (Simulation time: 11 hr 04 min 08 sec)
Heartbeat CPU 1 instructions: 2750000000 cycles: 1250302434 heartbeat IPC: 2.107 cumulative IPC: 2.169 (Simulation time: 11 hr 06 min 13 sec)
Heartbeat CPU 1 instructions: 2760000000 cycles: 1254837779 heartbeat IPC: 2.205 cumulative IPC: 2.17 (Simulation time: 11 hr 08 min 00 sec)
Heartbeat CPU 2 instructions: 780000001 cycles: 1257427685 heartbeat IPC: 0.2931 cumulative IPC: 0.5633 (Simulation time: 11 hr 09 min 00 sec)
Heartbeat CPU 1 instructions: 2770000001 cycles: 1259432445 heartbeat IPC: 2.176 cumulative IPC: 2.17 (Simulation time: 11 hr 09 min 51 sec)
Heartbeat CPU 3 instructions: 1180000001 cycles: 1259454632 heartbeat IPC: 0.2057 cumulative IPC: 0.8874 (Simulation time: 11 hr 09 min 51 sec)
Heartbeat CPU 1 instructions: 2780000001 cycles: 1263972291 heartbeat IPC: 2.203 cumulative IPC: 2.17 (Simulation time: 11 hr 11 min 38 sec)
Heartbeat CPU 1 instructions: 2790000001 cycles: 1268621723 heartbeat IPC: 2.151 cumulative IPC: 2.17 (Simulation time: 11 hr 13 min 23 sec)
Heartbeat CPU 1 instructions: 2800000000 cycles: 1273157448 heartbeat IPC: 2.205 cumulative IPC: 2.17 (Simulation time: 11 hr 15 min 22 sec)
Heartbeat CPU 3 instructions: 1190000001 cycles: 1277001085 heartbeat IPC: 0.5699 cumulative IPC: 0.883 (Simulation time: 11 hr 17 min 18 sec)
Heartbeat CPU 1 instructions: 2810000004 cycles: 1277646813 heartbeat IPC: 2.227 cumulative IPC: 2.17 (Simulation time: 11 hr 17 min 38 sec)
Heartbeat CPU 2 instructions: 790000000 cycles: 1279645710 heartbeat IPC: 0.4501 cumulative IPC: 0.5613 (Simulation time: 11 hr 18 min 40 sec)
Heartbeat CPU 3 instructions: 1200000002 cycles: 1281177478 heartbeat IPC: 2.394 cumulative IPC: 0.888 (Simulation time: 11 hr 19 min 29 sec)
Heartbeat CPU 0 instructions: 180000001 cycles: 1281554663 heartbeat IPC: 0.1017 cumulative IPC: 0.1031 (Simulation time: 11 hr 19 min 41 sec)
Heartbeat CPU 1 instructions: 2820000002 cycles: 1282152239 heartbeat IPC: 2.22 cumulative IPC: 2.17 (Simulation time: 11 hr 19 min 59 sec)
Heartbeat CPU 3 instructions: 1210000000 cycles: 1285047740 heartbeat IPC: 2.584 cumulative IPC: 0.8932 (Simulation time: 11 hr 21 min 38 sec)
Heartbeat CPU 1 instructions: 2830000003 cycles: 1286654359 heartbeat IPC: 2.221 cumulative IPC: 2.17 (Simulation time: 11 hr 22 min 30 sec)
Heartbeat CPU 3 instructions: 1220000000 cycles: 1289428066 heartbeat IPC: 2.283 cumulative IPC: 0.898 (Simulation time: 11 hr 23 min 57 sec)
Heartbeat CPU 2 instructions: 800000002 cycles: 1290911313 heartbeat IPC: 0.8877 cumulative IPC: 0.5642 (Simulation time: 11 hr 24 min 42 sec)
Heartbeat CPU 1 instructions: 2840000002 cycles: 1291156429 heartbeat IPC: 2.221 cumulative IPC: 2.171 (Simulation time: 11 hr 24 min 49 sec)
Heartbeat CPU 3 instructions: 1230000003 cycles: 1295265582 heartbeat IPC: 1.713 cumulative IPC: 0.9017 (Simulation time: 11 hr 26 min 51 sec)
Heartbeat CPU 1 instructions: 2850000000 cycles: 1295579998 heartbeat IPC: 2.261 cumulative IPC: 2.171 (Simulation time: 11 hr 27 min 01 sec)
Heartbeat CPU 1 instructions: 2860000002 cycles: 1300016347 heartbeat IPC: 2.254 cumulative IPC: 2.171 (Simulation time: 11 hr 29 min 11 sec)
Heartbeat CPU 3 instructions: 1240000001 cycles: 1300906528 heartbeat IPC: 1.773 cumulative IPC: 0.9056 (Simulation time: 11 hr 29 min 38 sec)
Heartbeat CPU 2 instructions: 810000000 cycles: 1302120249 heartbeat IPC: 0.8921 cumulative IPC: 0.567 (Simulation time: 11 hr 30 min 14 sec)
Heartbeat CPU 1 instructions: 2870000002 cycles: 1304435961 heartbeat IPC: 2.263 cumulative IPC: 2.171 (Simulation time: 11 hr 31 min 25 sec)
Heartbeat CPU 3 instructions: 1250000003 cycles: 1306072261 heartbeat IPC: 1.936 cumulative IPC: 0.9097 (Simulation time: 11 hr 32 min 19 sec)
Heartbeat CPU 1 instructions: 2880000004 cycles: 1308843603 heartbeat IPC: 2.269 cumulative IPC: 2.172 (Simulation time: 11 hr 33 min 36 sec)
Heartbeat CPU 3 instructions: 1260000002 cycles: 1312804271 heartbeat IPC: 1.485 cumulative IPC: 0.9127 (Simulation time: 11 hr 35 min 33 sec)
Heartbeat CPU 1 instructions: 2890000003 cycles: 1313274943 heartbeat IPC: 2.257 cumulative IPC: 2.172 (Simulation time: 11 hr 35 min 48 sec)
Heartbeat CPU 2 instructions: 820000004 cycles: 1313704731 heartbeat IPC: 0.8632 cumulative IPC: 0.5697 (Simulation time: 11 hr 36 min 02 sec)
Heartbeat CPU 1 instructions: 2900000001 cycles: 1317749782 heartbeat IPC: 2.235 cumulative IPC: 2.172 (Simulation time: 11 hr 38 min 03 sec)
Heartbeat CPU 3 instructions: 1270000002 cycles: 1320162124 heartbeat IPC: 1.359 cumulative IPC: 0.9152 (Simulation time: 11 hr 39 min 09 sec)
Heartbeat CPU 1 instructions: 2910000002 cycles: 1322251490 heartbeat IPC: 2.221 cumulative IPC: 2.172 (Simulation time: 11 hr 40 min 03 sec)
Heartbeat CPU 1 instructions: 2920000000 cycles: 1326722035 heartbeat IPC: 2.237 cumulative IPC: 2.173 (Simulation time: 11 hr 42 min 04 sec)
Heartbeat CPU 2 instructions: 830000000 cycles: 1327003512 heartbeat IPC: 0.7519 cumulative IPC: 0.5715 (Simulation time: 11 hr 42 min 11 sec)
Heartbeat CPU 1 instructions: 2930000000 cycles: 1331247890 heartbeat IPC: 2.21 cumulative IPC: 2.173 (Simulation time: 11 hr 43 min 58 sec)
Heartbeat CPU 1 instructions: 2940000004 cycles: 1335901573 heartbeat IPC: 2.149 cumulative IPC: 2.173 (Simulation time: 11 hr 45 min 48 sec)
Heartbeat CPU 1 instructions: 2950000004 cycles: 1340509890 heartbeat IPC: 2.17 cumulative IPC: 2.173 (Simulation time: 11 hr 47 min 34 sec)
Heartbeat CPU 1 instructions: 2960000002 cycles: 1345127961 heartbeat IPC: 2.165 cumulative IPC: 2.173 (Simulation time: 11 hr 49 min 19 sec)
Heartbeat CPU 1 instructions: 2970000000 cycles: 1349608542 heartbeat IPC: 2.232 cumulative IPC: 2.173 (Simulation time: 11 hr 51 min 02 sec)
Heartbeat CPU 1 instructions: 2980000004 cycles: 1354256853 heartbeat IPC: 2.151 cumulative IPC: 2.173 (Simulation time: 11 hr 52 min 47 sec)
Heartbeat CPU 2 instructions: 840000001 cycles: 1356350083 heartbeat IPC: 0.3408 cumulative IPC: 0.5665 (Simulation time: 11 hr 53 min 32 sec)
Heartbeat CPU 1 instructions: 2990000003 cycles: 1358864007 heartbeat IPC: 2.171 cumulative IPC: 2.173 (Simulation time: 11 hr 54 min 29 sec)
Heartbeat CPU 1 instructions: 3000000003 cycles: 1363472070 heartbeat IPC: 2.17 cumulative IPC: 2.173 (Simulation time: 11 hr 56 min 12 sec)
Heartbeat CPU 1 instructions: 3010000004 cycles: 1368153797 heartbeat IPC: 2.136 cumulative IPC: 2.173 (Simulation time: 11 hr 57 min 56 sec)
Heartbeat CPU 1 instructions: 3020000001 cycles: 1372695945 heartbeat IPC: 2.202 cumulative IPC: 2.173 (Simulation time: 11 hr 59 min 37 sec)
Heartbeat CPU 1 instructions: 3030000003 cycles: 1377166732 heartbeat IPC: 2.237 cumulative IPC: 2.173 (Simulation time: 12 hr 01 min 18 sec)
Heartbeat CPU 3 instructions: 1280000002 cycles: 1377425006 heartbeat IPC: 0.1746 cumulative IPC: 0.884 (Simulation time: 12 hr 01 min 24 sec)
Heartbeat CPU 0 instructions: 190000003 cycles: 1378878818 heartbeat IPC: 0.1027 cumulative IPC: 0.1031 (Simulation time: 12 hr 02 min 00 sec)
Heartbeat CPU 1 instructions: 3040000000 cycles: 1381563638 heartbeat IPC: 2.274 cumulative IPC: 2.173 (Simulation time: 12 hr 03 min 09 sec)
Heartbeat CPU 2 instructions: 850000000 cycles: 1383711726 heartbeat IPC: 0.3655 cumulative IPC: 0.5624 (Simulation time: 12 hr 04 min 12 sec)
Heartbeat CPU 3 instructions: 1290000004 cycles: 1384778076 heartbeat IPC: 1.36 cumulative IPC: 0.8865 (Simulation time: 12 hr 04 min 42 sec)
Heartbeat CPU 1 instructions: 3050000000 cycles: 1385848378 heartbeat IPC: 2.334 cumulative IPC: 2.174 (Simulation time: 12 hr 05 min 16 sec)
Heartbeat CPU 3 instructions: 1300000004 cycles: 1388452139 heartbeat IPC: 2.722 cumulative IPC: 0.8915 (Simulation time: 12 hr 06 min 38 sec)
Heartbeat CPU 1 instructions: 3060000000 cycles: 1390116144 heartbeat IPC: 2.343 cumulative IPC: 2.174 (Simulation time: 12 hr 07 min 27 sec)
Heartbeat CPU 3 instructions: 1310000003 cycles: 1392201845 heartbeat IPC: 2.667 cumulative IPC: 0.8963 (Simulation time: 12 hr 08 min 32 sec)
Heartbeat CPU 1 instructions: 3070000004 cycles: 1394461866 heartbeat IPC: 2.301 cumulative IPC: 2.175 (Simulation time: 12 hr 09 min 42 sec)
Heartbeat CPU 2 instructions: 860000004 cycles: 1395024781 heartbeat IPC: 0.8839 cumulative IPC: 0.5651 (Simulation time: 12 hr 09 min 59 sec)
Heartbeat CPU 3 instructions: 1320000000 cycles: 1396479604 heartbeat IPC: 2.338 cumulative IPC: 0.9008 (Simulation time: 12 hr 10 min 45 sec)
Heartbeat CPU 1 instructions: 3080000004 cycles: 1398862143 heartbeat IPC: 2.273 cumulative IPC: 2.175 (Simulation time: 12 hr 11 min 52 sec)
Heartbeat CPU 3 instructions: 1330000002 cycles: 1402395139 heartbeat IPC: 1.69 cumulative IPC: 0.9042 (Simulation time: 12 hr 13 min 34 sec)
Heartbeat CPU 1 instructions: 3090000004 cycles: 1403201082 heartbeat IPC: 2.305 cumulative IPC: 2.175 (Simulation time: 12 hr 13 min 57 sec)
Heartbeat CPU 2 instructions: 870000003 cycles: 1406148917 heartbeat IPC: 0.8989 cumulative IPC: 0.5678 (Simulation time: 12 hr 15 min 22 sec)
Heartbeat CPU 1 instructions: 3100000004 cycles: 1407526849 heartbeat IPC: 2.312 cumulative IPC: 2.176 (Simulation time: 12 hr 16 min 02 sec)
Heartbeat CPU 3 instructions: 1340000002 cycles: 1408416075 heartbeat IPC: 1.661 cumulative IPC: 0.9075 (Simulation time: 12 hr 16 min 28 sec)
Heartbeat CPU 1 instructions: 3110000000 cycles: 1411904151 heartbeat IPC: 2.285 cumulative IPC: 2.176 (Simulation time: 12 hr 18 min 08 sec)
Heartbeat CPU 3 instructions: 1350000004 cycles: 1413679905 heartbeat IPC: 1.9 cumulative IPC: 0.9112 (Simulation time: 12 hr 19 min 00 sec)
[...]
cpu2_L2C PREFETCH     ACCESS:          0 HIT:          0 MISS:          0
cpu2_L2C WRITE        ACCESS:          0 HIT:          0 MISS:          0
cpu2_L2C TRANSLATION  ACCESS:          0 HIT:          0 MISS:          0
cpu2_L2C PREFETCH REQUESTED:          0 ISSUED:          0 USEFUL:          0 USELESS:          0
cpu2_L2C AVERAGE MISS LATENCY: 1123 cycles
cpu2_L2C TOTAL        ACCESS:          0 HIT:          0 MISS:          0
cpu2_L2C LOAD         ACCESS:          0 HIT:          0 MISS:          0
cpu2_L2C RFO          ACCESS:          0 HIT:          0 MISS:          0
cpu2_L2C PREFETCH     ACCESS:          0 HIT:          0 MISS:          0
cpu2_L2C WRITE        ACCESS:          0 HIT:          0 MISS:          0
cpu2_L2C TRANSLATION  ACCESS:          0 HIT:          0 MISS:          0
cpu2_L2C PREFETCH REQUESTED:          0 ISSUED:          0 USEFUL:          0 USELESS:          0
cpu2_L2C AVERAGE MISS LATENCY: 1123 cycles
cpu2_L2C TOTAL        ACCESS:    5069428 HIT:    2809044 MISS:    2260384
cpu2_L2C LOAD         ACCESS:     598645 HIT:     235853 MISS:     362792
cpu2_L2C RFO          ACCESS:       2296 HIT:       1570 MISS:        726
cpu2_L2C PREFETCH     ACCESS:    3149910 HIT:    1253536 MISS:    1896374
cpu2_L2C WRITE        ACCESS:    1317766 HIT:    1317766 MISS:          0
cpu2_L2C TRANSLATION  ACCESS:        811 HIT:        319 MISS:        492
cpu2_L2C PREFETCH REQUESTED:          0 ISSUED:          0 USEFUL:          0 USELESS:          0
cpu2_L2C AVERAGE MISS LATENCY: 1123 cycles
cpu2_L2C TOTAL        ACCESS:          0 HIT:          0 MISS:          0
cpu2_L2C LOAD         ACCESS:          0 HIT:          0 MISS:          0
cpu2_L2C RFO          ACCESS:          0 HIT:          0 MISS:          0
cpu2_L2C PREFETCH     ACCESS:          0 HIT:          0 MISS:          0
cpu2_L2C WRITE        ACCESS:          0 HIT:          0 MISS:          0
cpu2_L2C TRANSLATION  ACCESS:          0 HIT:          0 MISS:          0
cpu2_L2C PREFETCH REQUESTED:          0 ISSUED:          0 USEFUL:          0 USELESS:          0
cpu2_L2C AVERAGE MISS LATENCY: 1123 cycles
cpu2_STLB TOTAL        ACCESS:          0 HIT:          0 MISS:          0
cpu2_STLB LOAD         ACCESS:          0 HIT:          0 MISS:          0
cpu2_STLB RFO          ACCESS:          0 HIT:          0 MISS:          0
cpu2_STLB PREFETCH     ACCESS:          0 HIT:          0 MISS:          0
cpu2_STLB WRITE        ACCESS:          0 HIT:          0 MISS:          0
cpu2_STLB TRANSLATION  ACCESS:          0 HIT:          0 MISS:          0
cpu2_STLB PREFETCH REQUESTED:          0 ISSUED:          0 USEFUL:          0 USELESS:          0
cpu2_STLB AVERAGE MISS LATENCY: 218.8 cycles
cpu2_STLB TOTAL        ACCESS:          0 HIT:          0 MISS:          0
cpu2_STLB LOAD         ACCESS:          0 HIT:          0 MISS:          0
cpu2_STLB RFO          ACCESS:          0 HIT:          0 MISS:          0
cpu2_STLB PREFETCH     ACCESS:          0 HIT:          0 MISS:          0
cpu2_STLB WRITE        ACCESS:          0 HIT:          0 MISS:          0
cpu2_STLB TRANSLATION  ACCESS:          0 HIT:          0 MISS:          0
cpu2_STLB PREFETCH REQUESTED:          0 ISSUED:          0 USEFUL:          0 USELESS:          0
cpu2_STLB AVERAGE MISS LATENCY: 218.8 cycles
cpu2_STLB TOTAL        ACCESS:      34988 HIT:      14397 MISS:      20591
cpu2_STLB LOAD         ACCESS:      34988 HIT:      14397 MISS:      20591
cpu2_STLB RFO          ACCESS:          0 HIT:          0 MISS:          0
cpu2_STLB PREFETCH     ACCESS:          0 HIT:          0 MISS:          0
cpu2_STLB WRITE        ACCESS:          0 HIT:          0 MISS:          0
cpu2_STLB TRANSLATION  ACCESS:          0 HIT:          0 MISS:          0
cpu2_STLB PREFETCH REQUESTED:          0 ISSUED:          0 USEFUL:          0 USELESS:          0
cpu2_STLB AVERAGE MISS LATENCY: 218.8 cycles
cpu2_STLB TOTAL        ACCESS:          0 HIT:          0 MISS:          0
cpu2_STLB LOAD         ACCESS:          0 HIT:          0 MISS:          0
cpu2_STLB RFO          ACCESS:          0 HIT:          0 MISS:          0
cpu2_STLB PREFETCH     ACCESS:          0 HIT:          0 MISS:          0
cpu2_STLB WRITE        ACCESS:          0 HIT:          0 MISS:          0
cpu2_STLB TRANSLATION  ACCESS:          0 HIT:          0 MISS:          0
cpu2_STLB PREFETCH REQUESTED:          0 ISSUED:          0 USEFUL:          0 USELESS:          0
cpu2_STLB AVERAGE MISS LATENCY: 218.8 cycles
cpu3_DTLB TOTAL        ACCESS:          0 HIT:          0 MISS:          0
cpu3_DTLB LOAD         ACCESS:          0 HIT:          0 MISS:          0
cpu3_DTLB RFO          ACCESS:          0 HIT:          0 MISS:          0
cpu3_DTLB PREFETCH     ACCESS:          0 HIT:          0 MISS:          0
cpu3_DTLB WRITE        ACCESS:          0 HIT:          0 MISS:          0
cpu3_DTLB TRANSLATION  ACCESS:          0 HIT:          0 MISS:          0
cpu3_DTLB PREFETCH REQUESTED:          0 ISSUED:          0 USEFUL:          0 USELESS:          0
cpu3_DTLB AVERAGE MISS LATENCY: 15.08 cycles
cpu3_DTLB TOTAL        ACCESS:          0 HIT:          0 MISS:          0
cpu3_DTLB LOAD         ACCESS:          0 HIT:          0 MISS:          0
cpu3_DTLB RFO          ACCESS:          0 HIT:          0 MISS:          0
cpu3_DTLB PREFETCH     ACCESS:          0 HIT:          0 MISS:          0
cpu3_DTLB WRITE        ACCESS:          0 HIT:          0 MISS:          0
cpu3_DTLB TRANSLATION  ACCESS:          0 HIT:          0 MISS:          0
cpu3_DTLB PREFETCH REQUESTED:          0 ISSUED:          0 USEFUL:          0 USELESS:          0
cpu3_DTLB AVERAGE MISS LATENCY: 15.08 cycles
cpu3_DTLB TOTAL        ACCESS:          0 HIT:          0 MISS:          0
cpu3_DTLB LOAD         ACCESS:          0 HIT:          0 MISS:          0
cpu3_DTLB RFO          ACCESS:          0 HIT:          0 MISS:          0
cpu3_DTLB PREFETCH     ACCESS:          0 HIT:          0 MISS:          0
cpu3_DTLB WRITE        ACCESS:          0 HIT:          0 MISS:          0
cpu3_DTLB TRANSLATION  ACCESS:          0 HIT:          0 MISS:          0
cpu3_DTLB PREFETCH REQUESTED:          0 ISSUED:          0 USEFUL:          0 USELESS:          0
cpu3_DTLB AVERAGE MISS LATENCY: 15.08 cycles
cpu3_DTLB TOTAL        ACCESS:   22025271 HIT:   21751053 MISS:     274218
cpu3_DTLB LOAD         ACCESS:   22025271 HIT:   21751053 MISS:     274218
cpu3_DTLB RFO          ACCESS:          0 HIT:          0 MISS:          0
cpu3_DTLB PREFETCH     ACCESS:          0 HIT:          0 MISS:          0
cpu3_DTLB WRITE        ACCESS:          0 HIT:          0 MISS:          0
cpu3_DTLB TRANSLATION  ACCESS:          0 HIT:          0 MISS:          0
cpu3_DTLB PREFETCH REQUESTED:          0 ISSUED:          0 USEFUL:          0 USELESS:          0
cpu3_DTLB AVERAGE MISS LATENCY: 15.08 cycles
cpu3_ITLB TOTAL        ACCESS:          0 HIT:          0 MISS:          0
cpu3_ITLB LOAD         ACCESS:          0 HIT:          0 MISS:          0
cpu3_ITLB RFO          ACCESS:          0 HIT:          0 MISS:          0
cpu3_ITLB PREFETCH     ACCESS:          0 HIT:          0 MISS:          0
cpu3_ITLB WRITE        ACCESS:          0 HIT:          0 MISS:          0
cpu3_ITLB TRANSLATION  ACCESS:          0 HIT:          0 MISS:          0
cpu3_ITLB PREFETCH REQUESTED:          0 ISSUED:          0 USEFUL:          0 USELESS:          0
cpu3_ITLB AVERAGE MISS LATENCY: 94.07 cycles
cpu3_ITLB TOTAL        ACCESS:          0 HIT:          0 MISS:          0
cpu3_ITLB LOAD         ACCESS:          0 HIT:          0 MISS:          0
cpu3_ITLB RFO          ACCESS:          0 HIT:          0 MISS:          0
cpu3_ITLB PREFETCH     ACCESS:          0 HIT:          0 MISS:          0
cpu3_ITLB WRITE        ACCESS:          0 HIT:          0 MISS:          0
cpu3_ITLB TRANSLATION  ACCESS:          0 HIT:          0 MISS:          0
cpu3_ITLB PREFETCH REQUESTED:          0 ISSUED:          0 USEFUL:          0 USELESS:          0
cpu3_ITLB AVERAGE MISS LATENCY: 94.07 cycles
cpu3_ITLB TOTAL        ACCESS:          0 HIT:          0 MISS:          0
cpu3_ITLB LOAD         ACCESS:          0 HIT:          0 MISS:          0
cpu3_ITLB RFO          ACCESS:          0 HIT:          0 MISS:          0
cpu3_ITLB PREFETCH     ACCESS:          0 HIT:          0 MISS:          0
cpu3_ITLB WRITE        ACCESS:          0 HIT:          0 MISS:          0
cpu3_ITLB TRANSLATION  ACCESS:          0 HIT:          0 MISS:          0
cpu3_ITLB PREFETCH REQUESTED:          0 ISSUED:          0 USEFUL:          0 USELESS:          0
cpu3_ITLB AVERAGE MISS LATENCY: 94.07 cycles
cpu3_ITLB TOTAL        ACCESS:    2860314 HIT:    2856320 MISS:       3994
cpu3_ITLB LOAD         ACCESS:    2860314 HIT:    2856320 MISS:       3994
cpu3_ITLB RFO          ACCESS:          0 HIT:          0 MISS:          0
cpu3_ITLB PREFETCH     ACCESS:          0 HIT:          0 MISS:          0
cpu3_ITLB WRITE        ACCESS:          0 HIT:          0 MISS:          0
cpu3_ITLB TRANSLATION  ACCESS:          0 HIT:          0 MISS:          0
cpu3_ITLB PREFETCH REQUESTED:          0 ISSUED:          0 USEFUL:          0 USELESS:          0
cpu3_ITLB AVERAGE MISS LATENCY: 94.07 cycles
cpu3_L1D TOTAL        ACCESS:          0 HIT:          0 MISS:          0
cpu3_L1D LOAD         ACCESS:          0 HIT:          0 MISS:          0
cpu3_L1D RFO          ACCESS:          0 HIT:          0 MISS:          0
cpu3_L1D PREFETCH     ACCESS:          0 HIT:          0 MISS:          0
cpu3_L1D WRITE        ACCESS:          0 HIT:          0 MISS:          0
cpu3_L1D TRANSLATION  ACCESS:          0 HIT:          0 MISS:          0
cpu3_L1D PREFETCH REQUESTED:  111682867 ISSUED:   20691409 USEFUL:     659942 USELESS:     317107
cpu3_L1D AVERAGE MISS LATENCY: 540.7 cycles
cpu3_L1D TOTAL        ACCESS:          0 HIT:          0 MISS:          0
cpu3_L1D LOAD         ACCESS:          0 HIT:          0 MISS:          0
cpu3_L1D RFO          ACCESS:          0 HIT:          0 MISS:          0
cpu3_L1D PREFETCH     ACCESS:          0 HIT:          0 MISS:          0
cpu3_L1D WRITE        ACCESS:          0 HIT:          0 MISS:          0
cpu3_L1D TRANSLATION  ACCESS:          0 HIT:          0 MISS:          0
cpu3_L1D PREFETCH REQUESTED:  111682867 ISSUED:   20691409 USEFUL:     659942 USELESS:     317107
cpu3_L1D AVERAGE MISS LATENCY: 540.7 cycles
cpu3_L1D TOTAL        ACCESS:          0 HIT:          0 MISS:          0
cpu3_L1D LOAD         ACCESS:          0 HIT:          0 MISS:          0
cpu3_L1D RFO          ACCESS:          0 HIT:          0 MISS:          0
cpu3_L1D PREFETCH     ACCESS:          0 HIT:          0 MISS:          0
cpu3_L1D WRITE        ACCESS:          0 HIT:          0 MISS:          0
cpu3_L1D TRANSLATION  ACCESS:          0 HIT:          0 MISS:          0
cpu3_L1D PREFETCH REQUESTED:  111682867 ISSUED:   20691409 USEFUL:     659942 USELESS:     317107
cpu3_L1D AVERAGE MISS LATENCY: 540.7 cycles
cpu3_L1D TOTAL        ACCESS:   31694328 HIT:   25885843 MISS:    5808485
cpu3_L1D LOAD         ACCESS:   13743710 HIT:   13211476 MISS:     532234
cpu3_L1D RFO          ACCESS:          0 HIT:          0 MISS:          0
cpu3_L1D PREFETCH     ACCESS:    2654618 HIT:    1954565 MISS:     700053
cpu3_L1D WRITE        ACCESS:   15276553 HIT:   10704682 MISS:    4571871
cpu3_L1D TRANSLATION  ACCESS:      19447 HIT:      15120 MISS:       4327
cpu3_L1D PREFETCH REQUESTED:  111682867 ISSUED:   20691409 USEFUL:     659942 USELESS:     317107
cpu3_L1D AVERAGE MISS LATENCY: 540.7 cycles
cpu3_L1I TOTAL        ACCESS:          0 HIT:          0 MISS:          0
cpu3_L1I LOAD         ACCESS:          0 HIT:          0 MISS:          0
cpu3_L1I RFO          ACCESS:          0 HIT:          0 MISS:          0
cpu3_L1I PREFETCH     ACCESS:          0 HIT:          0 MISS:          0
cpu3_L1I WRITE        ACCESS:          0 HIT:          0 MISS:          0
cpu3_L1I TRANSLATION  ACCESS:          0 HIT:          0 MISS:          0
cpu3_L1I PREFETCH REQUESTED:          0 ISSUED:          0 USEFUL:          0 USELESS:          0
cpu3_L1I AVERAGE MISS LATENCY: 263.1 cycles
cpu3_L1I TOTAL        ACCESS:          0 HIT:          0 MISS:          0
cpu3_L1I LOAD         ACCESS:          0 HIT:          0 MISS:          0
cpu3_L1I RFO          ACCESS:          0 HIT:          0 MISS:          0
cpu3_L1I PREFETCH     ACCESS:          0 HIT:          0 MISS:          0
cpu3_L1I WRITE        ACCESS:          0 HIT:          0 MISS:          0
cpu3_L1I TRANSLATION  ACCESS:          0 HIT:          0 MISS:          0
cpu3_L1I PREFETCH REQUESTED:          0 ISSUED:          0 USEFUL:          0 USELESS:          0
cpu3_L1I AVERAGE MISS LATENCY: 263.1 cycles
cpu3_L1I TOTAL        ACCESS:          0 HIT:          0 MISS:          0
cpu3_L1I LOAD         ACCESS:          0 HIT:          0 MISS:          0
cpu3_L1I RFO          ACCESS:          0 HIT:          0 MISS:          0
cpu3_L1I PREFETCH     ACCESS:          0 HIT:          0 MISS:          0
cpu3_L1I WRITE        ACCESS:          0 HIT:          0 MISS:          0
cpu3_L1I TRANSLATION  ACCESS:          0 HIT:          0 MISS:          0
cpu3_L1I PREFETCH REQUESTED:          0 ISSUED:          0 USEFUL:          0 USELESS:          0
cpu3_L1I AVERAGE MISS LATENCY: 263.1 cycles
cpu3_L1I TOTAL        ACCESS:    3629034 HIT:    3539189 MISS:      89845
cpu3_L1I LOAD         ACCESS:    3629034 HIT:    3539189 MISS:      89845
cpu3_L1I RFO          ACCESS:          0 HIT:          0 MISS:          0
cpu3_L1I PREFETCH     ACCESS:          0 HIT:          0 MISS:          0
cpu3_L1I WRITE        ACCESS:          0 HIT:          0 MISS:          0
cpu3_L1I TRANSLATION  ACCESS:          0 HIT:          0 MISS:          0
cpu3_L1I PREFETCH REQUESTED:          0 ISSUED:          0 USEFUL:          0 USELESS:          0
cpu3_L1I AVERAGE MISS LATENCY: 263.1 cycles
cpu3_L2C TOTAL        ACCESS:          0 HIT:          0 MISS:          0
cpu3_L2C LOAD         ACCESS:          0 HIT:          0 MISS:          0
cpu3_L2C RFO          ACCESS:          0 HIT:          0 MISS:          0
cpu3_L2C PREFETCH     ACCESS:          0 HIT:          0 MISS:          0
cpu3_L2C WRITE        ACCESS:          0 HIT:          0 MISS:          0
cpu3_L2C TRANSLATION  ACCESS:          0 HIT:          0 MISS:          0
cpu3_L2C PREFETCH REQUESTED:          0 ISSUED:          0 USEFUL:          0 USELESS:          0
cpu3_L2C AVERAGE MISS LATENCY: 2948 cycles
cpu3_L2C TOTAL        ACCESS:          0 HIT:          0 MISS:          0
cpu3_L2C LOAD         ACCESS:          0 HIT:          0 MISS:          0
cpu3_L2C RFO          ACCESS:          0 HIT:          0 MISS:          0
cpu3_L2C PREFETCH     ACCESS:          0 HIT:          0 MISS:          0
cpu3_L2C WRITE        ACCESS:          0 HIT:          0 MISS:          0
cpu3_L2C TRANSLATION  ACCESS:          0 HIT:          0 MISS:          0
cpu3_L2C PREFETCH REQUESTED:          0 ISSUED:          0 USEFUL:          0 USELESS:          0
cpu3_L2C AVERAGE MISS LATENCY: 2948 cycles
cpu3_L2C TOTAL        ACCESS:          0 HIT:          0 MISS:          0
cpu3_L2C LOAD         ACCESS:          0 HIT:          0 MISS:          0
cpu3_L2C RFO          ACCESS:          0 HIT:          0 MISS:          0
cpu3_L2C PREFETCH     ACCESS:          0 HIT:          0 MISS:          0
cpu3_L2C WRITE        ACCESS:          0 HIT:          0 MISS:          0
cpu3_L2C TRANSLATION  ACCESS:          0 HIT:          0 MISS:          0
cpu3_L2C PREFETCH REQUESTED:          0 ISSUED:          0 USEFUL:          0 USELESS:          0
cpu3_L2C AVERAGE MISS LATENCY: 2948 cycles
cpu3_L2C TOTAL        ACCESS:    3530519 HIT:    2363290 MISS:    1167229
cpu3_L2C LOAD         ACCESS:     454196 HIT:     346882 MISS:     107314
cpu3_L2C RFO          ACCESS:    1157052 HIT:     189101 MISS:     967951
cpu3_L2C PREFETCH     ACCESS:     682777 HIT:     593963 MISS:      88814
cpu3_L2C WRITE        ACCESS:    1232203 HIT:    1232136 MISS:         67
cpu3_L2C TRANSLATION  ACCESS:       4291 HIT:       1208 MISS:       3083
cpu3_L2C PREFETCH REQUESTED:          0 ISSUED:          0 USEFUL:          0 USELESS:          0
cpu3_L2C AVERAGE MISS LATENCY: 2948 cycles
cpu3_STLB TOTAL        ACCESS:          0 HIT:          0 MISS:          0
cpu3_STLB LOAD         ACCESS:          0 HIT:          0 MISS:          0
cpu3_STLB RFO          ACCESS:          0 HIT:          0 MISS:          0
cpu3_STLB PREFETCH     ACCESS:          0 HIT:          0 MISS:          0
cpu3_STLB WRITE        ACCESS:          0 HIT:          0 MISS:          0
cpu3_STLB TRANSLATION  ACCESS:          0 HIT:          0 MISS:          0
cpu3_STLB PREFETCH REQUESTED:          0 ISSUED:          0 USEFUL:          0 USELESS:          0
cpu3_STLB AVERAGE MISS LATENCY: 245.6 cycles
cpu3_STLB TOTAL        ACCESS:          0 HIT:          0 MISS:          0
cpu3_STLB LOAD         ACCESS:          0 HIT:          0 MISS:          0
cpu3_STLB RFO          ACCESS:          0 HIT:          0 MISS:          0
cpu3_STLB PREFETCH     ACCESS:          0 HIT:          0 MISS:          0
cpu3_STLB WRITE        ACCESS:          0 HIT:          0 MISS:          0
cpu3_STLB TRANSLATION  ACCESS:          0 HIT:          0 MISS:          0
cpu3_STLB PREFETCH REQUESTED:          0 ISSUED:          0 USEFUL:          0 USELESS:          0
cpu3_STLB AVERAGE MISS LATENCY: 245.6 cycles
cpu3_STLB TOTAL        ACCESS:          0 HIT:          0 MISS:          0
cpu3_STLB LOAD         ACCESS:          0 HIT:          0 MISS:          0
cpu3_STLB RFO          ACCESS:          0 HIT:          0 MISS:          0
cpu3_STLB PREFETCH     ACCESS:          0 HIT:          0 MISS:          0
cpu3_STLB WRITE        ACCESS:          0 HIT:          0 MISS:          0
cpu3_STLB TRANSLATION  ACCESS:          0 HIT:          0 MISS:          0
cpu3_STLB PREFETCH REQUESTED:          0 ISSUED:          0 USEFUL:          0 USELESS:          0
cpu3_STLB AVERAGE MISS LATENCY: 245.6 cycles
cpu3_STLB TOTAL        ACCESS:      95526 HIT:      76448 MISS:      19078
cpu3_STLB LOAD         ACCESS:      95526 HIT:      76448 MISS:      19078
cpu3_STLB RFO          ACCESS:          0 HIT:          0 MISS:          0
cpu3_STLB PREFETCH     ACCESS:          0 HIT:          0 MISS:          0
cpu3_STLB WRITE        ACCESS:          0 HIT:          0 MISS:          0
cpu3_STLB TRANSLATION  ACCESS:          0 HIT:          0 MISS:          0
cpu3_STLB PREFETCH REQUESTED:          0 ISSUED:          0 USEFUL:          0 USELESS:          0
cpu3_STLB AVERAGE MISS LATENCY: 245.6 cycles

DRAM Statistics

Channel 0 RQ ROW_BUFFER_HIT:    4313465
  ROW_BUFFER_MISS:   13085712
 AVG DBUS CONGESTED CYCLE: 3.989
WQ ROW_BUFFER_HIT: Channel 0 
  ROW_BUFFER_MISS:     646148
  FULL:   14157253
BERTI TO_L1: 201244388 TO_L2: 141643655 TO_L2_BC_MSHR: 18111907
BERTI AVG_LAT: 932.505 NUM_TRACK_LATENCY: 20088948 NUM_CANT_TRACK_LATENCY: 541311
BERTI CROSS_PAGE 66833892 NO_CROSS_PAGE: 276054151
BERTI FOUND_BERTI: 116943002 NO_FOUND_BERTI: 594184773
BERTI AVERAGE_ISSUED: 4.15131
BERTI TO_L1: 201244388 TO_L2: 141643655 TO_L2_BC_MSHR: 18111907
BERTI AVG_LAT: 932.505 NUM_TRACK_LATENCY: 20088948 NUM_CANT_TRACK_LATENCY: 541311
BERTI CROSS_PAGE 66833892 NO_CROSS_PAGE: 276054151
BERTI FOUND_BERTI: 116943002 NO_FOUND_BERTI: 594184773
BERTI AVERAGE_ISSUED: 4.15131
BERTI TO_L1: 201244388 TO_L2: 141643655 TO_L2_BC_MSHR: 18111907
BERTI AVG_LAT: 932.505 NUM_TRACK_LATENCY: 20088948 NUM_CANT_TRACK_LATENCY: 541311
BERTI CROSS_PAGE 66833892 NO_CROSS_PAGE: 276054151
BERTI FOUND_BERTI: 116943002 NO_FOUND_BERTI: 594184773
BERTI AVERAGE_ISSUED: 4.15131
BERTI TO_L1: 201244388 TO_L2: 141643655 TO_L2_BC_MSHR: 18111907
BERTI AVG_LAT: 932.505 NUM_TRACK_LATENCY: 20088948 NUM_CANT_TRACK_LATENCY: 541311
BERTI CROSS_PAGE 66833892 NO_CROSS_PAGE: 276054151
BERTI FOUND_BERTI: 116943002 NO_FOUND_BERTI: 594184773
BERTI AVERAGE_ISSUED: 4.15131
