WARNING: physical memory size is smaller than virtual memory size.
WARNING: option --warmup_instructions is deprecated. Use --warmup-instructions instead.
WARNING: option --simulation_instructions is deprecated. Use --simulation-instructions instead.

*** ChampSim Multicore Out-of-Order Simulator ***
Warmup Instructions: 50000000
Simulation Instructions: 150000000
Number of CPUs: 4
Page size: 4096

Berti Prefetcher
BERTI HASH ORIGINAL
BERTI IP MASK ffff
Berti Prefetcher
BERTI HASH ORIGINAL
BERTI IP MASK ffff
Berti Prefetcher
BERTI HASH ORIGINAL
BERTI IP MASK ffff
Berti Prefetcher
BERTI HASH ORIGINAL
BERTI IP MASK ffff
Off-chip DRAM Size: 4 GiB Channels: 1 Width: 64-bit Data Race: 3200 MT/s
Heartbeat CPU 1 instructions: 10000003 cycles: 2521875 heartbeat IPC: 3.965 cumulative IPC: 3.965 (Simulation time: 00 hr 02 min 22 sec)
Heartbeat CPU 3 instructions: 10000002 cycles: 3379579 heartbeat IPC: 2.959 cumulative IPC: 2.959 (Simulation time: 00 hr 03 min 10 sec)
Heartbeat CPU 2 instructions: 10000002 cycles: 3770264 heartbeat IPC: 2.652 cumulative IPC: 2.652 (Simulation time: 00 hr 03 min 34 sec)
Heartbeat CPU 0 instructions: 10000002 cycles: 4174429 heartbeat IPC: 2.396 cumulative IPC: 2.396 (Simulation time: 00 hr 03 min 57 sec)
Heartbeat CPU 1 instructions: 20000001 cycles: 5038237 heartbeat IPC: 3.974 cumulative IPC: 3.97 (Simulation time: 00 hr 04 min 46 sec)
Heartbeat CPU 3 instructions: 20000000 cycles: 6751838 heartbeat IPC: 2.965 cumulative IPC: 2.962 (Simulation time: 00 hr 06 min 29 sec)
Heartbeat CPU 2 instructions: 20000002 cycles: 7536034 heartbeat IPC: 2.655 cumulative IPC: 2.654 (Simulation time: 00 hr 07 min 15 sec)
Heartbeat CPU 1 instructions: 30000000 cycles: 7553266 heartbeat IPC: 3.976 cumulative IPC: 3.972 (Simulation time: 00 hr 07 min 16 sec)
Heartbeat CPU 0 instructions: 20000003 cycles: 8346381 heartbeat IPC: 2.397 cumulative IPC: 2.396 (Simulation time: 00 hr 08 min 02 sec)
Heartbeat CPU 1 instructions: 40000003 cycles: 10077277 heartbeat IPC: 3.962 cumulative IPC: 3.969 (Simulation time: 00 hr 09 min 43 sec)
Heartbeat CPU 3 instructions: 30000002 cycles: 10110300 heartbeat IPC: 2.978 cumulative IPC: 2.967 (Simulation time: 00 hr 09 min 45 sec)
Heartbeat CPU 2 instructions: 30000002 cycles: 11304245 heartbeat IPC: 2.654 cumulative IPC: 2.654 (Simulation time: 00 hr 10 min 54 sec)
Heartbeat CPU 0 instructions: 30000001 cycles: 12519605 heartbeat IPC: 2.396 cumulative IPC: 2.396 (Simulation time: 00 hr 12 min 05 sec)
Heartbeat CPU 1 instructions: 50000000 cycles: 12599099 heartbeat IPC: 3.965 cumulative IPC: 3.969 (Simulation time: 00 hr 12 min 10 sec)
Warmup finished CPU 1 instructions: 50000000 cycles: 12599100 cumulative IPC: 3.969 (Simulation time: 00 hr 12 min 10 sec)
Heartbeat CPU 3 instructions: 40000000 cycles: 13500919 heartbeat IPC: 2.949 cumulative IPC: 2.963 (Simulation time: 00 hr 13 min 03 sec)
Heartbeat CPU 2 instructions: 40000003 cycles: 15072338 heartbeat IPC: 2.654 cumulative IPC: 2.654 (Simulation time: 00 hr 14 min 37 sec)
Heartbeat CPU 1 instructions: 60000002 cycles: 15124094 heartbeat IPC: 3.96 cumulative IPC: 3.967 (Simulation time: 00 hr 14 min 40 sec)
Heartbeat CPU 0 instructions: 40000000 cycles: 16706417 heartbeat IPC: 2.388 cumulative IPC: 2.394 (Simulation time: 00 hr 16 min 16 sec)
Heartbeat CPU 3 instructions: 50000002 cycles: 16897238 heartbeat IPC: 2.944 cumulative IPC: 2.959 (Simulation time: 00 hr 16 min 27 sec)
Warmup finished CPU 3 instructions: 50000002 cycles: 16897239 cumulative IPC: 2.959 (Simulation time: 00 hr 16 min 27 sec)
Heartbeat CPU 1 instructions: 70000000 cycles: 17648868 heartbeat IPC: 3.961 cumulative IPC: 3.966 (Simulation time: 00 hr 17 min 13 sec)
Heartbeat CPU 2 instructions: 50000002 cycles: 18838562 heartbeat IPC: 2.655 cumulative IPC: 2.654 (Simulation time: 00 hr 18 min 25 sec)
Warmup finished CPU 2 instructions: 50000002 cycles: 18838563 cumulative IPC: 2.654 (Simulation time: 00 hr 18 min 25 sec)
Heartbeat CPU 1 instructions: 80000001 cycles: 20174084 heartbeat IPC: 3.96 cumulative IPC: 3.965 (Simulation time: 00 hr 19 min 44 sec)
Heartbeat CPU 3 instructions: 60000001 cycles: 20317238 heartbeat IPC: 2.924 cumulative IPC: 2.953 (Simulation time: 00 hr 19 min 51 sec)
Heartbeat CPU 0 instructions: 50000000 cycles: 20872474 heartbeat IPC: 2.4 cumulative IPC: 2.395 (Simulation time: 00 hr 20 min 23 sec)
Warmup finished CPU 0 instructions: 50000000 cycles: 20872475 cumulative IPC: 2.395 (Simulation time: 00 hr 20 min 23 sec)
Warmup complete CPU 0 instructions: 50000000 cycles: 20872475 cumulative IPC: 2.395 (Simulation time: 00 hr 20 min 23 sec)
Warmup complete CPU 1 instructions: 82764894 cycles: 20872475 cumulative IPC: 3.965 (Simulation time: 00 hr 20 min 23 sec)
Warmup complete CPU 2 instructions: 55215542 cycles: 20872475 cumulative IPC: 2.645 (Simulation time: 00 hr 20 min 23 sec)
Warmup complete CPU 3 instructions: 61646180 cycles: 20872475 cumulative IPC: 2.953 (Simulation time: 00 hr 20 min 23 sec)
Heartbeat CPU 1 instructions: 90000002 cycles: 24089864 heartbeat IPC: 2.554 cumulative IPC: 2.249 (Simulation time: 00 hr 22 min 03 sec)
Heartbeat CPU 1 instructions: 100000002 cycles: 28492494 heartbeat IPC: 2.271 cumulative IPC: 2.262 (Simulation time: 00 hr 24 min 24 sec)
Heartbeat CPU 1 instructions: 110000002 cycles: 33075475 heartbeat IPC: 2.182 cumulative IPC: 2.232 (Simulation time: 00 hr 26 min 39 sec)
Heartbeat CPU 2 instructions: 60000002 cycles: 36518908 heartbeat IPC: 0.5656 cumulative IPC: 0.3058 (Simulation time: 00 hr 28 min 19 sec)
Heartbeat CPU 1 instructions: 120000001 cycles: 37429553 heartbeat IPC: 2.297 cumulative IPC: 2.249 (Simulation time: 00 hr 28 min 45 sec)
Heartbeat CPU 1 instructions: 130000000 cycles: 42021241 heartbeat IPC: 2.178 cumulative IPC: 2.233 (Simulation time: 00 hr 30 min 56 sec)
Heartbeat CPU 1 instructions: 140000000 cycles: 46579564 heartbeat IPC: 2.194 cumulative IPC: 2.226 (Simulation time: 00 hr 33 min 07 sec)
Heartbeat CPU 1 instructions: 150000002 cycles: 51119775 heartbeat IPC: 2.203 cumulative IPC: 2.223 (Simulation time: 00 hr 35 min 18 sec)
Heartbeat CPU 1 instructions: 160000001 cycles: 55743667 heartbeat IPC: 2.163 cumulative IPC: 2.215 (Simulation time: 00 hr 37 min 36 sec)
Heartbeat CPU 1 instructions: 170000000 cycles: 60270706 heartbeat IPC: 2.209 cumulative IPC: 2.214 (Simulation time: 00 hr 39 min 56 sec)
Heartbeat CPU 1 instructions: 180000000 cycles: 64882955 heartbeat IPC: 2.168 cumulative IPC: 2.209 (Simulation time: 00 hr 42 min 09 sec)
Heartbeat CPU 2 instructions: 70000000 cycles: 68333981 heartbeat IPC: 0.3143 cumulative IPC: 0.3115 (Simulation time: 00 hr 43 min 50 sec)
Heartbeat CPU 1 instructions: 190000000 cycles: 69441351 heartbeat IPC: 2.194 cumulative IPC: 2.208 (Simulation time: 00 hr 44 min 21 sec)
Heartbeat CPU 1 instructions: 200000004 cycles: 73950886 heartbeat IPC: 2.218 cumulative IPC: 2.209 (Simulation time: 00 hr 46 min 34 sec)
Heartbeat CPU 3 instructions: 70000003 cycles: 76779869 heartbeat IPC: 0.1771 cumulative IPC: 0.1494 (Simulation time: 00 hr 47 min 51 sec)
Heartbeat CPU 1 instructions: 210000001 cycles: 78633972 heartbeat IPC: 2.135 cumulative IPC: 2.203 (Simulation time: 00 hr 48 min 44 sec)
Heartbeat CPU 1 instructions: 220000002 cycles: 83520405 heartbeat IPC: 2.046 cumulative IPC: 2.191 (Simulation time: 00 hr 51 min 08 sec)
Heartbeat CPU 1 instructions: 230000000 cycles: 88152593 heartbeat IPC: 2.159 cumulative IPC: 2.188 (Simulation time: 00 hr 53 min 21 sec)
Simulation finished CPU 1 instructions: 150000004 cycles: 68579062 cumulative IPC: 2.187 (Simulation time: 00 hr 53 min 56 sec)
Heartbeat CPU 1 instructions: 240000001 cycles: 92843352 heartbeat IPC: 2.132 cumulative IPC: 2.185 (Simulation time: 00 hr 55 min 33 sec)
Heartbeat CPU 1 instructions: 250000001 cycles: 97451569 heartbeat IPC: 2.17 cumulative IPC: 2.184 (Simulation time: 00 hr 57 min 45 sec)
Heartbeat CPU 2 instructions: 80000001 cycles: 99999162 heartbeat IPC: 0.3158 cumulative IPC: 0.3132 (Simulation time: 00 hr 58 min 58 sec)
Heartbeat CPU 1 instructions: 260000000 cycles: 102010665 heartbeat IPC: 2.193 cumulative IPC: 2.184 (Simulation time: 00 hr 59 min 50 sec)
Heartbeat CPU 1 instructions: 270000003 cycles: 106682145 heartbeat IPC: 2.141 cumulative IPC: 2.182 (Simulation time: 01 hr 01 min 58 sec)
Heartbeat CPU 1 instructions: 280000003 cycles: 111268373 heartbeat IPC: 2.18 cumulative IPC: 2.182 (Simulation time: 01 hr 03 min 59 sec)
Heartbeat CPU 1 instructions: 290000001 cycles: 115870398 heartbeat IPC: 2.173 cumulative IPC: 2.181 (Simulation time: 01 hr 06 min 05 sec)
Heartbeat CPU 1 instructions: 300000001 cycles: 120453518 heartbeat IPC: 2.182 cumulative IPC: 2.181 (Simulation time: 01 hr 08 min 12 sec)
Heartbeat CPU 1 instructions: 310000003 cycles: 124975250 heartbeat IPC: 2.212 cumulative IPC: 2.183 (Simulation time: 01 hr 10 min 19 sec)
Heartbeat CPU 1 instructions: 320000002 cycles: 129580662 heartbeat IPC: 2.171 cumulative IPC: 2.182 (Simulation time: 01 hr 12 min 28 sec)
Heartbeat CPU 2 instructions: 90000000 cycles: 131887033 heartbeat IPC: 0.3136 cumulative IPC: 0.3133 (Simulation time: 01 hr 13 min 30 sec)
Heartbeat CPU 1 instructions: 330000004 cycles: 134232061 heartbeat IPC: 2.15 cumulative IPC: 2.181 (Simulation time: 01 hr 14 min 35 sec)
Heartbeat CPU 1 instructions: 340000001 cycles: 138911696 heartbeat IPC: 2.137 cumulative IPC: 2.179 (Simulation time: 01 hr 16 min 45 sec)
Heartbeat CPU 3 instructions: 80000003 cycles: 141706927 heartbeat IPC: 0.154 cumulative IPC: 0.1519 (Simulation time: 01 hr 18 min 02 sec)
Heartbeat CPU 1 instructions: 350000001 cycles: 143594914 heartbeat IPC: 2.135 cumulative IPC: 2.178 (Simulation time: 01 hr 18 min 54 sec)
Heartbeat CPU 1 instructions: 360000004 cycles: 148390616 heartbeat IPC: 2.085 cumulative IPC: 2.174 (Simulation time: 01 hr 21 min 05 sec)
Heartbeat CPU 1 instructions: 370000000 cycles: 152971545 heartbeat IPC: 2.183 cumulative IPC: 2.174 (Simulation time: 01 hr 23 min 18 sec)
Heartbeat CPU 1 instructions: 380000000 cycles: 157605724 heartbeat IPC: 2.158 cumulative IPC: 2.174 (Simulation time: 01 hr 25 min 21 sec)
Heartbeat CPU 1 instructions: 390000000 cycles: 162189893 heartbeat IPC: 2.181 cumulative IPC: 2.174 (Simulation time: 01 hr 27 min 27 sec)
Heartbeat CPU 2 instructions: 100000000 cycles: 163370452 heartbeat IPC: 0.3176 cumulative IPC: 0.3143 (Simulation time: 01 hr 27 min 58 sec)
Heartbeat CPU 1 instructions: 400000000 cycles: 166779340 heartbeat IPC: 2.179 cumulative IPC: 2.174 (Simulation time: 01 hr 29 min 30 sec)
Heartbeat CPU 1 instructions: 410000000 cycles: 171350799 heartbeat IPC: 2.187 cumulative IPC: 2.175 (Simulation time: 01 hr 31 min 34 sec)
Heartbeat CPU 1 instructions: 420000004 cycles: 175954551 heartbeat IPC: 2.172 cumulative IPC: 2.175 (Simulation time: 01 hr 33 min 37 sec)
Heartbeat CPU 1 instructions: 430000002 cycles: 180608436 heartbeat IPC: 2.149 cumulative IPC: 2.174 (Simulation time: 01 hr 35 min 40 sec)
Heartbeat CPU 1 instructions: 440000003 cycles: 185209227 heartbeat IPC: 2.174 cumulative IPC: 2.174 (Simulation time: 01 hr 37 min 42 sec)
Heartbeat CPU 1 instructions: 450000003 cycles: 189666683 heartbeat IPC: 2.243 cumulative IPC: 2.176 (Simulation time: 01 hr 39 min 42 sec)
Heartbeat CPU 1 instructions: 460000003 cycles: 194374024 heartbeat IPC: 2.124 cumulative IPC: 2.174 (Simulation time: 01 hr 41 min 45 sec)
Heartbeat CPU 2 instructions: 110000003 cycles: 194743922 heartbeat IPC: 0.3187 cumulative IPC: 0.3151 (Simulation time: 01 hr 41 min 54 sec)
Heartbeat CPU 1 instructions: 470000002 cycles: 198734685 heartbeat IPC: 2.293 cumulative IPC: 2.177 (Simulation time: 01 hr 43 min 38 sec)
Heartbeat CPU 1 instructions: 480000000 cycles: 203241340 heartbeat IPC: 2.219 cumulative IPC: 2.178 (Simulation time: 01 hr 45 min 41 sec)
Heartbeat CPU 3 instructions: 90000002 cycles: 206591446 heartbeat IPC: 0.1541 cumulative IPC: 0.1527 (Simulation time: 01 hr 47 min 05 sec)
Heartbeat CPU 1 instructions: 490000002 cycles: 207582166 heartbeat IPC: 2.304 cumulative IPC: 2.181 (Simulation time: 01 hr 47 min 31 sec)
Heartbeat CPU 1 instructions: 500000000 cycles: 212031243 heartbeat IPC: 2.248 cumulative IPC: 2.183 (Simulation time: 01 hr 49 min 32 sec)
Heartbeat CPU 1 instructions: 510000004 cycles: 216361761 heartbeat IPC: 2.309 cumulative IPC: 2.185 (Simulation time: 01 hr 51 min 29 sec)
Heartbeat CPU 1 instructions: 520000000 cycles: 220801733 heartbeat IPC: 2.252 cumulative IPC: 2.187 (Simulation time: 01 hr 53 min 31 sec)
Heartbeat CPU 2 instructions: 120000001 cycles: 226954601 heartbeat IPC: 0.3105 cumulative IPC: 0.3144 (Simulation time: 01 hr 56 min 06 sec)
Heartbeat CPU 1 instructions: 530000002 cycles: 230601386 heartbeat IPC: 1.02 cumulative IPC: 2.132 (Simulation time: 01 hr 57 min 35 sec)
Heartbeat CPU 1 instructions: 540000003 cycles: 238816969 heartbeat IPC: 1.217 cumulative IPC: 2.098 (Simulation time: 02 hr 01 min 01 sec)
Heartbeat CPU 1 instructions: 550000002 cycles: 243153498 heartbeat IPC: 2.306 cumulative IPC: 2.102 (Simulation time: 02 hr 02 min 56 sec)
Heartbeat CPU 1 instructions: 560000000 cycles: 247593849 heartbeat IPC: 2.252 cumulative IPC: 2.105 (Simulation time: 02 hr 04 min 58 sec)
Heartbeat CPU 0 instructions: 60000003 cycles: 248046848 heartbeat IPC: 0.04402 cumulative IPC: 0.04402 (Simulation time: 02 hr 05 min 10 sec)
Heartbeat CPU 1 instructions: 570000001 cycles: 251943221 heartbeat IPC: 2.299 cumulative IPC: 2.109 (Simulation time: 02 hr 06 min 48 sec)
Heartbeat CPU 1 instructions: 580000001 cycles: 256314265 heartbeat IPC: 2.288 cumulative IPC: 2.112 (Simulation time: 02 hr 08 min 48 sec)
Heartbeat CPU 1 instructions: 590000002 cycles: 260600393 heartbeat IPC: 2.333 cumulative IPC: 2.116 (Simulation time: 02 hr 10 min 44 sec)
Heartbeat CPU 2 instructions: 130000001 cycles: 260749693 heartbeat IPC: 0.2959 cumulative IPC: 0.3118 (Simulation time: 02 hr 10 min 49 sec)
Heartbeat CPU 1 instructions: 600000000 cycles: 264868978 heartbeat IPC: 2.343 cumulative IPC: 2.12 (Simulation time: 02 hr 12 min 35 sec)
Heartbeat CPU 1 instructions: 610000000 cycles: 269236693 heartbeat IPC: 2.29 cumulative IPC: 2.123 (Simulation time: 02 hr 14 min 30 sec)
Heartbeat CPU 1 instructions: 620000001 cycles: 273633682 heartbeat IPC: 2.274 cumulative IPC: 2.125 (Simulation time: 02 hr 16 min 26 sec)
Heartbeat CPU 3 instructions: 100000000 cycles: 274832355 heartbeat IPC: 0.1465 cumulative IPC: 0.151 (Simulation time: 02 hr 16 min 58 sec)
Heartbeat CPU 1 instructions: 630000001 cycles: 278083620 heartbeat IPC: 2.247 cumulative IPC: 2.128 (Simulation time: 02 hr 18 min 27 sec)
Heartbeat CPU 1 instructions: 640000001 cycles: 282429032 heartbeat IPC: 2.301 cumulative IPC: 2.13 (Simulation time: 02 hr 20 min 15 sec)
Heartbeat CPU 1 instructions: 650000000 cycles: 286878823 heartbeat IPC: 2.247 cumulative IPC: 2.132 (Simulation time: 02 hr 22 min 10 sec)
Heartbeat CPU 1 instructions: 660000002 cycles: 291398913 heartbeat IPC: 2.212 cumulative IPC: 2.134 (Simulation time: 02 hr 24 min 05 sec)
Heartbeat CPU 2 instructions: 140000002 cycles: 291625304 heartbeat IPC: 0.3239 cumulative IPC: 0.3131 (Simulation time: 02 hr 24 min 12 sec)
Heartbeat CPU 1 instructions: 670000001 cycles: 295928746 heartbeat IPC: 2.208 cumulative IPC: 2.135 (Simulation time: 02 hr 26 min 06 sec)
Heartbeat CPU 1 instructions: 680000004 cycles: 300565800 heartbeat IPC: 2.157 cumulative IPC: 2.135 (Simulation time: 02 hr 28 min 05 sec)
Heartbeat CPU 1 instructions: 690000001 cycles: 305174786 heartbeat IPC: 2.17 cumulative IPC: 2.136 (Simulation time: 02 hr 30 min 01 sec)
Heartbeat CPU 1 instructions: 700000000 cycles: 309836504 heartbeat IPC: 2.145 cumulative IPC: 2.136 (Simulation time: 02 hr 32 min 06 sec)
Heartbeat CPU 1 instructions: 710000002 cycles: 314433646 heartbeat IPC: 2.175 cumulative IPC: 2.137 (Simulation time: 02 hr 34 min 03 sec)
Heartbeat CPU 1 instructions: 720000004 cycles: 319071715 heartbeat IPC: 2.156 cumulative IPC: 2.137 (Simulation time: 02 hr 36 min 04 sec)
Heartbeat CPU 2 instructions: 150000004 cycles: 323540581 heartbeat IPC: 0.3133 cumulative IPC: 0.3132 (Simulation time: 02 hr 37 min 59 sec)
Heartbeat CPU 1 instructions: 730000002 cycles: 323699429 heartbeat IPC: 2.161 cumulative IPC: 2.137 (Simulation time: 02 hr 38 min 04 sec)
Heartbeat CPU 1 instructions: 740000004 cycles: 328319089 heartbeat IPC: 2.165 cumulative IPC: 2.138 (Simulation time: 02 hr 39 min 57 sec)
Heartbeat CPU 1 instructions: 750000001 cycles: 332968166 heartbeat IPC: 2.151 cumulative IPC: 2.138 (Simulation time: 02 hr 41 min 56 sec)
Heartbeat CPU 1 instructions: 760000000 cycles: 337608516 heartbeat IPC: 2.155 cumulative IPC: 2.138 (Simulation time: 02 hr 43 min 53 sec)
Heartbeat CPU 3 instructions: 110000002 cycles: 338922434 heartbeat IPC: 0.156 cumulative IPC: 0.152 (Simulation time: 02 hr 44 min 27 sec)
Heartbeat CPU 1 instructions: 770000002 cycles: 342202611 heartbeat IPC: 2.177 cumulative IPC: 2.139 (Simulation time: 02 hr 45 min 52 sec)
Heartbeat CPU 1 instructions: 780000002 cycles: 346782715 heartbeat IPC: 2.183 cumulative IPC: 2.139 (Simulation time: 02 hr 47 min 46 sec)
Heartbeat CPU 1 instructions: 790000002 cycles: 351340763 heartbeat IPC: 2.194 cumulative IPC: 2.14 (Simulation time: 02 hr 49 min 39 sec)
Heartbeat CPU 2 instructions: 160000004 cycles: 355572533 heartbeat IPC: 0.3122 cumulative IPC: 0.3131 (Simulation time: 02 hr 51 min 24 sec)
Heartbeat CPU 1 instructions: 800000001 cycles: 355841212 heartbeat IPC: 2.222 cumulative IPC: 2.141 (Simulation time: 02 hr 51 min 31 sec)
Heartbeat CPU 1 instructions: 810000000 cycles: 360452169 heartbeat IPC: 2.169 cumulative IPC: 2.142 (Simulation time: 02 hr 53 min 27 sec)
Heartbeat CPU 1 instructions: 820000000 cycles: 364926501 heartbeat IPC: 2.235 cumulative IPC: 2.143 (Simulation time: 02 hr 55 min 20 sec)
Heartbeat CPU 1 instructions: 830000004 cycles: 369464829 heartbeat IPC: 2.203 cumulative IPC: 2.144 (Simulation time: 02 hr 57 min 12 sec)
Heartbeat CPU 1 instructions: 840000003 cycles: 374121067 heartbeat IPC: 2.148 cumulative IPC: 2.144 (Simulation time: 02 hr 59 min 03 sec)
Heartbeat CPU 1 instructions: 850000001 cycles: 378657201 heartbeat IPC: 2.205 cumulative IPC: 2.144 (Simulation time: 03 hr 00 min 53 sec)
Heartbeat CPU 1 instructions: 860000003 cycles: 383274176 heartbeat IPC: 2.166 cumulative IPC: 2.145 (Simulation time: 03 hr 02 min 40 sec)
Heartbeat CPU 2 instructions: 170000000 cycles: 387030873 heartbeat IPC: 0.3179 cumulative IPC: 0.3135 (Simulation time: 03 hr 04 min 05 sec)
Heartbeat CPU 1 instructions: 870000003 cycles: 387820591 heartbeat IPC: 2.2 cumulative IPC: 2.145 (Simulation time: 03 hr 04 min 24 sec)
Heartbeat CPU 1 instructions: 880000000 cycles: 392472280 heartbeat IPC: 2.15 cumulative IPC: 2.145 (Simulation time: 03 hr 06 min 19 sec)
Heartbeat CPU 1 instructions: 890000004 cycles: 397068422 heartbeat IPC: 2.176 cumulative IPC: 2.146 (Simulation time: 03 hr 08 min 08 sec)
Heartbeat CPU 1 instructions: 900000000 cycles: 401627819 heartbeat IPC: 2.193 cumulative IPC: 2.146 (Simulation time: 03 hr 09 min 58 sec)
Heartbeat CPU 3 instructions: 120000003 cycles: 404677710 heartbeat IPC: 0.1521 cumulative IPC: 0.152 (Simulation time: 03 hr 11 min 11 sec)
Heartbeat CPU 1 instructions: 910000003 cycles: 406251815 heartbeat IPC: 2.163 cumulative IPC: 2.147 (Simulation time: 03 hr 11 min 47 sec)
Heartbeat CPU 1 instructions: 920000001 cycles: 410769029 heartbeat IPC: 2.214 cumulative IPC: 2.147 (Simulation time: 03 hr 13 min 36 sec)
Heartbeat CPU 1 instructions: 930000001 cycles: 415342795 heartbeat IPC: 2.186 cumulative IPC: 2.148 (Simulation time: 03 hr 15 min 28 sec)
Heartbeat CPU 2 instructions: 180000001 cycles: 418810542 heartbeat IPC: 0.3147 cumulative IPC: 0.3136 (Simulation time: 03 hr 16 min 55 sec)
Heartbeat CPU 1 instructions: 940000000 cycles: 420014838 heartbeat IPC: 2.14 cumulative IPC: 2.148 (Simulation time: 03 hr 17 min 25 sec)
Heartbeat CPU 1 instructions: 950000000 cycles: 424654370 heartbeat IPC: 2.155 cumulative IPC: 2.148 (Simulation time: 03 hr 19 min 12 sec)
Heartbeat CPU 1 instructions: 960000003 cycles: 429296506 heartbeat IPC: 2.154 cumulative IPC: 2.148 (Simulation time: 03 hr 21 min 01 sec)
Heartbeat CPU 1 instructions: 970000001 cycles: 433864461 heartbeat IPC: 2.189 cumulative IPC: 2.148 (Simulation time: 03 hr 22 min 52 sec)
Heartbeat CPU 1 instructions: 980000000 cycles: 438533396 heartbeat IPC: 2.142 cumulative IPC: 2.148 (Simulation time: 03 hr 24 min 47 sec)
Heartbeat CPU 1 instructions: 990000004 cycles: 443103020 heartbeat IPC: 2.188 cumulative IPC: 2.149 (Simulation time: 03 hr 26 min 38 sec)
Heartbeat CPU 1 instructions: 1000000004 cycles: 447703741 heartbeat IPC: 2.174 cumulative IPC: 2.149 (Simulation time: 03 hr 28 min 36 sec)
Heartbeat CPU 2 instructions: 190000002 cycles: 450541511 heartbeat IPC: 0.3151 cumulative IPC: 0.3137 (Simulation time: 03 hr 29 min 43 sec)
Heartbeat CPU 1 instructions: 1010000000 cycles: 452352728 heartbeat IPC: 2.151 cumulative IPC: 2.149 (Simulation time: 03 hr 30 min 27 sec)
Heartbeat CPU 1 instructions: 1020000002 cycles: 456914301 heartbeat IPC: 2.192 cumulative IPC: 2.149 (Simulation time: 03 hr 32 min 15 sec)
Heartbeat CPU 1 instructions: 1030000004 cycles: 461418246 heartbeat IPC: 2.22 cumulative IPC: 2.15 (Simulation time: 03 hr 34 min 05 sec)
Heartbeat CPU 0 instructions: 70000002 cycles: 465677741 heartbeat IPC: 0.04595 cumulative IPC: 0.04496 (Simulation time: 03 hr 35 min 52 sec)
Heartbeat CPU 1 instructions: 1040000001 cycles: 465862488 heartbeat IPC: 2.25 cumulative IPC: 2.151 (Simulation time: 03 hr 35 min 58 sec)
Heartbeat CPU 3 instructions: 130000000 cycles: 468387572 heartbeat IPC: 0.157 cumulative IPC: 0.1527 (Simulation time: 03 hr 37 min 00 sec)
Heartbeat CPU 1 instructions: 1050000004 cycles: 470154104 heartbeat IPC: 2.33 cumulative IPC: 2.153 (Simulation time: 03 hr 37 min 44 sec)
Heartbeat CPU 1 instructions: 1060000001 cycles: 474495389 heartbeat IPC: 2.303 cumulative IPC: 2.154 (Simulation time: 03 hr 39 min 47 sec)
Heartbeat CPU 1 instructions: 1070000000 cycles: 478920506 heartbeat IPC: 2.26 cumulative IPC: 2.155 (Simulation time: 03 hr 41 min 39 sec)
Heartbeat CPU 2 instructions: 200000002 cycles: 481862219 heartbeat IPC: 0.3193 cumulative IPC: 0.3141 (Simulation time: 03 hr 42 min 55 sec)
Heartbeat CPU 1 instructions: 1080000000 cycles: 483334125 heartbeat IPC: 2.266 cumulative IPC: 2.156 (Simulation time: 03 hr 43 min 36 sec)
Heartbeat CPU 1 instructions: 1090000003 cycles: 487635156 heartbeat IPC: 2.325 cumulative IPC: 2.158 (Simulation time: 03 hr 45 min 20 sec)
Heartbeat CPU 1 instructions: 1100000000 cycles: 491919096 heartbeat IPC: 2.334 cumulative IPC: 2.16 (Simulation time: 03 hr 47 min 09 sec)
Heartbeat CPU 1 instructions: 1110000001 cycles: 496407938 heartbeat IPC: 2.228 cumulative IPC: 2.16 (Simulation time: 03 hr 49 min 10 sec)
Simulation finished CPU 2 instructions: 150000000 cycles: 477101428 cumulative IPC: 0.3144 (Simulation time: 03 hr 49 min 51 sec)
Heartbeat CPU 1 instructions: 1120000004 cycles: 500739684 heartbeat IPC: 2.309 cumulative IPC: 2.162 (Simulation time: 03 hr 51 min 08 sec)
Heartbeat CPU 1 instructions: 1130000000 cycles: 505272845 heartbeat IPC: 2.206 cumulative IPC: 2.162 (Simulation time: 03 hr 53 min 19 sec)
Heartbeat CPU 1 instructions: 1140000002 cycles: 509744109 heartbeat IPC: 2.237 cumulative IPC: 2.163 (Simulation time: 03 hr 55 min 26 sec)
Heartbeat CPU 2 instructions: 210000002 cycles: 512763423 heartbeat IPC: 0.3236 cumulative IPC: 0.3147 (Simulation time: 03 hr 56 min 44 sec)
Heartbeat CPU 1 instructions: 1150000000 cycles: 514042732 heartbeat IPC: 2.326 cumulative IPC: 2.164 (Simulation time: 03 hr 57 min 23 sec)
Heartbeat CPU 1 instructions: 1160000001 cycles: 527293032 heartbeat IPC: 0.7547 cumulative IPC: 2.127 (Simulation time: 04 hr 02 min 59 sec)
Heartbeat CPU 1 instructions: 1170000004 cycles: 531851092 heartbeat IPC: 2.194 cumulative IPC: 2.128 (Simulation time: 04 hr 04 min 53 sec)
Heartbeat CPU 1 instructions: 1180000001 cycles: 536182859 heartbeat IPC: 2.309 cumulative IPC: 2.129 (Simulation time: 04 hr 06 min 53 sec)
Heartbeat CPU 3 instructions: 140000003 cycles: 536724207 heartbeat IPC: 0.1463 cumulative IPC: 0.1519 (Simulation time: 04 hr 07 min 09 sec)
Heartbeat CPU 1 instructions: 1190000001 cycles: 540657298 heartbeat IPC: 2.235 cumulative IPC: 2.13 (Simulation time: 04 hr 08 min 58 sec)
Heartbeat CPU 1 instructions: 1200000001 cycles: 544943824 heartbeat IPC: 2.333 cumulative IPC: 2.132 (Simulation time: 04 hr 10 min 47 sec)
Heartbeat CPU 2 instructions: 220000000 cycles: 547651560 heartbeat IPC: 0.2866 cumulative IPC: 0.3128 (Simulation time: 04 hr 11 min 59 sec)
Heartbeat CPU 1 instructions: 1210000002 cycles: 549245497 heartbeat IPC: 2.325 cumulative IPC: 2.133 (Simulation time: 04 hr 12 min 33 sec)
Heartbeat CPU 1 instructions: 1220000003 cycles: 553680613 heartbeat IPC: 2.255 cumulative IPC: 2.134 (Simulation time: 04 hr 14 min 26 sec)
Heartbeat CPU 1 instructions: 1230000002 cycles: 558000682 heartbeat IPC: 2.315 cumulative IPC: 2.136 (Simulation time: 04 hr 16 min 23 sec)
Heartbeat CPU 1 instructions: 1240000002 cycles: 562354545 heartbeat IPC: 2.297 cumulative IPC: 2.137 (Simulation time: 04 hr 18 min 22 sec)
Heartbeat CPU 1 instructions: 1250000003 cycles: 566785049 heartbeat IPC: 2.257 cumulative IPC: 2.138 (Simulation time: 04 hr 20 min 28 sec)
Heartbeat CPU 1 instructions: 1260000000 cycles: 571086584 heartbeat IPC: 2.325 cumulative IPC: 2.14 (Simulation time: 04 hr 22 min 15 sec)
Heartbeat CPU 1 instructions: 1270000000 cycles: 575378355 heartbeat IPC: 2.33 cumulative IPC: 2.141 (Simulation time: 04 hr 24 min 10 sec)
Heartbeat CPU 2 instructions: 230000002 cycles: 578738151 heartbeat IPC: 0.3217 cumulative IPC: 0.3133 (Simulation time: 04 hr 25 min 40 sec)
Heartbeat CPU 1 instructions: 1280000001 cycles: 579651221 heartbeat IPC: 2.34 cumulative IPC: 2.143 (Simulation time: 04 hr 26 min 02 sec)
Heartbeat CPU 1 instructions: 1290000003 cycles: 584120040 heartbeat IPC: 2.238 cumulative IPC: 2.143 (Simulation time: 04 hr 27 min 55 sec)
Heartbeat CPU 1 instructions: 1300000001 cycles: 588476756 heartbeat IPC: 2.295 cumulative IPC: 2.145 (Simulation time: 04 hr 29 min 48 sec)
Heartbeat CPU 1 instructions: 1310000003 cycles: 592934828 heartbeat IPC: 2.243 cumulative IPC: 2.145 (Simulation time: 04 hr 31 min 33 sec)
Heartbeat CPU 1 instructions: 1320000003 cycles: 597419427 heartbeat IPC: 2.23 cumulative IPC: 2.146 (Simulation time: 04 hr 33 min 21 sec)
Heartbeat CPU 3 instructions: 150000001 cycles: 600946469 heartbeat IPC: 0.1557 cumulative IPC: 0.1523 (Simulation time: 04 hr 34 min 53 sec)
Heartbeat CPU 1 instructions: 1330000004 cycles: 601917901 heartbeat IPC: 2.223 cumulative IPC: 2.147 (Simulation time: 04 hr 35 min 17 sec)
Heartbeat CPU 1 instructions: 1340000000 cycles: 606434930 heartbeat IPC: 2.214 cumulative IPC: 2.147 (Simulation time: 04 hr 37 min 05 sec)
Heartbeat CPU 2 instructions: 240000003 cycles: 610958641 heartbeat IPC: 0.3104 cumulative IPC: 0.3131 (Simulation time: 04 hr 38 min 55 sec)
Heartbeat CPU 1 instructions: 1350000001 cycles: 611077767 heartbeat IPC: 2.154 cumulative IPC: 2.147 (Simulation time: 04 hr 38 min 58 sec)
Heartbeat CPU 1 instructions: 1360000003 cycles: 615617999 heartbeat IPC: 2.203 cumulative IPC: 2.148 (Simulation time: 04 hr 40 min 45 sec)
Heartbeat CPU 1 instructions: 1370000003 cycles: 620194682 heartbeat IPC: 2.185 cumulative IPC: 2.148 (Simulation time: 04 hr 42 min 44 sec)
Heartbeat CPU 1 instructions: 1380000002 cycles: 624764544 heartbeat IPC: 2.188 cumulative IPC: 2.148 (Simulation time: 04 hr 44 min 41 sec)
Heartbeat CPU 1 instructions: 1390000000 cycles: 629470206 heartbeat IPC: 2.125 cumulative IPC: 2.148 (Simulation time: 04 hr 46 min 38 sec)
Heartbeat CPU 1 instructions: 1400000003 cycles: 633993568 heartbeat IPC: 2.211 cumulative IPC: 2.148 (Simulation time: 04 hr 48 min 37 sec)
Heartbeat CPU 1 instructions: 1410000002 cycles: 638469504 heartbeat IPC: 2.234 cumulative IPC: 2.149 (Simulation time: 04 hr 50 min 29 sec)
Heartbeat CPU 2 instructions: 250000003 cycles: 642240741 heartbeat IPC: 0.3197 cumulative IPC: 0.3135 (Simulation time: 04 hr 52 min 01 sec)
Heartbeat CPU 1 instructions: 1420000001 cycles: 643168523 heartbeat IPC: 2.128 cumulative IPC: 2.149 (Simulation time: 04 hr 52 min 25 sec)
Heartbeat CPU 1 instructions: 1430000000 cycles: 647686012 heartbeat IPC: 2.214 cumulative IPC: 2.149 (Simulation time: 04 hr 54 min 19 sec)
Heartbeat CPU 1 instructions: 1440000000 cycles: 652229620 heartbeat IPC: 2.201 cumulative IPC: 2.15 (Simulation time: 04 hr 56 min 12 sec)
Heartbeat CPU 1 instructions: 1450000001 cycles: 656894513 heartbeat IPC: 2.144 cumulative IPC: 2.15 (Simulation time: 04 hr 58 min 19 sec)
Heartbeat CPU 1 instructions: 1460000004 cycles: 661446970 heartbeat IPC: 2.197 cumulative IPC: 2.15 (Simulation time: 05 hr 00 min 17 sec)
Heartbeat CPU 1 instructions: 1470000002 cycles: 665998818 heartbeat IPC: 2.197 cumulative IPC: 2.15 (Simulation time: 05 hr 02 min 12 sec)
Heartbeat CPU 3 instructions: 160000003 cycles: 666669629 heartbeat IPC: 0.1522 cumulative IPC: 0.1523 (Simulation time: 05 hr 02 min 28 sec)
Heartbeat CPU 1 instructions: 1480000001 cycles: 670523022 heartbeat IPC: 2.21 cumulative IPC: 2.151 (Simulation time: 05 hr 04 min 05 sec)
Heartbeat CPU 2 instructions: 260000003 cycles: 673741722 heartbeat IPC: 0.3175 cumulative IPC: 0.3137 (Simulation time: 05 hr 05 min 23 sec)
Heartbeat CPU 1 instructions: 1490000000 cycles: 675064065 heartbeat IPC: 2.202 cumulative IPC: 2.151 (Simulation time: 05 hr 05 min 55 sec)
Heartbeat CPU 1 instructions: 1500000003 cycles: 679630016 heartbeat IPC: 2.19 cumulative IPC: 2.151 (Simulation time: 05 hr 07 min 56 sec)
Heartbeat CPU 1 instructions: 1510000002 cycles: 684218175 heartbeat IPC: 2.18 cumulative IPC: 2.152 (Simulation time: 05 hr 09 min 58 sec)
Heartbeat CPU 1 instructions: 1520000003 cycles: 688781256 heartbeat IPC: 2.192 cumulative IPC: 2.152 (Simulation time: 05 hr 11 min 53 sec)
Heartbeat CPU 0 instructions: 80000002 cycles: 692254726 heartbeat IPC: 0.04414 cumulative IPC: 0.04468 (Simulation time: 05 hr 13 min 25 sec)
Heartbeat CPU 1 instructions: 1530000002 cycles: 693300029 heartbeat IPC: 2.213 cumulative IPC: 2.152 (Simulation time: 05 hr 13 min 52 sec)
Heartbeat CPU 1 instructions: 1540000002 cycles: 697846574 heartbeat IPC: 2.199 cumulative IPC: 2.153 (Simulation time: 05 hr 15 min 47 sec)
Heartbeat CPU 1 instructions: 1550000003 cycles: 702389419 heartbeat IPC: 2.201 cumulative IPC: 2.153 (Simulation time: 05 hr 17 min 40 sec)
Heartbeat CPU 2 instructions: 270000002 cycles: 705485109 heartbeat IPC: 0.315 cumulative IPC: 0.3137 (Simulation time: 05 hr 18 min 59 sec)
Heartbeat CPU 1 instructions: 1560000002 cycles: 706861853 heartbeat IPC: 2.236 cumulative IPC: 2.153 (Simulation time: 05 hr 19 min 33 sec)
Heartbeat CPU 1 instructions: 1570000000 cycles: 711341790 heartbeat IPC: 2.232 cumulative IPC: 2.154 (Simulation time: 05 hr 21 min 26 sec)
Heartbeat CPU 1 instructions: 1580000000 cycles: 715831306 heartbeat IPC: 2.227 cumulative IPC: 2.154 (Simulation time: 05 hr 23 min 23 sec)
Heartbeat CPU 1 instructions: 1590000000 cycles: 720416627 heartbeat IPC: 2.181 cumulative IPC: 2.155 (Simulation time: 05 hr 25 min 19 sec)
Heartbeat CPU 1 instructions: 1600000003 cycles: 724956110 heartbeat IPC: 2.203 cumulative IPC: 2.155 (Simulation time: 05 hr 27 min 13 sec)
Heartbeat CPU 1 instructions: 1610000001 cycles: 729586812 heartbeat IPC: 2.159 cumulative IPC: 2.155 (Simulation time: 05 hr 29 min 15 sec)
Heartbeat CPU 3 instructions: 170000004 cycles: 731648740 heartbeat IPC: 0.1539 cumulative IPC: 0.1524 (Simulation time: 05 hr 30 min 07 sec)
Heartbeat CPU 1 instructions: 1620000004 cycles: 734063150 heartbeat IPC: 2.234 cumulative IPC: 2.155 (Simulation time: 05 hr 31 min 10 sec)
Heartbeat CPU 2 instructions: 280000000 cycles: 737053487 heartbeat IPC: 0.3168 cumulative IPC: 0.3139 (Simulation time: 05 hr 32 min 28 sec)
Heartbeat CPU 1 instructions: 1630000000 cycles: 738633234 heartbeat IPC: 2.188 cumulative IPC: 2.156 (Simulation time: 05 hr 33 min 11 sec)
Heartbeat CPU 1 instructions: 1640000001 cycles: 743101929 heartbeat IPC: 2.238 cumulative IPC: 2.156 (Simulation time: 05 hr 35 min 14 sec)
Heartbeat CPU 1 instructions: 1650000001 cycles: 747683701 heartbeat IPC: 2.183 cumulative IPC: 2.156 (Simulation time: 05 hr 37 min 10 sec)
Heartbeat CPU 1 instructions: 1660000004 cycles: 752221678 heartbeat IPC: 2.204 cumulative IPC: 2.157 (Simulation time: 05 hr 39 min 07 sec)
Heartbeat CPU 1 instructions: 1670000004 cycles: 756816610 heartbeat IPC: 2.176 cumulative IPC: 2.157 (Simulation time: 05 hr 41 min 23 sec)
Heartbeat CPU 1 instructions: 1680000000 cycles: 761375166 heartbeat IPC: 2.194 cumulative IPC: 2.157 (Simulation time: 05 hr 43 min 16 sec)
Heartbeat CPU 1 instructions: 1690000003 cycles: 765917455 heartbeat IPC: 2.202 cumulative IPC: 2.157 (Simulation time: 05 hr 45 min 09 sec)
Heartbeat CPU 2 instructions: 290000003 cycles: 769029255 heartbeat IPC: 0.3127 cumulative IPC: 0.3138 (Simulation time: 05 hr 46 min 24 sec)
Heartbeat CPU 1 instructions: 1700000002 cycles: 770475024 heartbeat IPC: 2.194 cumulative IPC: 2.157 (Simulation time: 05 hr 47 min 03 sec)
Heartbeat CPU 1 instructions: 1710000000 cycles: 775068215 heartbeat IPC: 2.177 cumulative IPC: 2.158 (Simulation time: 05 hr 49 min 02 sec)
Heartbeat CPU 1 instructions: 1720000002 cycles: 779674122 heartbeat IPC: 2.171 cumulative IPC: 2.158 (Simulation time: 05 hr 50 min 57 sec)
Heartbeat CPU 1 instructions: 1730000001 cycles: 784100116 heartbeat IPC: 2.259 cumulative IPC: 2.158 (Simulation time: 05 hr 52 min 44 sec)
Heartbeat CPU 1 instructions: 1740000002 cycles: 788545034 heartbeat IPC: 2.25 cumulative IPC: 2.159 (Simulation time: 05 hr 54 min 34 sec)
Heartbeat CPU 1 instructions: 1750000001 cycles: 792788619 heartbeat IPC: 2.356 cumulative IPC: 2.16 (Simulation time: 05 hr 56 min 22 sec)
Heartbeat CPU 3 instructions: 180000002 cycles: 796167341 heartbeat IPC: 0.155 cumulative IPC: 0.1527 (Simulation time: 05 hr 57 min 49 sec)
Heartbeat CPU 1 instructions: 1760000003 cycles: 797027367 heartbeat IPC: 2.359 cumulative IPC: 2.161 (Simulation time: 05 hr 58 min 13 sec)
Heartbeat CPU 2 instructions: 300000004 cycles: 800276892 heartbeat IPC: 0.32 cumulative IPC: 0.3141 (Simulation time: 05 hr 59 min 34 sec)
Heartbeat CPU 1 instructions: 1770000001 cycles: 801394633 heartbeat IPC: 2.29 cumulative IPC: 2.162 (Simulation time: 06 hr 00 min 03 sec)
Heartbeat CPU 1 instructions: 1780000001 cycles: 805594221 heartbeat IPC: 2.381 cumulative IPC: 2.163 (Simulation time: 06 hr 01 min 51 sec)
Heartbeat CPU 1 instructions: 1790000004 cycles: 809840501 heartbeat IPC: 2.355 cumulative IPC: 2.164 (Simulation time: 06 hr 03 min 37 sec)
Heartbeat CPU 1 instructions: 1800000003 cycles: 814132953 heartbeat IPC: 2.33 cumulative IPC: 2.165 (Simulation time: 06 hr 05 min 22 sec)
Heartbeat CPU 1 instructions: 1810000002 cycles: 818511462 heartbeat IPC: 2.284 cumulative IPC: 2.165 (Simulation time: 06 hr 07 min 12 sec)
Heartbeat CPU 1 instructions: 1820000002 cycles: 822721302 heartbeat IPC: 2.375 cumulative IPC: 2.167 (Simulation time: 06 hr 08 min 57 sec)
Heartbeat CPU 1 instructions: 1830000001 cycles: 827099026 heartbeat IPC: 2.284 cumulative IPC: 2.167 (Simulation time: 06 hr 10 min 48 sec)
Heartbeat CPU 2 instructions: 310000003 cycles: 831242537 heartbeat IPC: 0.3229 cumulative IPC: 0.3144 (Simulation time: 06 hr 12 min 33 sec)
Heartbeat CPU 1 instructions: 1840000001 cycles: 831356443 heartbeat IPC: 2.349 cumulative IPC: 2.168 (Simulation time: 06 hr 12 min 36 sec)
Heartbeat CPU 1 instructions: 1850000001 cycles: 835612351 heartbeat IPC: 2.35 cumulative IPC: 2.169 (Simulation time: 06 hr 14 min 20 sec)
Heartbeat CPU 1 instructions: 1860000001 cycles: 839859572 heartbeat IPC: 2.354 cumulative IPC: 2.17 (Simulation time: 06 hr 16 min 05 sec)
Heartbeat CPU 1 instructions: 1870000002 cycles: 844262730 heartbeat IPC: 2.271 cumulative IPC: 2.171 (Simulation time: 06 hr 17 min 54 sec)
Heartbeat CPU 1 instructions: 1880000003 cycles: 848522327 heartbeat IPC: 2.348 cumulative IPC: 2.171 (Simulation time: 06 hr 19 min 44 sec)
Heartbeat CPU 1 instructions: 1890000000 cycles: 853140234 heartbeat IPC: 2.165 cumulative IPC: 2.171 (Simulation time: 06 hr 21 min 35 sec)
Heartbeat CPU 1 instructions: 1900000000 cycles: 857496680 heartbeat IPC: 2.295 cumulative IPC: 2.172 (Simulation time: 06 hr 23 min 25 sec)
Heartbeat CPU 3 instructions: 190000000 cycles: 862144289 heartbeat IPC: 0.1516 cumulative IPC: 0.1526 (Simulation time: 06 hr 25 min 08 sec)
Heartbeat CPU 2 instructions: 320000001 cycles: 863927127 heartbeat IPC: 0.306 cumulative IPC: 0.3141 (Simulation time: 06 hr 25 min 48 sec)
Heartbeat CPU 1 instructions: 1910000002 cycles: 871117848 heartbeat IPC: 0.7342 cumulative IPC: 2.149 (Simulation time: 06 hr 28 min 32 sec)
Heartbeat CPU 1 instructions: 1920000001 cycles: 875546955 heartbeat IPC: 2.258 cumulative IPC: 2.15 (Simulation time: 06 hr 30 min 19 sec)
Heartbeat CPU 1 instructions: 1930000002 cycles: 879867082 heartbeat IPC: 2.315 cumulative IPC: 2.15 (Simulation time: 06 hr 32 min 00 sec)
Heartbeat CPU 1 instructions: 1940000002 cycles: 884333912 heartbeat IPC: 2.239 cumulative IPC: 2.151 (Simulation time: 06 hr 33 min 52 sec)
Heartbeat CPU 1 instructions: 1950000004 cycles: 888589040 heartbeat IPC: 2.35 cumulative IPC: 2.152 (Simulation time: 06 hr 35 min 36 sec)
Heartbeat CPU 1 instructions: 1960000000 cycles: 892823271 heartbeat IPC: 2.362 cumulative IPC: 2.153 (Simulation time: 06 hr 37 min 22 sec)
Heartbeat CPU 2 instructions: 330000001 cycles: 896995481 heartbeat IPC: 0.3024 cumulative IPC: 0.3136 (Simulation time: 06 hr 39 min 05 sec)
Heartbeat CPU 1 instructions: 1970000004 cycles: 897193560 heartbeat IPC: 2.288 cumulative IPC: 2.154 (Simulation time: 06 hr 39 min 10 sec)
Heartbeat CPU 1 instructions: 1980000000 cycles: 901451470 heartbeat IPC: 2.349 cumulative IPC: 2.155 (Simulation time: 06 hr 40 min 53 sec)
Heartbeat CPU 1 instructions: 1990000002 cycles: 905694904 heartbeat IPC: 2.357 cumulative IPC: 2.156 (Simulation time: 06 hr 42 min 36 sec)
*** Reached end of trace: (1, "/home/das/dpc3_traces/603.bwaves_s-3699B.champsimtrace.xz")
Heartbeat CPU 1 instructions: 2000000001 cycles: 909988561 heartbeat IPC: 2.329 cumulative IPC: 2.156 (Simulation time: 06 hr 44 min 23 sec)
Heartbeat CPU 0 instructions: 90000001 cycles: 912083337 heartbeat IPC: 0.04549 cumulative IPC: 0.04488 (Simulation time: 06 hr 45 min 14 sec)
Heartbeat CPU 1 instructions: 2010000004 cycles: 914332472 heartbeat IPC: 2.302 cumulative IPC: 2.157 (Simulation time: 06 hr 46 min 08 sec)
Heartbeat CPU 1 instructions: 2020000004 cycles: 923011475 heartbeat IPC: 1.152 cumulative IPC: 2.147 (Simulation time: 06 hr 49 min 27 sec)
Heartbeat CPU 1 instructions: 2030000000 cycles: 932237109 heartbeat IPC: 1.084 cumulative IPC: 2.137 (Simulation time: 06 hr 52 min 54 sec)
Heartbeat CPU 2 instructions: 340000003 cycles: 932707742 heartbeat IPC: 0.28 cumulative IPC: 0.3123 (Simulation time: 06 hr 53 min 04 sec)
Heartbeat CPU 3 instructions: 200000001 cycles: 934474823 heartbeat IPC: 0.1383 cumulative IPC: 0.1514 (Simulation time: 06 hr 53 min 48 sec)
Heartbeat CPU 1 instructions: 2040000001 cycles: 936655102 heartbeat IPC: 2.263 cumulative IPC: 2.137 (Simulation time: 06 hr 54 min 39 sec)
Heartbeat CPU 1 instructions: 2050000000 cycles: 941059539 heartbeat IPC: 2.27 cumulative IPC: 2.138 (Simulation time: 06 hr 56 min 20 sec)
Heartbeat CPU 1 instructions: 2060000001 cycles: 945375487 heartbeat IPC: 2.317 cumulative IPC: 2.139 (Simulation time: 06 hr 58 min 02 sec)
Heartbeat CPU 1 instructions: 2070000003 cycles: 949733582 heartbeat IPC: 2.295 cumulative IPC: 2.139 (Simulation time: 06 hr 59 min 41 sec)
Heartbeat CPU 1 instructions: 2080000002 cycles: 954000715 heartbeat IPC: 2.343 cumulative IPC: 2.14 (Simulation time: 07 hr 01 min 15 sec)
Heartbeat CPU 1 instructions: 2090000003 cycles: 958376750 heartbeat IPC: 2.285 cumulative IPC: 2.141 (Simulation time: 07 hr 02 min 52 sec)
Heartbeat CPU 1 instructions: 2100000003 cycles: 962786229 heartbeat IPC: 2.268 cumulative IPC: 2.142 (Simulation time: 07 hr 04 min 32 sec)
Heartbeat CPU 2 instructions: 350000003 cycles: 964092879 heartbeat IPC: 0.3186 cumulative IPC: 0.3125 (Simulation time: 07 hr 05 min 01 sec)
Heartbeat CPU 1 instructions: 2110000001 cycles: 967405013 heartbeat IPC: 2.165 cumulative IPC: 2.142 (Simulation time: 07 hr 06 min 15 sec)
Heartbeat CPU 1 instructions: 2120000000 cycles: 971873372 heartbeat IPC: 2.238 cumulative IPC: 2.142 (Simulation time: 07 hr 07 min 52 sec)
Heartbeat CPU 1 instructions: 2130000004 cycles: 976568010 heartbeat IPC: 2.13 cumulative IPC: 2.142 (Simulation time: 07 hr 09 min 34 sec)
Heartbeat CPU 1 instructions: 2140000001 cycles: 981052155 heartbeat IPC: 2.23 cumulative IPC: 2.143 (Simulation time: 07 hr 11 min 11 sec)
Heartbeat CPU 1 instructions: 2150000001 cycles: 985545985 heartbeat IPC: 2.225 cumulative IPC: 2.143 (Simulation time: 07 hr 12 min 50 sec)
Heartbeat CPU 1 instructions: 2160000000 cycles: 990047623 heartbeat IPC: 2.221 cumulative IPC: 2.143 (Simulation time: 07 hr 14 min 33 sec)
Heartbeat CPU 1 instructions: 2170000000 cycles: 994530082 heartbeat IPC: 2.231 cumulative IPC: 2.144 (Simulation time: 07 hr 16 min 10 sec)
Heartbeat CPU 2 instructions: 360000000 cycles: 995809487 heartbeat IPC: 0.3153 cumulative IPC: 0.3126 (Simulation time: 07 hr 16 min 38 sec)
Heartbeat CPU 1 instructions: 2180000001 cycles: 999179661 heartbeat IPC: 2.151 cumulative IPC: 2.144 (Simulation time: 07 hr 17 min 50 sec)
Heartbeat CPU 3 instructions: 210000000 cycles: 1000400390 heartbeat IPC: 0.1517 cumulative IPC: 0.1515 (Simulation time: 07 hr 18 min 16 sec)
Heartbeat CPU 1 instructions: 2190000000 cycles: 1003791862 heartbeat IPC: 2.168 cumulative IPC: 2.144 (Simulation time: 07 hr 19 min 28 sec)
Heartbeat CPU 1 instructions: 2200000003 cycles: 1008343546 heartbeat IPC: 2.197 cumulative IPC: 2.144 (Simulation time: 07 hr 21 min 07 sec)
Simulation finished CPU 3 instructions: 150000004 cycles: 990753867 cumulative IPC: 0.1514 (Simulation time: 07 hr 22 min 16 sec)
Heartbeat CPU 1 instructions: 2210000000 cycles: 1013118873 heartbeat IPC: 2.094 cumulative IPC: 2.144 (Simulation time: 07 hr 22 min 48 sec)
Heartbeat CPU 1 instructions: 2220000001 cycles: 1018017726 heartbeat IPC: 2.041 cumulative IPC: 2.143 (Simulation time: 07 hr 24 min 35 sec)
Heartbeat CPU 1 instructions: 2230000004 cycles: 1022734442 heartbeat IPC: 2.12 cumulative IPC: 2.143 (Simulation time: 07 hr 26 min 19 sec)
Heartbeat CPU 1 instructions: 2240000000 cycles: 1027450295 heartbeat IPC: 2.121 cumulative IPC: 2.143 (Simulation time: 07 hr 28 min 04 sec)
Heartbeat CPU 2 instructions: 370000004 cycles: 1027763239 heartbeat IPC: 0.313 cumulative IPC: 0.3126 (Simulation time: 07 hr 28 min 10 sec)
Heartbeat CPU 1 instructions: 2250000004 cycles: 1032111596 heartbeat IPC: 2.145 cumulative IPC: 2.143 (Simulation time: 07 hr 29 min 51 sec)
Heartbeat CPU 1 instructions: 2260000000 cycles: 1036659227 heartbeat IPC: 2.199 cumulative IPC: 2.143 (Simulation time: 07 hr 31 min 33 sec)
Heartbeat CPU 1 instructions: 2270000002 cycles: 1041381859 heartbeat IPC: 2.117 cumulative IPC: 2.143 (Simulation time: 07 hr 33 min 21 sec)
Heartbeat CPU 1 instructions: 2280000002 cycles: 1046019276 heartbeat IPC: 2.156 cumulative IPC: 2.143 (Simulation time: 07 hr 35 min 04 sec)
Heartbeat CPU 1 instructions: 2290000000 cycles: 1050644785 heartbeat IPC: 2.162 cumulative IPC: 2.143 (Simulation time: 07 hr 36 min 49 sec)
Heartbeat CPU 1 instructions: 2300000001 cycles: 1055365608 heartbeat IPC: 2.118 cumulative IPC: 2.143 (Simulation time: 07 hr 38 min 34 sec)
Heartbeat CPU 2 instructions: 380000002 cycles: 1059431566 heartbeat IPC: 0.3158 cumulative IPC: 0.3127 (Simulation time: 07 hr 40 min 06 sec)
Heartbeat CPU 1 instructions: 2310000002 cycles: 1059963322 heartbeat IPC: 2.175 cumulative IPC: 2.143 (Simulation time: 07 hr 40 min 18 sec)
Heartbeat CPU 1 instructions: 2320000001 cycles: 1064560019 heartbeat IPC: 2.175 cumulative IPC: 2.144 (Simulation time: 07 hr 42 min 00 sec)
Heartbeat CPU 3 instructions: 220000000 cycles: 1067403217 heartbeat IPC: 0.1492 cumulative IPC: 0.1513 (Simulation time: 07 hr 43 min 04 sec)
Heartbeat CPU 1 instructions: 2330000003 cycles: 1069206151 heartbeat IPC: 2.152 cumulative IPC: 2.144 (Simulation time: 07 hr 43 min 44 sec)
Heartbeat CPU 1 instructions: 2340000000 cycles: 1073883550 heartbeat IPC: 2.138 cumulative IPC: 2.144 (Simulation time: 07 hr 45 min 31 sec)
Heartbeat CPU 1 instructions: 2350000000 cycles: 1078612069 heartbeat IPC: 2.115 cumulative IPC: 2.143 (Simulation time: 07 hr 47 min 17 sec)
Heartbeat CPU 1 instructions: 2360000003 cycles: 1083412895 heartbeat IPC: 2.083 cumulative IPC: 2.143 (Simulation time: 07 hr 49 min 04 sec)
Heartbeat CPU 1 instructions: 2370000001 cycles: 1088015096 heartbeat IPC: 2.173 cumulative IPC: 2.143 (Simulation time: 07 hr 50 min 47 sec)
Heartbeat CPU 2 instructions: 390000000 cycles: 1091662239 heartbeat IPC: 0.3103 cumulative IPC: 0.3127 (Simulation time: 07 hr 52 min 10 sec)
Heartbeat CPU 1 instructions: 2380000001 cycles: 1092641367 heartbeat IPC: 2.162 cumulative IPC: 2.143 (Simulation time: 07 hr 52 min 31 sec)
Heartbeat CPU 1 instructions: 2390000004 cycles: 1097247705 heartbeat IPC: 2.171 cumulative IPC: 2.144 (Simulation time: 07 hr 54 min 15 sec)
Heartbeat CPU 1 instructions: 2400000000 cycles: 1101910036 heartbeat IPC: 2.145 cumulative IPC: 2.144 (Simulation time: 07 hr 56 min 00 sec)
Heartbeat CPU 1 instructions: 2410000000 cycles: 1106458721 heartbeat IPC: 2.198 cumulative IPC: 2.144 (Simulation time: 07 hr 57 min 43 sec)
Heartbeat CPU 1 instructions: 2420000003 cycles: 1110981909 heartbeat IPC: 2.211 cumulative IPC: 2.144 (Simulation time: 07 hr 59 min 23 sec)
Heartbeat CPU 1 instructions: 2430000003 cycles: 1115651047 heartbeat IPC: 2.142 cumulative IPC: 2.144 (Simulation time: 08 hr 01 min 10 sec)
Heartbeat CPU 1 instructions: 2440000004 cycles: 1120210868 heartbeat IPC: 2.193 cumulative IPC: 2.144 (Simulation time: 08 hr 02 min 52 sec)
Heartbeat CPU 2 instructions: 400000003 cycles: 1123242143 heartbeat IPC: 0.3167 cumulative IPC: 0.3128 (Simulation time: 08 hr 04 min 00 sec)
Heartbeat CPU 1 instructions: 2450000002 cycles: 1124726600 heartbeat IPC: 2.214 cumulative IPC: 2.145 (Simulation time: 08 hr 04 min 33 sec)
Heartbeat CPU 1 instructions: 2460000001 cycles: 1129337259 heartbeat IPC: 2.169 cumulative IPC: 2.145 (Simulation time: 08 hr 06 min 19 sec)
Heartbeat CPU 3 instructions: 230000001 cycles: 1132390646 heartbeat IPC: 0.1539 cumulative IPC: 0.1515 (Simulation time: 08 hr 07 min 28 sec)
Heartbeat CPU 1 instructions: 2470000001 cycles: 1133589263 heartbeat IPC: 2.352 cumulative IPC: 2.145 (Simulation time: 08 hr 07 min 55 sec)
Heartbeat CPU 1 instructions: 2480000004 cycles: 1138024854 heartbeat IPC: 2.254 cumulative IPC: 2.146 (Simulation time: 08 hr 09 min 37 sec)
Heartbeat CPU 1 instructions: 2490000001 cycles: 1142295479 heartbeat IPC: 2.342 cumulative IPC: 2.147 (Simulation time: 08 hr 11 min 18 sec)
Heartbeat CPU 1 instructions: 2500000000 cycles: 1146729018 heartbeat IPC: 2.256 cumulative IPC: 2.147 (Simulation time: 08 hr 13 min 01 sec)
Heartbeat CPU 0 instructions: 100000002 cycles: 1148024177 heartbeat IPC: 0.04238 cumulative IPC: 0.04436 (Simulation time: 08 hr 13 min 33 sec)
Heartbeat CPU 1 instructions: 2510000003 cycles: 1151079483 heartbeat IPC: 2.299 cumulative IPC: 2.148 (Simulation time: 08 hr 14 min 48 sec)
Heartbeat CPU 2 instructions: 410000000 cycles: 1154608058 heartbeat IPC: 0.3188 cumulative IPC: 0.3129 (Simulation time: 08 hr 16 min 15 sec)
Heartbeat CPU 1 instructions: 2520000004 cycles: 1155524513 heartbeat IPC: 2.25 cumulative IPC: 2.148 (Simulation time: 08 hr 16 min 35 sec)
Heartbeat CPU 1 instructions: 2530000001 cycles: 1165506897 heartbeat IPC: 1.002 cumulative IPC: 2.138 (Simulation time: 08 hr 20 min 20 sec)
Heartbeat CPU 1 instructions: 2540000003 cycles: 1173850550 heartbeat IPC: 1.199 cumulative IPC: 2.131 (Simulation time: 08 hr 23 min 19 sec)
Heartbeat CPU 1 instructions: 2550000001 cycles: 1178169568 heartbeat IPC: 2.315 cumulative IPC: 2.132 (Simulation time: 08 hr 24 min 56 sec)
Heartbeat CPU 1 instructions: 2560000001 cycles: 1182576444 heartbeat IPC: 2.269 cumulative IPC: 2.132 (Simulation time: 08 hr 26 min 36 sec)
Heartbeat CPU 1 instructions: 2570000000 cycles: 1186874022 heartbeat IPC: 2.327 cumulative IPC: 2.133 (Simulation time: 08 hr 28 min 13 sec)
Heartbeat CPU 2 instructions: 420000000 cycles: 1189615970 heartbeat IPC: 0.2856 cumulative IPC: 0.3121 (Simulation time: 08 hr 29 min 15 sec)
Heartbeat CPU 1 instructions: 2580000001 cycles: 1191340703 heartbeat IPC: 2.239 cumulative IPC: 2.134 (Simulation time: 08 hr 29 min 54 sec)
Heartbeat CPU 1 instructions: 2590000001 cycles: 1195622676 heartbeat IPC: 2.335 cumulative IPC: 2.134 (Simulation time: 08 hr 31 min 33 sec)
Heartbeat CPU 1 instructions: 2600000004 cycles: 1199908035 heartbeat IPC: 2.334 cumulative IPC: 2.135 (Simulation time: 08 hr 33 min 14 sec)
Heartbeat CPU 3 instructions: 240000003 cycles: 1202417157 heartbeat IPC: 0.1428 cumulative IPC: 0.1509 (Simulation time: 08 hr 34 min 12 sec)
Heartbeat CPU 1 instructions: 2610000004 cycles: 1204314797 heartbeat IPC: 2.269 cumulative IPC: 2.135 (Simulation time: 08 hr 34 min 53 sec)
Heartbeat CPU 1 instructions: 2620000000 cycles: 1208699358 heartbeat IPC: 2.281 cumulative IPC: 2.136 (Simulation time: 08 hr 36 min 33 sec)
Heartbeat CPU 1 instructions: 2630000000 cycles: 1213119062 heartbeat IPC: 2.263 cumulative IPC: 2.137 (Simulation time: 08 hr 38 min 14 sec)
Heartbeat CPU 1 instructions: 2640000000 cycles: 1217441214 heartbeat IPC: 2.314 cumulative IPC: 2.137 (Simulation time: 08 hr 39 min 52 sec)
Heartbeat CPU 2 instructions: 430000003 cycles: 1221336722 heartbeat IPC: 0.3153 cumulative IPC: 0.3122 (Simulation time: 08 hr 41 min 22 sec)
Heartbeat CPU 1 instructions: 2650000004 cycles: 1221892904 heartbeat IPC: 2.246 cumulative IPC: 2.138 (Simulation time: 08 hr 41 min 34 sec)
Heartbeat CPU 1 instructions: 2660000000 cycles: 1226448093 heartbeat IPC: 2.195 cumulative IPC: 2.138 (Simulation time: 08 hr 43 min 14 sec)
Heartbeat CPU 1 instructions: 2670000000 cycles: 1230939867 heartbeat IPC: 2.226 cumulative IPC: 2.138 (Simulation time: 08 hr 44 min 59 sec)
Heartbeat CPU 1 instructions: 2680000001 cycles: 1235559462 heartbeat IPC: 2.165 cumulative IPC: 2.138 (Simulation time: 08 hr 46 min 44 sec)
Heartbeat CPU 1 instructions: 2690000000 cycles: 1240163580 heartbeat IPC: 2.172 cumulative IPC: 2.138 (Simulation time: 08 hr 48 min 28 sec)
Heartbeat CPU 1 instructions: 2700000004 cycles: 1244780960 heartbeat IPC: 2.166 cumulative IPC: 2.138 (Simulation time: 08 hr 50 min 14 sec)
Heartbeat CPU 1 instructions: 2710000001 cycles: 1249336672 heartbeat IPC: 2.195 cumulative IPC: 2.139 (Simulation time: 08 hr 51 min 58 sec)
Heartbeat CPU 2 instructions: 440000004 cycles: 1252812657 heartbeat IPC: 0.3177 cumulative IPC: 0.3123 (Simulation time: 08 hr 53 min 16 sec)
Heartbeat CPU 1 instructions: 2720000003 cycles: 1254020935 heartbeat IPC: 2.135 cumulative IPC: 2.139 (Simulation time: 08 hr 53 min 41 sec)
Heartbeat CPU 1 instructions: 2730000001 cycles: 1258529747 heartbeat IPC: 2.218 cumulative IPC: 2.139 (Simulation time: 08 hr 55 min 27 sec)
Heartbeat CPU 1 instructions: 2740000003 cycles: 1263080208 heartbeat IPC: 2.198 cumulative IPC: 2.139 (Simulation time: 08 hr 57 min 16 sec)
Heartbeat CPU 3 instructions: 250000000 cycles: 1266277667 heartbeat IPC: 0.1566 cumulative IPC: 0.1512 (Simulation time: 08 hr 58 min 26 sec)
Heartbeat CPU 1 instructions: 2750000000 cycles: 1267740523 heartbeat IPC: 2.146 cumulative IPC: 2.139 (Simulation time: 08 hr 58 min 58 sec)
Heartbeat CPU 1 instructions: 2760000000 cycles: 1272284497 heartbeat IPC: 2.201 cumulative IPC: 2.139 (Simulation time: 09 hr 00 min 42 sec)
Heartbeat CPU 1 instructions: 2770000001 cycles: 1276887582 heartbeat IPC: 2.172 cumulative IPC: 2.139 (Simulation time: 09 hr 02 min 29 sec)
Heartbeat CPU 1 instructions: 2780000001 cycles: 1281437344 heartbeat IPC: 2.198 cumulative IPC: 2.14 (Simulation time: 09 hr 04 min 01 sec)
Heartbeat CPU 2 instructions: 450000000 cycles: 1284374704 heartbeat IPC: 0.3168 cumulative IPC: 0.3125 (Simulation time: 09 hr 05 min 00 sec)
Heartbeat CPU 1 instructions: 2790000001 cycles: 1286069423 heartbeat IPC: 2.159 cumulative IPC: 2.14 (Simulation time: 09 hr 05 min 35 sec)
Heartbeat CPU 1 instructions: 2800000000 cycles: 1290627730 heartbeat IPC: 2.194 cumulative IPC: 2.14 (Simulation time: 09 hr 07 min 08 sec)
Heartbeat CPU 1 instructions: 2810000004 cycles: 1295255963 heartbeat IPC: 2.161 cumulative IPC: 2.14 (Simulation time: 09 hr 08 min 42 sec)
Heartbeat CPU 1 instructions: 2820000002 cycles: 1299871250 heartbeat IPC: 2.167 cumulative IPC: 2.14 (Simulation time: 09 hr 10 min 15 sec)
Heartbeat CPU 1 instructions: 2830000003 cycles: 1304464707 heartbeat IPC: 2.177 cumulative IPC: 2.14 (Simulation time: 09 hr 11 min 46 sec)
Heartbeat CPU 1 instructions: 2840000002 cycles: 1309085613 heartbeat IPC: 2.164 cumulative IPC: 2.14 (Simulation time: 09 hr 13 min 17 sec)
Heartbeat CPU 1 instructions: 2850000000 cycles: 1313631514 heartbeat IPC: 2.2 cumulative IPC: 2.141 (Simulation time: 09 hr 14 min 49 sec)
Heartbeat CPU 2 instructions: 460000001 cycles: 1316120399 heartbeat IPC: 0.315 cumulative IPC: 0.3125 (Simulation time: 09 hr 15 min 39 sec)
Heartbeat CPU 1 instructions: 2860000002 cycles: 1318257836 heartbeat IPC: 2.162 cumulative IPC: 2.141 (Simulation time: 09 hr 16 min 22 sec)
Heartbeat CPU 1 instructions: 2870000002 cycles: 1322813377 heartbeat IPC: 2.195 cumulative IPC: 2.141 (Simulation time: 09 hr 17 min 53 sec)
Heartbeat CPU 1 instructions: 2880000001 cycles: 1327329086 heartbeat IPC: 2.214 cumulative IPC: 2.141 (Simulation time: 09 hr 19 min 24 sec)
Heartbeat CPU 3 instructions: 260000004 cycles: 1330912615 heartbeat IPC: 0.1547 cumulative IPC: 0.1514 (Simulation time: 09 hr 20 min 38 sec)
Heartbeat CPU 1 instructions: 2890000003 cycles: 1331900421 heartbeat IPC: 2.188 cumulative IPC: 2.141 (Simulation time: 09 hr 20 min 57 sec)
Heartbeat CPU 1 instructions: 2900000001 cycles: 1336458716 heartbeat IPC: 2.194 cumulative IPC: 2.141 (Simulation time: 09 hr 22 min 29 sec)
Heartbeat CPU 1 instructions: 2910000002 cycles: 1341106402 heartbeat IPC: 2.152 cumulative IPC: 2.141 (Simulation time: 09 hr 24 min 03 sec)
Heartbeat CPU 1 instructions: 2920000000 cycles: 1345609283 heartbeat IPC: 2.221 cumulative IPC: 2.142 (Simulation time: 09 hr 25 min 33 sec)
Heartbeat CPU 2 instructions: 470000001 cycles: 1348007576 heartbeat IPC: 0.3136 cumulative IPC: 0.3125 (Simulation time: 09 hr 26 min 20 sec)
Heartbeat CPU 1 instructions: 2930000000 cycles: 1350236976 heartbeat IPC: 2.161 cumulative IPC: 2.142 (Simulation time: 09 hr 27 min 05 sec)
Heartbeat CPU 1 instructions: 2940000004 cycles: 1355035798 heartbeat IPC: 2.084 cumulative IPC: 2.142 (Simulation time: 09 hr 28 min 40 sec)
Heartbeat CPU 1 instructions: 2950000004 cycles: 1359691746 heartbeat IPC: 2.148 cumulative IPC: 2.142 (Simulation time: 09 hr 30 min 13 sec)
Heartbeat CPU 1 instructions: 2960000004 cycles: 1364334546 heartbeat IPC: 2.154 cumulative IPC: 2.142 (Simulation time: 09 hr 31 min 46 sec)
Heartbeat CPU 1 instructions: 2970000000 cycles: 1368851657 heartbeat IPC: 2.214 cumulative IPC: 2.142 (Simulation time: 09 hr 33 min 16 sec)
Heartbeat CPU 1 instructions: 2980000004 cycles: 1373511423 heartbeat IPC: 2.146 cumulative IPC: 2.142 (Simulation time: 09 hr 34 min 48 sec)
Heartbeat CPU 0 instructions: 110000004 cycles: 1376346784 heartbeat IPC: 0.0438 cumulative IPC: 0.04426 (Simulation time: 09 hr 35 min 45 sec)
Heartbeat CPU 1 instructions: 2990000003 cycles: 1378086916 heartbeat IPC: 2.186 cumulative IPC: 2.142 (Simulation time: 09 hr 36 min 19 sec)
Heartbeat CPU 2 instructions: 480000002 cycles: 1379523713 heartbeat IPC: 0.3173 cumulative IPC: 0.3127 (Simulation time: 09 hr 36 min 47 sec)
Heartbeat CPU 1 instructions: 3000000003 cycles: 1382658470 heartbeat IPC: 2.187 cumulative IPC: 2.142 (Simulation time: 09 hr 37 min 50 sec)
Heartbeat CPU 1 instructions: 3010000001 cycles: 1387332227 heartbeat IPC: 2.14 cumulative IPC: 2.142 (Simulation time: 09 hr 39 min 22 sec)
Heartbeat CPU 1 instructions: 3020000001 cycles: 1391899659 heartbeat IPC: 2.189 cumulative IPC: 2.142 (Simulation time: 09 hr 40 min 53 sec)
Heartbeat CPU 3 instructions: 270000002 cycles: 1394854016 heartbeat IPC: 0.1564 cumulative IPC: 0.1516 (Simulation time: 09 hr 41 min 52 sec)
Heartbeat CPU 1 instructions: 3030000003 cycles: 1396375735 heartbeat IPC: 2.234 cumulative IPC: 2.143 (Simulation time: 09 hr 42 min 23 sec)
Heartbeat CPU 1 instructions: 3040000000 cycles: 1400914790 heartbeat IPC: 2.203 cumulative IPC: 2.143 (Simulation time: 09 hr 43 min 53 sec)
Heartbeat CPU 1 instructions: 3050000000 cycles: 1405231859 heartbeat IPC: 2.316 cumulative IPC: 2.143 (Simulation time: 09 hr 45 min 20 sec)
Heartbeat CPU 1 instructions: 3060000000 cycles: 1409529587 heartbeat IPC: 2.327 cumulative IPC: 2.144 (Simulation time: 09 hr 46 min 47 sec)
Heartbeat CPU 2 instructions: 490000003 cycles: 1410742814 heartbeat IPC: 0.3203 cumulative IPC: 0.3128 (Simulation time: 09 hr 47 min 11 sec)
Heartbeat CPU 1 instructions: 3070000004 cycles: 1413981503 heartbeat IPC: 2.246 cumulative IPC: 2.144 (Simulation time: 09 hr 48 min 16 sec)
Heartbeat CPU 1 instructions: 3080000002 cycles: 1418416038 heartbeat IPC: 2.255 cumulative IPC: 2.145 (Simulation time: 09 hr 49 min 45 sec)
Heartbeat CPU 1 instructions: 3090000004 cycles: 1422756616 heartbeat IPC: 2.304 cumulative IPC: 2.145 (Simulation time: 09 hr 51 min 12 sec)
Heartbeat CPU 1 instructions: 3100000004 cycles: 1427083616 heartbeat IPC: 2.311 cumulative IPC: 2.146 (Simulation time: 09 hr 52 min 39 sec)
Heartbeat CPU 1 instructions: 3110000000 cycles: 1431551515 heartbeat IPC: 2.238 cumulative IPC: 2.146 (Simulation time: 09 hr 54 min 08 sec)
Heartbeat CPU 1 instructions: 3120000003 cycles: 1435816150 heartbeat IPC: 2.345 cumulative IPC: 2.147 (Simulation time: 09 hr 55 min 33 sec)
Heartbeat CPU 1 instructions: 3130000002 cycles: 1440276515 heartbeat IPC: 2.242 cumulative IPC: 2.147 (Simulation time: 09 hr 57 min 03 sec)
Heartbeat CPU 2 instructions: 500000001 cycles: 1442290749 heartbeat IPC: 0.317 cumulative IPC: 0.3129 (Simulation time: 09 hr 57 min 43 sec)
Heartbeat CPU 1 instructions: 3140000001 cycles: 1444735468 heartbeat IPC: 2.243 cumulative IPC: 2.147 (Simulation time: 09 hr 58 min 33 sec)
Heartbeat CPU 1 instructions: 3150000002 cycles: 1448982139 heartbeat IPC: 2.355 cumulative IPC: 2.148 (Simulation time: 09 hr 59 min 58 sec)
Heartbeat CPU 3 instructions: 280000003 cycles: 1461979011 heartbeat IPC: 0.149 cumulative IPC: 0.1515 (Simulation time: 10 hr 03 min 54 sec)
Heartbeat CPU 1 instructions: 3160000000 cycles: 1462506586 heartbeat IPC: 0.7394 cumulative IPC: 2.135 (Simulation time: 10 hr 04 min 05 sec)
Heartbeat CPU 1 instructions: 3170000003 cycles: 1467040642 heartbeat IPC: 2.206 cumulative IPC: 2.135 (Simulation time: 10 hr 05 min 35 sec)
Heartbeat CPU 1 instructions: 3180000000 cycles: 1471303730 heartbeat IPC: 2.346 cumulative IPC: 2.135 (Simulation time: 10 hr 07 min 01 sec)
Heartbeat CPU 1 instructions: 3190000000 cycles: 1475739787 heartbeat IPC: 2.254 cumulative IPC: 2.136 (Simulation time: 10 hr 08 min 30 sec)
Heartbeat CPU 2 instructions: 510000004 cycles: 1477353736 heartbeat IPC: 0.2852 cumulative IPC: 0.3122 (Simulation time: 10 hr 09 min 03 sec)
Heartbeat CPU 1 instructions: 3200000000 cycles: 1480032460 heartbeat IPC: 2.33 cumulative IPC: 2.136 (Simulation time: 10 hr 09 min 57 sec)
Heartbeat CPU 1 instructions: 3210000001 cycles: 1484325371 heartbeat IPC: 2.329 cumulative IPC: 2.137 (Simulation time: 10 hr 11 min 25 sec)
Heartbeat CPU 1 instructions: 3220000002 cycles: 1488706197 heartbeat IPC: 2.283 cumulative IPC: 2.137 (Simulation time: 10 hr 12 min 53 sec)
Heartbeat CPU 1 instructions: 3230000001 cycles: 1492983750 heartbeat IPC: 2.338 cumulative IPC: 2.138 (Simulation time: 10 hr 14 min 19 sec)
Heartbeat CPU 1 instructions: 3240000001 cycles: 1497275522 heartbeat IPC: 2.33 cumulative IPC: 2.138 (Simulation time: 10 hr 15 min 45 sec)
Heartbeat CPU 1 instructions: 3250000002 cycles: 1501683516 heartbeat IPC: 2.269 cumulative IPC: 2.139 (Simulation time: 10 hr 17 min 14 sec)
Heartbeat CPU 1 instructions: 3260000004 cycles: 1505974712 heartbeat IPC: 2.33 cumulative IPC: 2.139 (Simulation time: 10 hr 18 min 40 sec)
Heartbeat CPU 2 instructions: 520000001 cycles: 1509194096 heartbeat IPC: 0.3141 cumulative IPC: 0.3123 (Simulation time: 10 hr 19 min 44 sec)
Heartbeat CPU 1 instructions: 3270000004 cycles: 1510246068 heartbeat IPC: 2.341 cumulative IPC: 2.14 (Simulation time: 10 hr 20 min 05 sec)
Heartbeat CPU 1 instructions: 3280000000 cycles: 1514560503 heartbeat IPC: 2.318 cumulative IPC: 2.14 (Simulation time: 10 hr 21 min 33 sec)
Heartbeat CPU 1 instructions: 3290000002 cycles: 1519024342 heartbeat IPC: 2.24 cumulative IPC: 2.141 (Simulation time: 10 hr 23 min 03 sec)
Heartbeat CPU 1 instructions: 3300000000 cycles: 1523389329 heartbeat IPC: 2.291 cumulative IPC: 2.141 (Simulation time: 10 hr 24 min 31 sec)
Heartbeat CPU 3 instructions: 290000001 cycles: 1525010355 heartbeat IPC: 0.1587 cumulative IPC: 0.1518 (Simulation time: 10 hr 25 min 03 sec)
Heartbeat CPU 1 instructions: 3310000002 cycles: 1527903740 heartbeat IPC: 2.215 cumulative IPC: 2.141 (Simulation time: 10 hr 26 min 01 sec)
Heartbeat CPU 1 instructions: 3320000002 cycles: 1532452657 heartbeat IPC: 2.198 cumulative IPC: 2.142 (Simulation time: 10 hr 27 min 33 sec)
Heartbeat CPU 1 instructions: 3330000003 cycles: 1536969903 heartbeat IPC: 2.214 cumulative IPC: 2.142 (Simulation time: 10 hr 29 min 03 sec)
Heartbeat CPU 2 instructions: 530000001 cycles: 1540727088 heartbeat IPC: 0.3171 cumulative IPC: 0.3124 (Simulation time: 10 hr 30 min 18 sec)
Heartbeat CPU 1 instructions: 3340000004 cycles: 1541470914 heartbeat IPC: 2.222 cumulative IPC: 2.142 (Simulation time: 10 hr 30 min 33 sec)
Heartbeat CPU 1 instructions: 3350000000 cycles: 1546066966 heartbeat IPC: 2.176 cumulative IPC: 2.142 (Simulation time: 10 hr 32 min 06 sec)
Heartbeat CPU 1 instructions: 3360000002 cycles: 1550566363 heartbeat IPC: 2.223 cumulative IPC: 2.142 (Simulation time: 10 hr 33 min 37 sec)
Heartbeat CPU 1 instructions: 3370000002 cycles: 1555183982 heartbeat IPC: 2.166 cumulative IPC: 2.142 (Simulation time: 10 hr 35 min 08 sec)
Heartbeat CPU 1 instructions: 3380000001 cycles: 1559726599 heartbeat IPC: 2.201 cumulative IPC: 2.143 (Simulation time: 10 hr 36 min 40 sec)
Heartbeat CPU 1 instructions: 3390000004 cycles: 1564399136 heartbeat IPC: 2.14 cumulative IPC: 2.143 (Simulation time: 10 hr 38 min 14 sec)
Heartbeat CPU 1 instructions: 3400000002 cycles: 1568898506 heartbeat IPC: 2.223 cumulative IPC: 2.143 (Simulation time: 10 hr 39 min 45 sec)
Heartbeat CPU 2 instructions: 540000001 cycles: 1572498557 heartbeat IPC: 0.3147 cumulative IPC: 0.3124 (Simulation time: 10 hr 40 min 56 sec)
Heartbeat CPU 1 instructions: 3410000001 cycles: 1573430367 heartbeat IPC: 2.207 cumulative IPC: 2.143 (Simulation time: 10 hr 41 min 15 sec)
Heartbeat CPU 1 instructions: 3420000000 cycles: 1578036987 heartbeat IPC: 2.171 cumulative IPC: 2.143 (Simulation time: 10 hr 42 min 48 sec)
Heartbeat CPU 1 instructions: 3430000001 cycles: 1582555030 heartbeat IPC: 2.213 cumulative IPC: 2.143 (Simulation time: 10 hr 44 min 18 sec)
Heartbeat CPU 1 instructions: 3440000001 cycles: 1587174607 heartbeat IPC: 2.165 cumulative IPC: 2.143 (Simulation time: 10 hr 45 min 51 sec)
Heartbeat CPU 3 instructions: 300000000 cycles: 1589469410 heartbeat IPC: 0.1551 cumulative IPC: 0.152 (Simulation time: 10 hr 46 min 37 sec)
Heartbeat CPU 1 instructions: 3450000000 cycles: 1591824412 heartbeat IPC: 2.151 cumulative IPC: 2.143 (Simulation time: 10 hr 47 min 24 sec)
Heartbeat CPU 1 instructions: 3460000003 cycles: 1596382615 heartbeat IPC: 2.194 cumulative IPC: 2.144 (Simulation time: 10 hr 48 min 55 sec)
Heartbeat CPU 1 instructions: 3470000001 cycles: 1600921514 heartbeat IPC: 2.203 cumulative IPC: 2.144 (Simulation time: 10 hr 50 min 26 sec)
Heartbeat CPU 2 instructions: 550000000 cycles: 1604011030 heartbeat IPC: 0.3173 cumulative IPC: 0.3125 (Simulation time: 10 hr 51 min 28 sec)
Heartbeat CPU 0 instructions: 120000000 cycles: 1604457086 heartbeat IPC: 0.04384 cumulative IPC: 0.0442 (Simulation time: 10 hr 51 min 37 sec)
Heartbeat CPU 1 instructions: 3480000000 cycles: 1605509814 heartbeat IPC: 2.179 cumulative IPC: 2.144 (Simulation time: 10 hr 51 min 58 sec)
Heartbeat CPU 1 instructions: 3490000003 cycles: 1610049368 heartbeat IPC: 2.203 cumulative IPC: 2.144 (Simulation time: 10 hr 53 min 28 sec)
Heartbeat CPU 1 instructions: 3500000002 cycles: 1614546284 heartbeat IPC: 2.224 cumulative IPC: 2.144 (Simulation time: 10 hr 54 min 59 sec)
Heartbeat CPU 1 instructions: 3510000001 cycles: 1619109013 heartbeat IPC: 2.192 cumulative IPC: 2.144 (Simulation time: 10 hr 56 min 30 sec)
Heartbeat CPU 1 instructions: 3520000002 cycles: 1623677154 heartbeat IPC: 2.189 cumulative IPC: 2.145 (Simulation time: 10 hr 58 min 02 sec)
Heartbeat CPU 1 instructions: 3530000002 cycles: 1628259365 heartbeat IPC: 2.182 cumulative IPC: 2.145 (Simulation time: 10 hr 59 min 34 sec)
Heartbeat CPU 1 instructions: 3540000000 cycles: 1632809834 heartbeat IPC: 2.198 cumulative IPC: 2.145 (Simulation time: 11 hr 01 min 05 sec)
Heartbeat CPU 2 instructions: 560000004 cycles: 1635460734 heartbeat IPC: 0.318 cumulative IPC: 0.3126 (Simulation time: 11 hr 01 min 57 sec)
Heartbeat CPU 1 instructions: 3550000001 cycles: 1637379871 heartbeat IPC: 2.188 cumulative IPC: 2.145 (Simulation time: 11 hr 02 min 35 sec)
Heartbeat CPU 1 instructions: 3560000004 cycles: 1641911753 heartbeat IPC: 2.207 cumulative IPC: 2.145 (Simulation time: 11 hr 04 min 06 sec)
Heartbeat CPU 1 instructions: 3570000004 cycles: 1646398950 heartbeat IPC: 2.229 cumulative IPC: 2.145 (Simulation time: 11 hr 05 min 36 sec)
Heartbeat CPU 1 instructions: 3580000004 cycles: 1650889663 heartbeat IPC: 2.227 cumulative IPC: 2.146 (Simulation time: 11 hr 07 min 06 sec)
Heartbeat CPU 3 instructions: 310000002 cycles: 1654027194 heartbeat IPC: 0.1549 cumulative IPC: 0.1521 (Simulation time: 11 hr 08 min 09 sec)
Heartbeat CPU 1 instructions: 3590000003 cycles: 1655427088 heartbeat IPC: 2.204 cumulative IPC: 2.146 (Simulation time: 11 hr 08 min 37 sec)
Heartbeat CPU 1 instructions: 3600000002 cycles: 1659960634 heartbeat IPC: 2.206 cumulative IPC: 2.146 (Simulation time: 11 hr 10 min 08 sec)
Heartbeat CPU 1 instructions: 3610000000 cycles: 1664566130 heartbeat IPC: 2.171 cumulative IPC: 2.146 (Simulation time: 11 hr 11 min 41 sec)
Heartbeat CPU 2 instructions: 570000003 cycles: 1666858474 heartbeat IPC: 0.3185 cumulative IPC: 0.3128 (Simulation time: 11 hr 12 min 27 sec)
Heartbeat CPU 1 instructions: 3620000003 cycles: 1669075820 heartbeat IPC: 2.217 cumulative IPC: 2.146 (Simulation time: 11 hr 13 min 11 sec)
Heartbeat CPU 1 instructions: 3630000001 cycles: 1673707111 heartbeat IPC: 2.159 cumulative IPC: 2.146 (Simulation time: 11 hr 14 min 43 sec)
Heartbeat CPU 1 instructions: 3640000000 cycles: 1678211675 heartbeat IPC: 2.22 cumulative IPC: 2.146 (Simulation time: 11 hr 16 min 14 sec)
Heartbeat CPU 1 instructions: 3650000000 cycles: 1682775351 heartbeat IPC: 2.191 cumulative IPC: 2.146 (Simulation time: 11 hr 17 min 44 sec)
Heartbeat CPU 1 instructions: 3660000003 cycles: 1687259689 heartbeat IPC: 2.23 cumulative IPC: 2.147 (Simulation time: 11 hr 19 min 14 sec)
Heartbeat CPU 1 instructions: 3670000003 cycles: 1691895907 heartbeat IPC: 2.157 cumulative IPC: 2.147 (Simulation time: 11 hr 20 min 47 sec)
Heartbeat CPU 1 instructions: 3680000000 cycles: 1696598461 heartbeat IPC: 2.127 cumulative IPC: 2.147 (Simulation time: 11 hr 22 min 20 sec)
Heartbeat CPU 2 instructions: 580000000 cycles: 1698657290 heartbeat IPC: 0.3145 cumulative IPC: 0.3128 (Simulation time: 11 hr 23 min 02 sec)
Heartbeat CPU 1 instructions: 3690000002 cycles: 1701171765 heartbeat IPC: 2.187 cumulative IPC: 2.147 (Simulation time: 11 hr 23 min 52 sec)
Heartbeat CPU 1 instructions: 3700000001 cycles: 1705683982 heartbeat IPC: 2.216 cumulative IPC: 2.147 (Simulation time: 11 hr 25 min 23 sec)
Heartbeat CPU 1 instructions: 3710000002 cycles: 1710227314 heartbeat IPC: 2.201 cumulative IPC: 2.147 (Simulation time: 11 hr 26 min 53 sec)
Heartbeat CPU 1 instructions: 3720000001 cycles: 1714854194 heartbeat IPC: 2.161 cumulative IPC: 2.147 (Simulation time: 11 hr 28 min 26 sec)
Heartbeat CPU 3 instructions: 320000000 cycles: 1717817981 heartbeat IPC: 0.1568 cumulative IPC: 0.1522 (Simulation time: 11 hr 29 min 25 sec)
Heartbeat CPU 1 instructions: 3730000000 cycles: 1719318175 heartbeat IPC: 2.24 cumulative IPC: 2.147 (Simulation time: 11 hr 29 min 54 sec)
Heartbeat CPU 1 instructions: 3740000001 cycles: 1723793041 heartbeat IPC: 2.235 cumulative IPC: 2.148 (Simulation time: 11 hr 31 min 24 sec)
Heartbeat CPU 1 instructions: 3750000000 cycles: 1728053697 heartbeat IPC: 2.347 cumulative IPC: 2.148 (Simulation time: 11 hr 32 min 50 sec)
Heartbeat CPU 2 instructions: 590000001 cycles: 1730356316 heartbeat IPC: 0.3155 cumulative IPC: 0.3128 (Simulation time: 11 hr 33 min 37 sec)
Heartbeat CPU 1 instructions: 3760000002 cycles: 1732373314 heartbeat IPC: 2.315 cumulative IPC: 2.149 (Simulation time: 11 hr 34 min 17 sec)
Heartbeat CPU 1 instructions: 3770000000 cycles: 1736826886 heartbeat IPC: 2.245 cumulative IPC: 2.149 (Simulation time: 11 hr 35 min 46 sec)
Heartbeat CPU 1 instructions: 3780000000 cycles: 1741096338 heartbeat IPC: 2.342 cumulative IPC: 2.149 (Simulation time: 11 hr 37 min 13 sec)
Heartbeat CPU 1 instructions: 3790000001 cycles: 1745379227 heartbeat IPC: 2.335 cumulative IPC: 2.15 (Simulation time: 11 hr 38 min 39 sec)
Heartbeat CPU 1 instructions: 3800000002 cycles: 1749650647 heartbeat IPC: 2.341 cumulative IPC: 2.15 (Simulation time: 11 hr 40 min 05 sec)
Heartbeat CPU 1 instructions: 3810000001 cycles: 1754052038 heartbeat IPC: 2.272 cumulative IPC: 2.151 (Simulation time: 11 hr 41 min 34 sec)
Heartbeat CPU 1 instructions: 3820000001 cycles: 1758325925 heartbeat IPC: 2.34 cumulative IPC: 2.151 (Simulation time: 11 hr 43 min 00 sec)
Heartbeat CPU 2 instructions: 600000001 cycles: 1761445053 heartbeat IPC: 0.3217 cumulative IPC: 0.313 (Simulation time: 11 hr 44 min 02 sec)
Heartbeat CPU 1 instructions: 3830000000 cycles: 1762750240 heartbeat IPC: 2.26 cumulative IPC: 2.151 (Simulation time: 11 hr 44 min 28 sec)
Heartbeat CPU 1 instructions: 3840000000 cycles: 1767012971 heartbeat IPC: 2.346 cumulative IPC: 2.152 (Simulation time: 11 hr 45 min 54 sec)
Heartbeat CPU 1 instructions: 3850000000 cycles: 1771297365 heartbeat IPC: 2.334 cumulative IPC: 2.152 (Simulation time: 11 hr 47 min 20 sec)
Heartbeat CPU 1 instructions: 3860000000 cycles: 1775550643 heartbeat IPC: 2.351 cumulative IPC: 2.153 (Simulation time: 11 hr 48 min 47 sec)
Heartbeat CPU 1 instructions: 3870000001 cycles: 1779995324 heartbeat IPC: 2.25 cumulative IPC: 2.153 (Simulation time: 11 hr 50 min 15 sec)
Heartbeat CPU 3 instructions: 330000004 cycles: 1780451538 heartbeat IPC: 0.1597 cumulative IPC: 0.1525 (Simulation time: 11 hr 50 min 25 sec)
Heartbeat CPU 1 instructions: 3880000002 cycles: 1784269592 heartbeat IPC: 2.34 cumulative IPC: 2.153 (Simulation time: 11 hr 51 min 43 sec)
Heartbeat CPU 1 instructions: 3890000002 cycles: 1788857383 heartbeat IPC: 2.18 cumulative IPC: 2.153 (Simulation time: 11 hr 53 min 14 sec)
Heartbeat CPU 2 instructions: 610000001 cycles: 1792746113 heartbeat IPC: 0.3195 cumulative IPC: 0.3131 (Simulation time: 11 hr 54 min 32 sec)
Heartbeat CPU 1 instructions: 3900000001 cycles: 1793154984 heartbeat IPC: 2.327 cumulative IPC: 2.154 (Simulation time: 11 hr 54 min 40 sec)
Heartbeat CPU 1 instructions: 3910000001 cycles: 1807081520 heartbeat IPC: 0.7181 cumulative IPC: 2.143 (Simulation time: 11 hr 58 min 52 sec)
Heartbeat CPU 1 instructions: 3920000003 cycles: 1811515431 heartbeat IPC: 2.255 cumulative IPC: 2.143 (Simulation time: 12 hr 00 min 21 sec)
Heartbeat CPU 1 instructions: 3930000001 cycles: 1815787557 heartbeat IPC: 2.341 cumulative IPC: 2.143 (Simulation time: 12 hr 01 min 47 sec)
Heartbeat CPU 1 instructions: 3940000004 cycles: 1820196432 heartbeat IPC: 2.268 cumulative IPC: 2.144 (Simulation time: 12 hr 03 min 15 sec)
Heartbeat CPU 1 instructions: 3950000003 cycles: 1824503118 heartbeat IPC: 2.322 cumulative IPC: 2.144 (Simulation time: 12 hr 04 min 43 sec)
Heartbeat CPU 2 instructions: 620000003 cycles: 1828575979 heartbeat IPC: 0.2791 cumulative IPC: 0.3124 (Simulation time: 12 hr 06 min 05 sec)
Heartbeat CPU 1 instructions: 3960000004 cycles: 1828793561 heartbeat IPC: 2.331 cumulative IPC: 2.145 (Simulation time: 12 hr 06 min 09 sec)
Heartbeat CPU 1 instructions: 3970000003 cycles: 1833213887 heartbeat IPC: 2.262 cumulative IPC: 2.145 (Simulation time: 12 hr 07 min 38 sec)
Heartbeat CPU 0 instructions: 130000002 cycles: 1834510864 heartbeat IPC: 0.04347 cumulative IPC: 0.04411 (Simulation time: 12 hr 08 min 04 sec)
Heartbeat CPU 1 instructions: 3980000004 cycles: 1837519455 heartbeat IPC: 2.323 cumulative IPC: 2.145 (Simulation time: 12 hr 09 min 05 sec)
Heartbeat CPU 1 instructions: 3990000000 cycles: 1841839324 heartbeat IPC: 2.315 cumulative IPC: 2.146 (Simulation time: 12 hr 10 min 33 sec)
*** Reached end of trace: (1, "/home/das/dpc3_traces/603.bwaves_s-3699B.champsimtrace.xz")
Heartbeat CPU 1 instructions: 4000000000 cycles: 1846146636 heartbeat IPC: 2.322 cumulative IPC: 2.146 (Simulation time: 12 hr 11 min 59 sec)
Heartbeat CPU 3 instructions: 340000001 cycles: 1847324872 heartbeat IPC: 0.1495 cumulative IPC: 0.1524 (Simulation time: 12 hr 12 min 23 sec)
Heartbeat CPU 1 instructions: 4010000003 cycles: 1850481493 heartbeat IPC: 2.307 cumulative IPC: 2.146 (Simulation time: 12 hr 13 min 27 sec)
Heartbeat CPU 1 instructions: 4020000003 cycles: 1859058876 heartbeat IPC: 1.166 cumulative IPC: 2.142 (Simulation time: 12 hr 16 min 08 sec)
Heartbeat CPU 2 instructions: 630000004 cycles: 1862397688 heartbeat IPC: 0.2957 cumulative IPC: 0.3121 (Simulation time: 12 hr 17 min 08 sec)
Heartbeat CPU 1 instructions: 4030000004 cycles: 1868527149 heartbeat IPC: 1.056 cumulative IPC: 2.136 (Simulation time: 12 hr 19 min 03 sec)
Heartbeat CPU 1 instructions: 4040000000 cycles: 1872948766 heartbeat IPC: 2.262 cumulative IPC: 2.137 (Simulation time: 12 hr 20 min 31 sec)
Heartbeat CPU 1 instructions: 4050000002 cycles: 1877384186 heartbeat IPC: 2.255 cumulative IPC: 2.137 (Simulation time: 12 hr 22 min 01 sec)
Heartbeat CPU 1 instructions: 4060000000 cycles: 1881746917 heartbeat IPC: 2.292 cumulative IPC: 2.137 (Simulation time: 12 hr 23 min 29 sec)
Heartbeat CPU 1 instructions: 4070000002 cycles: 1886164394 heartbeat IPC: 2.264 cumulative IPC: 2.138 (Simulation time: 12 hr 24 min 59 sec)
Heartbeat CPU 1 instructions: 4080000001 cycles: 1890495292 heartbeat IPC: 2.309 cumulative IPC: 2.138 (Simulation time: 12 hr 26 min 26 sec)
Heartbeat CPU 1 instructions: 4090000002 cycles: 1894919304 heartbeat IPC: 2.26 cumulative IPC: 2.138 (Simulation time: 12 hr 27 min 55 sec)
Heartbeat CPU 2 instructions: 640000004 cycles: 1895002766 heartbeat IPC: 0.3067 cumulative IPC: 0.312 (Simulation time: 12 hr 27 min 57 sec)
Heartbeat CPU 1 instructions: 4100000000 cycles: 1899321427 heartbeat IPC: 2.272 cumulative IPC: 2.139 (Simulation time: 12 hr 29 min 25 sec)
Heartbeat CPU 1 instructions: 4110000001 cycles: 1903901508 heartbeat IPC: 2.183 cumulative IPC: 2.139 (Simulation time: 12 hr 30 min 55 sec)
Heartbeat CPU 1 instructions: 4120000003 cycles: 1908329951 heartbeat IPC: 2.258 cumulative IPC: 2.139 (Simulation time: 12 hr 32 min 25 sec)
Heartbeat CPU 1 instructions: 4130000003 cycles: 1912977928 heartbeat IPC: 2.151 cumulative IPC: 2.139 (Simulation time: 12 hr 33 min 58 sec)
Heartbeat CPU 3 instructions: 350000001 cycles: 1913885609 heartbeat IPC: 0.1502 cumulative IPC: 0.1523 (Simulation time: 12 hr 34 min 16 sec)
Heartbeat CPU 1 instructions: 4140000000 cycles: 1917601153 heartbeat IPC: 2.163 cumulative IPC: 2.139 (Simulation time: 12 hr 35 min 30 sec)
Heartbeat CPU 1 instructions: 4150000000 cycles: 1922030375 heartbeat IPC: 2.258 cumulative IPC: 2.139 (Simulation time: 12 hr 36 min 59 sec)
Heartbeat CPU 2 instructions: 650000000 cycles: 1926571812 heartbeat IPC: 0.3168 cumulative IPC: 0.3121 (Simulation time: 12 hr 38 min 31 sec)
Heartbeat CPU 1 instructions: 4160000004 cycles: 1926575387 heartbeat IPC: 2.2 cumulative IPC: 2.139 (Simulation time: 12 hr 38 min 31 sec)
Heartbeat CPU 1 instructions: 4170000001 cycles: 1931119649 heartbeat IPC: 2.201 cumulative IPC: 2.14 (Simulation time: 12 hr 40 min 02 sec)
Heartbeat CPU 1 instructions: 4180000000 cycles: 1935810158 heartbeat IPC: 2.132 cumulative IPC: 2.14 (Simulation time: 12 hr 41 min 36 sec)
Heartbeat CPU 1 instructions: 4190000004 cycles: 1940478075 heartbeat IPC: 2.142 cumulative IPC: 2.14 (Simulation time: 12 hr 43 min 09 sec)
Heartbeat CPU 1 instructions: 4200000002 cycles: 1944982876 heartbeat IPC: 2.22 cumulative IPC: 2.14 (Simulation time: 12 hr 44 min 39 sec)
Heartbeat CPU 1 instructions: 4210000004 cycles: 1949664703 heartbeat IPC: 2.136 cumulative IPC: 2.14 (Simulation time: 12 hr 46 min 13 sec)
Heartbeat CPU 1 instructions: 4220000000 cycles: 1954577919 heartbeat IPC: 2.035 cumulative IPC: 2.14 (Simulation time: 12 hr 47 min 51 sec)
Heartbeat CPU 2 instructions: 660000002 cycles: 1958602775 heartbeat IPC: 0.3122 cumulative IPC: 0.3121 (Simulation time: 12 hr 49 min 12 sec)
Heartbeat CPU 1 instructions: 4230000003 cycles: 1959269707 heartbeat IPC: 2.131 cumulative IPC: 2.14 (Simulation time: 12 hr 49 min 25 sec)
Heartbeat CPU 1 instructions: 4240000004 cycles: 1963923589 heartbeat IPC: 2.149 cumulative IPC: 2.14 (Simulation time: 12 hr 50 min 58 sec)
Heartbeat CPU 1 instructions: 4250000003 cycles: 1968499542 heartbeat IPC: 2.185 cumulative IPC: 2.14 (Simulation time: 12 hr 52 min 30 sec)
Heartbeat CPU 1 instructions: 4260000000 cycles: 1973041165 heartbeat IPC: 2.202 cumulative IPC: 2.14 (Simulation time: 12 hr 54 min 00 sec)
Heartbeat CPU 1 instructions: 4270000001 cycles: 1977808660 heartbeat IPC: 2.098 cumulative IPC: 2.14 (Simulation time: 12 hr 55 min 34 sec)
Heartbeat CPU 3 instructions: 360000003 cycles: 1978208245 heartbeat IPC: 0.1555 cumulative IPC: 0.1524 (Simulation time: 12 hr 55 min 43 sec)
Heartbeat CPU 1 instructions: 4280000001 cycles: 1982344155 heartbeat IPC: 2.205 cumulative IPC: 2.14 (Simulation time: 12 hr 57 min 07 sec)
Heartbeat CPU 1 instructions: 4290000000 cycles: 1986955824 heartbeat IPC: 2.168 cumulative IPC: 2.14 (Simulation time: 12 hr 58 min 39 sec)
Heartbeat CPU 2 instructions: 670000002 cycles: 1990286806 heartbeat IPC: 0.3156 cumulative IPC: 0.3122 (Simulation time: 12 hr 59 min 45 sec)
Heartbeat CPU 1 instructions: 4300000000 cycles: 1991646928 heartbeat IPC: 2.132 cumulative IPC: 2.14 (Simulation time: 13 hr 00 min 12 sec)
Heartbeat CPU 1 instructions: 4310000001 cycles: 1996184642 heartbeat IPC: 2.204 cumulative IPC: 2.14 (Simulation time: 13 hr 01 min 43 sec)
Heartbeat CPU 1 instructions: 4320000000 cycles: 2000745023 heartbeat IPC: 2.193 cumulative IPC: 2.14 (Simulation time: 13 hr 03 min 14 sec)
Heartbeat CPU 1 instructions: 4330000002 cycles: 2005404455 heartbeat IPC: 2.146 cumulative IPC: 2.14 (Simulation time: 13 hr 04 min 47 sec)
Heartbeat CPU 1 instructions: 4340000002 cycles: 2010081347 heartbeat IPC: 2.138 cumulative IPC: 2.14 (Simulation time: 13 hr 06 min 21 sec)
[...]
cpu2_L2C PREFETCH     ACCESS:          0 HIT:          0 MISS:          0
cpu2_L2C WRITE        ACCESS:          0 HIT:          0 MISS:          0
cpu2_L2C TRANSLATION  ACCESS:          0 HIT:          0 MISS:          0
cpu2_L2C PREFETCH REQUESTED:          0 ISSUED:          0 USEFUL:          0 USELESS:          0
cpu2_L2C AVERAGE MISS LATENCY: 3411 cycles
cpu2_L2C TOTAL        ACCESS:          0 HIT:          0 MISS:          0
cpu2_L2C LOAD         ACCESS:          0 HIT:          0 MISS:          0
cpu2_L2C RFO          ACCESS:          0 HIT:          0 MISS:          0
cpu2_L2C PREFETCH     ACCESS:          0 HIT:          0 MISS:          0
cpu2_L2C WRITE        ACCESS:          0 HIT:          0 MISS:          0
cpu2_L2C TRANSLATION  ACCESS:          0 HIT:          0 MISS:          0
cpu2_L2C PREFETCH REQUESTED:          0 ISSUED:          0 USEFUL:          0 USELESS:          0
cpu2_L2C AVERAGE MISS LATENCY: 3411 cycles
cpu2_L2C TOTAL        ACCESS:   18337140 HIT:   16780450 MISS:    1556690
cpu2_L2C LOAD         ACCESS:   16351380 HIT:   14819212 MISS:    1532168
cpu2_L2C RFO          ACCESS:     652908 HIT:     650997 MISS:       1911
cpu2_L2C PREFETCH     ACCESS:          0 HIT:          0 MISS:          0
cpu2_L2C WRITE        ACCESS:    1304805 HIT:    1304805 MISS:          0
cpu2_L2C TRANSLATION  ACCESS:      28047 HIT:       5436 MISS:      22611
cpu2_L2C PREFETCH REQUESTED:          0 ISSUED:          0 USEFUL:          0 USELESS:          0
cpu2_L2C AVERAGE MISS LATENCY: 3411 cycles
cpu2_L2C TOTAL        ACCESS:          0 HIT:          0 MISS:          0
cpu2_L2C LOAD         ACCESS:          0 HIT:          0 MISS:          0
cpu2_L2C RFO          ACCESS:          0 HIT:          0 MISS:          0
cpu2_L2C PREFETCH     ACCESS:          0 HIT:          0 MISS:          0
cpu2_L2C WRITE        ACCESS:          0 HIT:          0 MISS:          0
cpu2_L2C TRANSLATION  ACCESS:          0 HIT:          0 MISS:          0
cpu2_L2C PREFETCH REQUESTED:          0 ISSUED:          0 USEFUL:          0 USELESS:          0
cpu2_L2C AVERAGE MISS LATENCY: 3411 cycles
cpu2_STLB TOTAL        ACCESS:          0 HIT:          0 MISS:          0
cpu2_STLB LOAD         ACCESS:          0 HIT:          0 MISS:          0
cpu2_STLB RFO          ACCESS:          0 HIT:          0 MISS:          0
cpu2_STLB PREFETCH     ACCESS:          0 HIT:          0 MISS:          0
cpu2_STLB WRITE        ACCESS:          0 HIT:          0 MISS:          0
cpu2_STLB TRANSLATION  ACCESS:          0 HIT:          0 MISS:          0
cpu2_STLB PREFETCH REQUESTED:          0 ISSUED:          0 USEFUL:          0 USELESS:          0
cpu2_STLB AVERAGE MISS LATENCY: 3715 cycles
cpu2_STLB TOTAL        ACCESS:          0 HIT:          0 MISS:          0
cpu2_STLB LOAD         ACCESS:          0 HIT:          0 MISS:          0
cpu2_STLB RFO          ACCESS:          0 HIT:          0 MISS:          0
cpu2_STLB PREFETCH     ACCESS:          0 HIT:          0 MISS:          0
cpu2_STLB WRITE        ACCESS:          0 HIT:          0 MISS:          0
cpu2_STLB TRANSLATION  ACCESS:          0 HIT:          0 MISS:          0
cpu2_STLB PREFETCH REQUESTED:          0 ISSUED:          0 USEFUL:          0 USELESS:          0
cpu2_STLB AVERAGE MISS LATENCY: 3715 cycles
cpu2_STLB TOTAL        ACCESS:   11317386 HIT:   11299236 MISS:      18150
cpu2_STLB LOAD         ACCESS:   11317386 HIT:   11299236 MISS:      18150
cpu2_STLB RFO          ACCESS:          0 HIT:          0 MISS:          0
cpu2_STLB PREFETCH     ACCESS:          0 HIT:          0 MISS:          0
cpu2_STLB WRITE        ACCESS:          0 HIT:          0 MISS:          0
cpu2_STLB TRANSLATION  ACCESS:          0 HIT:          0 MISS:          0
cpu2_STLB PREFETCH REQUESTED:          0 ISSUED:          0 USEFUL:          0 USELESS:          0
cpu2_STLB AVERAGE MISS LATENCY: 3715 cycles
cpu2_STLB TOTAL        ACCESS:          0 HIT:          0 MISS:          0
cpu2_STLB LOAD         ACCESS:          0 HIT:          0 MISS:          0
cpu2_STLB RFO          ACCESS:          0 HIT:          0 MISS:          0
cpu2_STLB PREFETCH     ACCESS:          0 HIT:          0 MISS:          0
cpu2_STLB WRITE        ACCESS:          0 HIT:          0 MISS:          0
cpu2_STLB TRANSLATION  ACCESS:          0 HIT:          0 MISS:          0
cpu2_STLB PREFETCH REQUESTED:          0 ISSUED:          0 USEFUL:          0 USELESS:          0
cpu2_STLB AVERAGE MISS LATENCY: 3715 cycles
cpu3_DTLB TOTAL        ACCESS:          0 HIT:          0 MISS:          0
cpu3_DTLB LOAD         ACCESS:          0 HIT:          0 MISS:          0
cpu3_DTLB RFO          ACCESS:          0 HIT:          0 MISS:          0
cpu3_DTLB PREFETCH     ACCESS:          0 HIT:          0 MISS:          0
cpu3_DTLB WRITE        ACCESS:          0 HIT:          0 MISS:          0
cpu3_DTLB TRANSLATION  ACCESS:          0 HIT:          0 MISS:          0
cpu3_DTLB PREFETCH REQUESTED:          0 ISSUED:          0 USEFUL:          0 USELESS:          0
cpu3_DTLB AVERAGE MISS LATENCY: 76.2 cycles
cpu3_DTLB TOTAL        ACCESS:          0 HIT:          0 MISS:          0
cpu3_DTLB LOAD         ACCESS:          0 HIT:          0 MISS:          0
cpu3_DTLB RFO          ACCESS:          0 HIT:          0 MISS:          0
cpu3_DTLB PREFETCH     ACCESS:          0 HIT:          0 MISS:          0
cpu3_DTLB WRITE        ACCESS:          0 HIT:          0 MISS:          0
cpu3_DTLB TRANSLATION  ACCESS:          0 HIT:          0 MISS:          0
cpu3_DTLB PREFETCH REQUESTED:          0 ISSUED:          0 USEFUL:          0 USELESS:          0
cpu3_DTLB AVERAGE MISS LATENCY: 76.2 cycles
cpu3_DTLB TOTAL        ACCESS:          0 HIT:          0 MISS:          0
cpu3_DTLB LOAD         ACCESS:          0 HIT:          0 MISS:          0
cpu3_DTLB RFO          ACCESS:          0 HIT:          0 MISS:          0
cpu3_DTLB PREFETCH     ACCESS:          0 HIT:          0 MISS:          0
cpu3_DTLB WRITE        ACCESS:          0 HIT:          0 MISS:          0
cpu3_DTLB TRANSLATION  ACCESS:          0 HIT:          0 MISS:          0
cpu3_DTLB PREFETCH REQUESTED:          0 ISSUED:          0 USEFUL:          0 USELESS:          0
cpu3_DTLB AVERAGE MISS LATENCY: 76.2 cycles
cpu3_DTLB TOTAL        ACCESS:   24278296 HIT:   23961020 MISS:     317276
cpu3_DTLB LOAD         ACCESS:   24278296 HIT:   23961020 MISS:     317276
cpu3_DTLB RFO          ACCESS:          0 HIT:          0 MISS:          0
cpu3_DTLB PREFETCH     ACCESS:          0 HIT:          0 MISS:          0
cpu3_DTLB WRITE        ACCESS:          0 HIT:          0 MISS:          0
cpu3_DTLB TRANSLATION  ACCESS:          0 HIT:          0 MISS:          0
cpu3_DTLB PREFETCH REQUESTED:          0 ISSUED:          0 USEFUL:          0 USELESS:          0
cpu3_DTLB AVERAGE MISS LATENCY: 76.2 cycles
cpu3_ITLB TOTAL        ACCESS:          0 HIT:          0 MISS:          0
cpu3_ITLB LOAD         ACCESS:          0 HIT:          0 MISS:          0
cpu3_ITLB RFO          ACCESS:          0 HIT:          0 MISS:          0
cpu3_ITLB PREFETCH     ACCESS:          0 HIT:          0 MISS:          0
cpu3_ITLB WRITE        ACCESS:          0 HIT:          0 MISS:          0
cpu3_ITLB TRANSLATION  ACCESS:          0 HIT:          0 MISS:          0
cpu3_ITLB PREFETCH REQUESTED:          0 ISSUED:          0 USEFUL:          0 USELESS:          0
cpu3_ITLB AVERAGE MISS LATENCY: -nan cycles
cpu3_ITLB TOTAL        ACCESS:          0 HIT:          0 MISS:          0
cpu3_ITLB LOAD         ACCESS:          0 HIT:          0 MISS:          0
cpu3_ITLB RFO          ACCESS:          0 HIT:          0 MISS:          0
cpu3_ITLB PREFETCH     ACCESS:          0 HIT:          0 MISS:          0
cpu3_ITLB WRITE        ACCESS:          0 HIT:          0 MISS:          0
cpu3_ITLB TRANSLATION  ACCESS:          0 HIT:          0 MISS:          0
cpu3_ITLB PREFETCH REQUESTED:          0 ISSUED:          0 USEFUL:          0 USELESS:          0
cpu3_ITLB AVERAGE MISS LATENCY: -nan cycles
cpu3_ITLB TOTAL        ACCESS:          0 HIT:          0 MISS:          0
cpu3_ITLB LOAD         ACCESS:          0 HIT:          0 MISS:          0
cpu3_ITLB RFO          ACCESS:          0 HIT:          0 MISS:          0
cpu3_ITLB PREFETCH     ACCESS:          0 HIT:          0 MISS:          0
cpu3_ITLB WRITE        ACCESS:          0 HIT:          0 MISS:          0
cpu3_ITLB TRANSLATION  ACCESS:          0 HIT:          0 MISS:          0
cpu3_ITLB PREFETCH REQUESTED:          0 ISSUED:          0 USEFUL:          0 USELESS:          0
cpu3_ITLB AVERAGE MISS LATENCY: -nan cycles
cpu3_ITLB TOTAL        ACCESS:          0 HIT:          0 MISS:          0
cpu3_ITLB LOAD         ACCESS:          0 HIT:          0 MISS:          0
cpu3_ITLB RFO          ACCESS:          0 HIT:          0 MISS:          0
cpu3_ITLB PREFETCH     ACCESS:          0 HIT:          0 MISS:          0
cpu3_ITLB WRITE        ACCESS:          0 HIT:          0 MISS:          0
cpu3_ITLB TRANSLATION  ACCESS:          0 HIT:          0 MISS:          0
cpu3_ITLB PREFETCH REQUESTED:          0 ISSUED:          0 USEFUL:          0 USELESS:          0
cpu3_ITLB AVERAGE MISS LATENCY: -nan cycles
cpu3_L1D TOTAL        ACCESS:          0 HIT:          0 MISS:          0
cpu3_L1D LOAD         ACCESS:          0 HIT:          0 MISS:          0
cpu3_L1D RFO          ACCESS:          0 HIT:          0 MISS:          0
cpu3_L1D PREFETCH     ACCESS:          0 HIT:          0 MISS:          0
cpu3_L1D WRITE        ACCESS:          0 HIT:          0 MISS:          0
cpu3_L1D TRANSLATION  ACCESS:          0 HIT:          0 MISS:          0
cpu3_L1D PREFETCH REQUESTED:  830383738 ISSUED:   24103612 USEFUL:    1820719 USELESS:     329056
cpu3_L1D AVERAGE MISS LATENCY: 1123 cycles
cpu3_L1D TOTAL        ACCESS:          0 HIT:          0 MISS:          0
cpu3_L1D LOAD         ACCESS:          0 HIT:          0 MISS:          0
cpu3_L1D RFO          ACCESS:          0 HIT:          0 MISS:          0
cpu3_L1D PREFETCH     ACCESS:          0 HIT:          0 MISS:          0
cpu3_L1D WRITE        ACCESS:          0 HIT:          0 MISS:          0
cpu3_L1D TRANSLATION  ACCESS:          0 HIT:          0 MISS:          0
cpu3_L1D PREFETCH REQUESTED:  830383738 ISSUED:   24103612 USEFUL:    1820719 USELESS:     329056
cpu3_L1D AVERAGE MISS LATENCY: 1123 cycles
cpu3_L1D TOTAL        ACCESS:          0 HIT:          0 MISS:          0
cpu3_L1D LOAD         ACCESS:          0 HIT:          0 MISS:          0
cpu3_L1D RFO          ACCESS:          0 HIT:          0 MISS:          0
cpu3_L1D PREFETCH     ACCESS:          0 HIT:          0 MISS:          0
cpu3_L1D WRITE        ACCESS:          0 HIT:          0 MISS:          0
cpu3_L1D TRANSLATION  ACCESS:          0 HIT:          0 MISS:          0
cpu3_L1D PREFETCH REQUESTED:  830383738 ISSUED:   24103612 USEFUL:    1820719 USELESS:     329056
cpu3_L1D AVERAGE MISS LATENCY: 1123 cycles
cpu3_L1D TOTAL        ACCESS:   39695635 HIT:   20701905 MISS:   18993730
cpu3_L1D LOAD         ACCESS:    5191070 HIT:    3371608 MISS:    1819462
cpu3_L1D RFO          ACCESS:          0 HIT:          0 MISS:          0
cpu3_L1D PREFETCH     ACCESS:    6907801 HIT:    1214836 MISS:    5692965
cpu3_L1D WRITE        ACCESS:   27484314 HIT:   16115230 MISS:   11369084
cpu3_L1D TRANSLATION  ACCESS:     112450 HIT:        231 MISS:     112219
cpu3_L1D PREFETCH REQUESTED:  830383738 ISSUED:   24103612 USEFUL:    1820719 USELESS:     329056
cpu3_L1D AVERAGE MISS LATENCY: 1123 cycles
cpu3_L1I TOTAL        ACCESS:          0 HIT:          0 MISS:          0
cpu3_L1I LOAD         ACCESS:          0 HIT:          0 MISS:          0
cpu3_L1I RFO          ACCESS:          0 HIT:          0 MISS:          0
cpu3_L1I PREFETCH     ACCESS:          0 HIT:          0 MISS:          0
cpu3_L1I WRITE        ACCESS:          0 HIT:          0 MISS:          0
cpu3_L1I TRANSLATION  ACCESS:          0 HIT:          0 MISS:          0
cpu3_L1I PREFETCH REQUESTED:          0 ISSUED:          0 USEFUL:          0 USELESS:          0
cpu3_L1I AVERAGE MISS LATENCY: -nan cycles
cpu3_L1I TOTAL        ACCESS:          0 HIT:          0 MISS:          0
cpu3_L1I LOAD         ACCESS:          0 HIT:          0 MISS:          0
cpu3_L1I RFO          ACCESS:          0 HIT:          0 MISS:          0
cpu3_L1I PREFETCH     ACCESS:          0 HIT:          0 MISS:          0
cpu3_L1I WRITE        ACCESS:          0 HIT:          0 MISS:          0
cpu3_L1I TRANSLATION  ACCESS:          0 HIT:          0 MISS:          0
cpu3_L1I PREFETCH REQUESTED:          0 ISSUED:          0 USEFUL:          0 USELESS:          0
cpu3_L1I AVERAGE MISS LATENCY: -nan cycles
cpu3_L1I TOTAL        ACCESS:          0 HIT:          0 MISS:          0
cpu3_L1I LOAD         ACCESS:          0 HIT:          0 MISS:          0
cpu3_L1I RFO          ACCESS:          0 HIT:          0 MISS:          0
cpu3_L1I PREFETCH     ACCESS:          0 HIT:          0 MISS:          0
cpu3_L1I WRITE        ACCESS:          0 HIT:          0 MISS:          0
cpu3_L1I TRANSLATION  ACCESS:          0 HIT:          0 MISS:          0
cpu3_L1I PREFETCH REQUESTED:          0 ISSUED:          0 USEFUL:          0 USELESS:          0
cpu3_L1I AVERAGE MISS LATENCY: -nan cycles
cpu3_L1I TOTAL        ACCESS:          0 HIT:          0 MISS:          0
cpu3_L1I LOAD         ACCESS:          0 HIT:          0 MISS:          0
cpu3_L1I RFO          ACCESS:          0 HIT:          0 MISS:          0
cpu3_L1I PREFETCH     ACCESS:          0 HIT:          0 MISS:          0
cpu3_L1I WRITE        ACCESS:          0 HIT:          0 MISS:          0
cpu3_L1I TRANSLATION  ACCESS:          0 HIT:          0 MISS:          0
cpu3_L1I PREFETCH REQUESTED:          0 ISSUED:          0 USEFUL:          0 USELESS:          0
cpu3_L1I AVERAGE MISS LATENCY: -nan cycles
cpu3_L2C TOTAL        ACCESS:          0 HIT:          0 MISS:          0
cpu3_L2C LOAD         ACCESS:          0 HIT:          0 MISS:          0
cpu3_L2C RFO          ACCESS:          0 HIT:          0 MISS:          0
cpu3_L2C PREFETCH     ACCESS:          0 HIT:          0 MISS:          0
cpu3_L2C WRITE        ACCESS:          0 HIT:          0 MISS:          0
cpu3_L2C TRANSLATION  ACCESS:          0 HIT:          0 MISS:          0
cpu3_L2C PREFETCH REQUESTED:          0 ISSUED:          0 USEFUL:          0 USELESS:          0
cpu3_L2C AVERAGE MISS LATENCY: 3133 cycles
cpu3_L2C TOTAL        ACCESS:          0 HIT:          0 MISS:          0
cpu3_L2C LOAD         ACCESS:          0 HIT:          0 MISS:          0
cpu3_L2C RFO          ACCESS:          0 HIT:          0 MISS:          0
cpu3_L2C PREFETCH     ACCESS:          0 HIT:          0 MISS:          0
cpu3_L2C WRITE        ACCESS:          0 HIT:          0 MISS:          0
cpu3_L2C TRANSLATION  ACCESS:          0 HIT:          0 MISS:          0
cpu3_L2C PREFETCH REQUESTED:          0 ISSUED:          0 USEFUL:          0 USELESS:          0
cpu3_L2C AVERAGE MISS LATENCY: 3133 cycles
cpu3_L2C TOTAL        ACCESS:          0 HIT:          0 MISS:          0
cpu3_L2C LOAD         ACCESS:          0 HIT:          0 MISS:          0
cpu3_L2C RFO          ACCESS:          0 HIT:          0 MISS:          0
cpu3_L2C PREFETCH     ACCESS:          0 HIT:          0 MISS:          0
cpu3_L2C WRITE        ACCESS:          0 HIT:          0 MISS:          0
cpu3_L2C TRANSLATION  ACCESS:          0 HIT:          0 MISS:          0
cpu3_L2C PREFETCH REQUESTED:          0 ISSUED:          0 USEFUL:          0 USELESS:          0
cpu3_L2C AVERAGE MISS LATENCY: 3133 cycles
cpu3_L2C TOTAL        ACCESS:   26973961 HIT:   17261278 MISS:    9712683
cpu3_L2C LOAD         ACCESS:    1326286 HIT:     732622 MISS:     593664
cpu3_L2C RFO          ACCESS:   10146823 HIT:    5029241 MISS:    5117582
cpu3_L2C PREFETCH     ACCESS:    5238446 HIT:    1237696 MISS:    4000750
cpu3_L2C WRITE        ACCESS:   10150187 HIT:   10150187 MISS:          0
cpu3_L2C TRANSLATION  ACCESS:     112219 HIT:     111532 MISS:        687
cpu3_L2C PREFETCH REQUESTED:          0 ISSUED:          0 USEFUL:          0 USELESS:          0
cpu3_L2C AVERAGE MISS LATENCY: 3133 cycles
cpu3_STLB TOTAL        ACCESS:          0 HIT:          0 MISS:          0
cpu3_STLB LOAD         ACCESS:          0 HIT:          0 MISS:          0
cpu3_STLB RFO          ACCESS:          0 HIT:          0 MISS:          0
cpu3_STLB PREFETCH     ACCESS:          0 HIT:          0 MISS:          0
cpu3_STLB WRITE        ACCESS:          0 HIT:          0 MISS:          0
cpu3_STLB TRANSLATION  ACCESS:          0 HIT:          0 MISS:          0
cpu3_STLB PREFETCH REQUESTED:          0 ISSUED:          0 USEFUL:          0 USELESS:          0
cpu3_STLB AVERAGE MISS LATENCY: 261 cycles
cpu3_STLB TOTAL        ACCESS:          0 HIT:          0 MISS:          0
cpu3_STLB LOAD         ACCESS:          0 HIT:          0 MISS:          0
cpu3_STLB RFO          ACCESS:          0 HIT:          0 MISS:          0
cpu3_STLB PREFETCH     ACCESS:          0 HIT:          0 MISS:          0
cpu3_STLB WRITE        ACCESS:          0 HIT:          0 MISS:          0
cpu3_STLB TRANSLATION  ACCESS:          0 HIT:          0 MISS:          0
cpu3_STLB PREFETCH REQUESTED:          0 ISSUED:          0 USEFUL:          0 USELESS:          0
cpu3_STLB AVERAGE MISS LATENCY: 261 cycles
cpu3_STLB TOTAL        ACCESS:          0 HIT:          0 MISS:          0
cpu3_STLB LOAD         ACCESS:          0 HIT:          0 MISS:          0
cpu3_STLB RFO          ACCESS:          0 HIT:          0 MISS:          0
cpu3_STLB PREFETCH     ACCESS:          0 HIT:          0 MISS:          0
cpu3_STLB WRITE        ACCESS:          0 HIT:          0 MISS:          0
cpu3_STLB TRANSLATION  ACCESS:          0 HIT:          0 MISS:          0
cpu3_STLB PREFETCH REQUESTED:          0 ISSUED:          0 USEFUL:          0 USELESS:          0
cpu3_STLB AVERAGE MISS LATENCY: 261 cycles
cpu3_STLB TOTAL        ACCESS:     207030 HIT:      94690 MISS:     112340
cpu3_STLB LOAD         ACCESS:     207030 HIT:      94690 MISS:     112340
cpu3_STLB RFO          ACCESS:          0 HIT:          0 MISS:          0
cpu3_STLB PREFETCH     ACCESS:          0 HIT:          0 MISS:          0
cpu3_STLB WRITE        ACCESS:          0 HIT:          0 MISS:          0
cpu3_STLB TRANSLATION  ACCESS:          0 HIT:          0 MISS:          0
cpu3_STLB PREFETCH REQUESTED:          0 ISSUED:          0 USEFUL:          0 USELESS:          0
cpu3_STLB AVERAGE MISS LATENCY: 261 cycles

DRAM Statistics

Channel 0 RQ ROW_BUFFER_HIT:    4152596
  ROW_BUFFER_MISS:   32842418
 AVG DBUS CONGESTED CYCLE: 3.997
WQ ROW_BUFFER_HIT: Channel 0 
  ROW_BUFFER_MISS:     412497
  FULL:   21204044
BERTI TO_L1: 5472669 TO_L2: 874251649 TO_L2_BC_MSHR: 313002967
BERTI AVG_LAT: 466.065 NUM_TRACK_LATENCY: 124181658 NUM_CANT_TRACK_LATENCY: 6015402
BERTI CROSS_PAGE 238668279 NO_CROSS_PAGE: 641056039
BERTI FOUND_BERTI: 297790877 NO_FOUND_BERTI: 1311542694
BERTI AVERAGE_ISSUED: 2.64632
BERTI TO_L1: 5472669 TO_L2: 874251649 TO_L2_BC_MSHR: 313002967
BERTI AVG_LAT: 466.065 NUM_TRACK_LATENCY: 124181658 NUM_CANT_TRACK_LATENCY: 6015402
BERTI CROSS_PAGE 238668279 NO_CROSS_PAGE: 641056039
BERTI FOUND_BERTI: 297790877 NO_FOUND_BERTI: 1311542694
BERTI AVERAGE_ISSUED: 2.64632
BERTI TO_L1: 5472669 TO_L2: 874251649 TO_L2_BC_MSHR: 313002967
BERTI AVG_LAT: 466.065 NUM_TRACK_LATENCY: 124181658 NUM_CANT_TRACK_LATENCY: 6015402
BERTI CROSS_PAGE 238668279 NO_CROSS_PAGE: 641056039
BERTI FOUND_BERTI: 297790877 NO_FOUND_BERTI: 1311542694
BERTI AVERAGE_ISSUED: 2.64632
BERTI TO_L1: 5472669 TO_L2: 874251649 TO_L2_BC_MSHR: 313002967
BERTI AVG_LAT: 466.065 NUM_TRACK_LATENCY: 124181658 NUM_CANT_TRACK_LATENCY: 6015402
BERTI CROSS_PAGE 238668279 NO_CROSS_PAGE: 641056039
BERTI FOUND_BERTI: 297790877 NO_FOUND_BERTI: 1311542694
BERTI AVERAGE_ISSUED: 2.64632
