WARNING: physical memory size is smaller than virtual memory size.
WARNING: option --warmup_instructions is deprecated. Use --warmup-instructions instead.
WARNING: option --simulation_instructions is deprecated. Use --simulation-instructions instead.

*** ChampSim Multicore Out-of-Order Simulator ***
Warmup Instructions: 50000000
Simulation Instructions: 150000000
Number of CPUs: 4
Page size: 4096

Berti Prefetcher
BERTI HASH ORIGINAL
BERTI IP MASK ffff
Berti Prefetcher
BERTI HASH ORIGINAL
BERTI IP MASK ffff
Berti Prefetcher
BERTI HASH ORIGINAL
BERTI IP MASK ffff
Berti Prefetcher
BERTI HASH ORIGINAL
BERTI IP MASK ffff
Off-chip DRAM Size: 4 GiB Channels: 1 Width: 64-bit Data Race: 3200 MT/s
Heartbeat CPU 3 instructions: 10000001 cycles: 2502909 heartbeat IPC: 3.995 cumulative IPC: 3.995 (Simulation time: 00 hr 02 min 16 sec)
Heartbeat CPU 2 instructions: 10000001 cycles: 2639173 heartbeat IPC: 3.789 cumulative IPC: 3.789 (Simulation time: 00 hr 02 min 23 sec)
Heartbeat CPU 1 instructions: 10000003 cycles: 2696930 heartbeat IPC: 3.708 cumulative IPC: 3.708 (Simulation time: 00 hr 02 min 26 sec)
Heartbeat CPU 0 instructions: 10000001 cycles: 3840519 heartbeat IPC: 2.604 cumulative IPC: 2.604 (Simulation time: 00 hr 03 min 28 sec)
Heartbeat CPU 3 instructions: 20000001 cycles: 5005630 heartbeat IPC: 3.996 cumulative IPC: 3.996 (Simulation time: 00 hr 04 min 32 sec)
Heartbeat CPU 1 instructions: 20000002 cycles: 5210170 heartbeat IPC: 3.979 cumulative IPC: 3.839 (Simulation time: 00 hr 04 min 44 sec)
Heartbeat CPU 2 instructions: 20000000 cycles: 5278243 heartbeat IPC: 3.789 cumulative IPC: 3.789 (Simulation time: 00 hr 04 min 47 sec)
Heartbeat CPU 3 instructions: 30000003 cycles: 7507965 heartbeat IPC: 3.996 cumulative IPC: 3.996 (Simulation time: 00 hr 06 min 51 sec)
Heartbeat CPU 0 instructions: 20000002 cycles: 7677985 heartbeat IPC: 2.606 cumulative IPC: 2.605 (Simulation time: 00 hr 07 min 01 sec)
Heartbeat CPU 1 instructions: 30000000 cycles: 7723309 heartbeat IPC: 3.979 cumulative IPC: 3.884 (Simulation time: 00 hr 07 min 03 sec)
Heartbeat CPU 2 instructions: 30000003 cycles: 7917066 heartbeat IPC: 3.79 cumulative IPC: 3.789 (Simulation time: 00 hr 07 min 14 sec)
Heartbeat CPU 3 instructions: 40000002 cycles: 10010596 heartbeat IPC: 3.996 cumulative IPC: 3.996 (Simulation time: 00 hr 09 min 08 sec)
Heartbeat CPU 1 instructions: 40000003 cycles: 10239882 heartbeat IPC: 3.974 cumulative IPC: 3.906 (Simulation time: 00 hr 09 min 22 sec)
Heartbeat CPU 2 instructions: 40000002 cycles: 10555899 heartbeat IPC: 3.79 cumulative IPC: 3.789 (Simulation time: 00 hr 09 min 39 sec)
Heartbeat CPU 0 instructions: 30000000 cycles: 11516622 heartbeat IPC: 2.605 cumulative IPC: 2.605 (Simulation time: 00 hr 10 min 33 sec)
Heartbeat CPU 3 instructions: 50000003 cycles: 12513280 heartbeat IPC: 3.996 cumulative IPC: 3.996 (Simulation time: 00 hr 11 min 28 sec)
Warmup finished CPU 3 instructions: 50000003 cycles: 12513281 cumulative IPC: 3.996 (Simulation time: 00 hr 11 min 28 sec)
Heartbeat CPU 1 instructions: 50000001 cycles: 12760653 heartbeat IPC: 3.967 cumulative IPC: 3.918 (Simulation time: 00 hr 11 min 42 sec)
Warmup finished CPU 1 instructions: 50000001 cycles: 12760654 cumulative IPC: 3.918 (Simulation time: 00 hr 11 min 42 sec)
Heartbeat CPU 2 instructions: 50000002 cycles: 13195959 heartbeat IPC: 3.788 cumulative IPC: 3.789 (Simulation time: 00 hr 12 min 06 sec)
Warmup finished CPU 2 instructions: 50000002 cycles: 13195960 cumulative IPC: 3.789 (Simulation time: 00 hr 12 min 06 sec)
Heartbeat CPU 3 instructions: 60000001 cycles: 15015994 heartbeat IPC: 3.996 cumulative IPC: 3.996 (Simulation time: 00 hr 13 min 49 sec)
Heartbeat CPU 1 instructions: 60000003 cycles: 15281798 heartbeat IPC: 3.966 cumulative IPC: 3.926 (Simulation time: 00 hr 14 min 04 sec)
Heartbeat CPU 0 instructions: 40000001 cycles: 15357724 heartbeat IPC: 2.603 cumulative IPC: 2.605 (Simulation time: 00 hr 14 min 09 sec)
Heartbeat CPU 2 instructions: 60000003 cycles: 15839017 heartbeat IPC: 3.783 cumulative IPC: 3.788 (Simulation time: 00 hr 14 min 34 sec)
Heartbeat CPU 3 instructions: 70000003 cycles: 17520811 heartbeat IPC: 3.992 cumulative IPC: 3.995 (Simulation time: 00 hr 16 min 09 sec)
Heartbeat CPU 1 instructions: 70000003 cycles: 17797694 heartbeat IPC: 3.975 cumulative IPC: 3.933 (Simulation time: 00 hr 16 min 24 sec)
Heartbeat CPU 2 instructions: 70000003 cycles: 18486383 heartbeat IPC: 3.777 cumulative IPC: 3.787 (Simulation time: 00 hr 17 min 02 sec)
Heartbeat CPU 0 instructions: 50000004 cycles: 19196994 heartbeat IPC: 2.605 cumulative IPC: 2.605 (Simulation time: 00 hr 17 min 40 sec)
Warmup finished CPU 0 instructions: 50000004 cycles: 19196995 cumulative IPC: 2.605 (Simulation time: 00 hr 17 min 40 sec)
Warmup complete CPU 0 instructions: 50000004 cycles: 19196995 cumulative IPC: 2.605 (Simulation time: 00 hr 17 min 40 sec)
Warmup complete CPU 1 instructions: 75568837 cycles: 19196995 cumulative IPC: 3.936 (Simulation time: 00 hr 17 min 40 sec)
Warmup complete CPU 2 instructions: 72792136 cycles: 19196995 cumulative IPC: 3.792 (Simulation time: 00 hr 17 min 40 sec)
Warmup complete CPU 3 instructions: 76704735 cycles: 19196995 cumulative IPC: 3.996 (Simulation time: 00 hr 17 min 40 sec)
Heartbeat CPU 3 instructions: 80000001 cycles: 20754168 heartbeat IPC: 3.093 cumulative IPC: 2.116 (Simulation time: 00 hr 18 min 47 sec)
Heartbeat CPU 1 instructions: 80000003 cycles: 21224102 heartbeat IPC: 2.919 cumulative IPC: 2.186 (Simulation time: 00 hr 19 min 07 sec)
Heartbeat CPU 2 instructions: 80000000 cycles: 23292562 heartbeat IPC: 2.081 cumulative IPC: 1.76 (Simulation time: 00 hr 20 min 25 sec)
Heartbeat CPU 3 instructions: 90000002 cycles: 25480743 heartbeat IPC: 2.116 cumulative IPC: 2.116 (Simulation time: 00 hr 21 min 54 sec)
Heartbeat CPU 1 instructions: 90000003 cycles: 25738044 heartbeat IPC: 2.215 cumulative IPC: 2.206 (Simulation time: 00 hr 22 min 06 sec)
Heartbeat CPU 2 instructions: 90000001 cycles: 28253180 heartbeat IPC: 2.016 cumulative IPC: 1.9 (Simulation time: 00 hr 23 min 44 sec)
Heartbeat CPU 3 instructions: 100000000 cycles: 30211590 heartbeat IPC: 2.114 cumulative IPC: 2.115 (Simulation time: 00 hr 24 min 58 sec)
Heartbeat CPU 0 instructions: 60000004 cycles: 30857373 heartbeat IPC: 0.8576 cumulative IPC: 0.8576 (Simulation time: 00 hr 25 min 21 sec)
Heartbeat CPU 3 instructions: 110000001 cycles: 34951023 heartbeat IPC: 2.11 cumulative IPC: 2.113 (Simulation time: 00 hr 27 min 48 sec)
Heartbeat CPU 2 instructions: 100000003 cycles: 35072310 heartbeat IPC: 1.466 cumulative IPC: 1.714 (Simulation time: 00 hr 27 min 53 sec)
Heartbeat CPU 3 instructions: 120000000 cycles: 39603681 heartbeat IPC: 2.149 cumulative IPC: 2.122 (Simulation time: 00 hr 30 min 40 sec)
Heartbeat CPU 1 instructions: 100000000 cycles: 42634524 heartbeat IPC: 0.5918 cumulative IPC: 1.042 (Simulation time: 00 hr 32 min 23 sec)
Heartbeat CPU 3 instructions: 130000002 cycles: 44314554 heartbeat IPC: 2.123 cumulative IPC: 2.122 (Simulation time: 00 hr 33 min 19 sec)
Heartbeat CPU 2 instructions: 110000001 cycles: 45326948 heartbeat IPC: 0.9752 cumulative IPC: 1.424 (Simulation time: 00 hr 33 min 51 sec)
Heartbeat CPU 3 instructions: 140000000 cycles: 49199494 heartbeat IPC: 2.047 cumulative IPC: 2.11 (Simulation time: 00 hr 36 min 00 sec)
Heartbeat CPU 3 instructions: 150000004 cycles: 53917410 heartbeat IPC: 2.12 cumulative IPC: 2.111 (Simulation time: 00 hr 38 min 38 sec)
Heartbeat CPU 0 instructions: 70000000 cycles: 57464805 heartbeat IPC: 0.3758 cumulative IPC: 0.5226 (Simulation time: 00 hr 40 min 28 sec)
Heartbeat CPU 3 instructions: 160000003 cycles: 58634740 heartbeat IPC: 2.12 cumulative IPC: 2.112 (Simulation time: 00 hr 41 min 06 sec)
Heartbeat CPU 3 instructions: 170000003 cycles: 63321312 heartbeat IPC: 2.134 cumulative IPC: 2.114 (Simulation time: 00 hr 43 min 34 sec)
Heartbeat CPU 2 instructions: 120000003 cycles: 64662363 heartbeat IPC: 0.5172 cumulative IPC: 1.038 (Simulation time: 00 hr 44 min 20 sec)
Heartbeat CPU 3 instructions: 180000004 cycles: 67989190 heartbeat IPC: 2.142 cumulative IPC: 2.117 (Simulation time: 00 hr 46 min 15 sec)
Heartbeat CPU 3 instructions: 190000002 cycles: 72680603 heartbeat IPC: 2.132 cumulative IPC: 2.118 (Simulation time: 00 hr 49 min 35 sec)
Heartbeat CPU 3 instructions: 200000000 cycles: 77632950 heartbeat IPC: 2.019 cumulative IPC: 2.11 (Simulation time: 00 hr 52 min 39 sec)
Heartbeat CPU 2 instructions: 130000003 cycles: 78363941 heartbeat IPC: 0.7298 cumulative IPC: 0.9669 (Simulation time: 00 hr 53 min 11 sec)
Heartbeat CPU 3 instructions: 210000000 cycles: 82584610 heartbeat IPC: 2.02 cumulative IPC: 2.103 (Simulation time: 00 hr 55 min 29 sec)
Heartbeat CPU 3 instructions: 220000000 cycles: 87403298 heartbeat IPC: 2.075 cumulative IPC: 2.101 (Simulation time: 00 hr 58 min 03 sec)
Heartbeat CPU 2 instructions: 140000002 cycles: 90546903 heartbeat IPC: 0.8208 cumulative IPC: 0.9419 (Simulation time: 01 hr 00 min 21 sec)
Simulation finished CPU 3 instructions: 150000002 cycles: 71378751 cumulative IPC: 2.101 (Simulation time: 01 hr 00 min 22 sec)
Heartbeat CPU 3 instructions: 230000001 cycles: 92060606 heartbeat IPC: 2.147 cumulative IPC: 2.104 (Simulation time: 01 hr 01 min 20 sec)
Heartbeat CPU 0 instructions: 80000003 cycles: 92461197 heartbeat IPC: 0.2857 cumulative IPC: 0.4095 (Simulation time: 01 hr 01 min 36 sec)
Heartbeat CPU 3 instructions: 240000000 cycles: 96762475 heartbeat IPC: 2.127 cumulative IPC: 2.105 (Simulation time: 01 hr 04 min 03 sec)
Heartbeat CPU 3 instructions: 250000002 cycles: 101500165 heartbeat IPC: 2.111 cumulative IPC: 2.106 (Simulation time: 01 hr 07 min 34 sec)
Heartbeat CPU 2 instructions: 150000000 cycles: 101851893 heartbeat IPC: 0.8846 cumulative IPC: 0.9341 (Simulation time: 01 hr 07 min 49 sec)
Heartbeat CPU 1 instructions: 110000001 cycles: 103403041 heartbeat IPC: 0.1646 cumulative IPC: 0.4089 (Simulation time: 01 hr 09 min 17 sec)
Heartbeat CPU 3 instructions: 260000000 cycles: 106238519 heartbeat IPC: 2.11 cumulative IPC: 2.106 (Simulation time: 01 hr 11 min 14 sec)
Heartbeat CPU 1 instructions: 120000003 cycles: 109445927 heartbeat IPC: 1.655 cumulative IPC: 0.4923 (Simulation time: 01 hr 14 min 06 sec)
Heartbeat CPU 2 instructions: 160000000 cycles: 110352580 heartbeat IPC: 1.176 cumulative IPC: 0.9567 (Simulation time: 01 hr 15 min 02 sec)
Heartbeat CPU 3 instructions: 270000000 cycles: 110864307 heartbeat IPC: 2.162 cumulative IPC: 2.109 (Simulation time: 01 hr 15 min 35 sec)
Heartbeat CPU 1 instructions: 130000001 cycles: 113130288 heartbeat IPC: 2.714 cumulative IPC: 0.5795 (Simulation time: 01 hr 17 min 54 sec)
Heartbeat CPU 0 instructions: 90000000 cycles: 113357241 heartbeat IPC: 0.4786 cumulative IPC: 0.4248 (Simulation time: 01 hr 18 min 09 sec)
Heartbeat CPU 2 instructions: 170000002 cycles: 114708240 heartbeat IPC: 2.296 cumulative IPC: 1.018 (Simulation time: 01 hr 19 min 31 sec)
Heartbeat CPU 3 instructions: 280000001 cycles: 115511718 heartbeat IPC: 2.152 cumulative IPC: 2.111 (Simulation time: 01 hr 20 min 22 sec)
Heartbeat CPU 1 instructions: 140000000 cycles: 116683158 heartbeat IPC: 2.815 cumulative IPC: 0.6609 (Simulation time: 01 hr 21 min 37 sec)
Heartbeat CPU 3 instructions: 290000004 cycles: 120168116 heartbeat IPC: 2.148 cumulative IPC: 2.112 (Simulation time: 01 hr 24 min 06 sec)
Heartbeat CPU 1 instructions: 150000003 cycles: 121837852 heartbeat IPC: 1.94 cumulative IPC: 0.7252 (Simulation time: 01 hr 25 min 22 sec)
Heartbeat CPU 2 instructions: 180000003 cycles: 122113949 heartbeat IPC: 1.35 cumulative IPC: 1.042 (Simulation time: 01 hr 25 min 34 sec)
Heartbeat CPU 3 instructions: 300000000 cycles: 124806841 heartbeat IPC: 2.156 cumulative IPC: 2.114 (Simulation time: 01 hr 27 min 25 sec)
Heartbeat CPU 0 instructions: 100000001 cycles: 126315698 heartbeat IPC: 0.7717 cumulative IPC: 0.4668 (Simulation time: 01 hr 28 min 27 sec)
Heartbeat CPU 1 instructions: 160000000 cycles: 127269201 heartbeat IPC: 1.841 cumulative IPC: 0.7812 (Simulation time: 01 hr 29 min 17 sec)
Heartbeat CPU 3 instructions: 310000001 cycles: 129453159 heartbeat IPC: 2.152 cumulative IPC: 2.116 (Simulation time: 01 hr 31 min 07 sec)
Heartbeat CPU 2 instructions: 190000004 cycles: 129731117 heartbeat IPC: 1.313 cumulative IPC: 1.06 (Simulation time: 01 hr 31 min 19 sec)
Heartbeat CPU 1 instructions: 170000002 cycles: 132697699 heartbeat IPC: 1.842 cumulative IPC: 0.832 (Simulation time: 01 hr 34 min 16 sec)
Heartbeat CPU 3 instructions: 320000001 cycles: 134072987 heartbeat IPC: 2.165 cumulative IPC: 2.118 (Simulation time: 01 hr 35 min 46 sec)
Heartbeat CPU 2 instructions: 200000002 cycles: 136206330 heartbeat IPC: 1.544 cumulative IPC: 1.087 (Simulation time: 01 hr 37 min 44 sec)
Heartbeat CPU 1 instructions: 180000000 cycles: 137752748 heartbeat IPC: 1.978 cumulative IPC: 0.8809 (Simulation time: 01 hr 39 min 13 sec)
Heartbeat CPU 0 instructions: 110000003 cycles: 138163705 heartbeat IPC: 0.844 cumulative IPC: 0.5043 (Simulation time: 01 hr 39 min 35 sec)
Heartbeat CPU 3 instructions: 330000001 cycles: 138679101 heartbeat IPC: 2.171 cumulative IPC: 2.12 (Simulation time: 01 hr 40 min 06 sec)
Heartbeat CPU 1 instructions: 190000002 cycles: 142522554 heartbeat IPC: 2.097 cumulative IPC: 0.9279 (Simulation time: 01 hr 43 min 41 sec)
Heartbeat CPU 2 instructions: 210000000 cycles: 143247271 heartbeat IPC: 1.42 cumulative IPC: 1.106 (Simulation time: 01 hr 44 min 24 sec)
Heartbeat CPU 3 instructions: 340000000 cycles: 144856190 heartbeat IPC: 1.619 cumulative IPC: 2.095 (Simulation time: 01 hr 45 min 39 sec)
Heartbeat CPU 3 instructions: 350000002 cycles: 150437622 heartbeat IPC: 1.792 cumulative IPC: 2.082 (Simulation time: 01 hr 50 min 18 sec)
Heartbeat CPU 0 instructions: 120000001 cycles: 151000337 heartbeat IPC: 0.779 cumulative IPC: 0.5311 (Simulation time: 01 hr 50 min 46 sec)
Heartbeat CPU 2 instructions: 220000001 cycles: 151318807 heartbeat IPC: 1.239 cumulative IPC: 1.114 (Simulation time: 01 hr 51 min 02 sec)
Heartbeat CPU 1 instructions: 200000004 cycles: 153633429 heartbeat IPC: 0.9 cumulative IPC: 0.9256 (Simulation time: 01 hr 52 min 35 sec)
Simulation finished CPU 2 instructions: 150000002 cycles: 134893039 cumulative IPC: 1.112 (Simulation time: 01 hr 52 min 53 sec)
Heartbeat CPU 3 instructions: 360000003 cycles: 155934994 heartbeat IPC: 1.819 cumulative IPC: 2.072 (Simulation time: 01 hr 53 min 59 sec)
Heartbeat CPU 3 instructions: 370000000 cycles: 161367289 heartbeat IPC: 1.841 cumulative IPC: 2.063 (Simulation time: 01 hr 56 min 59 sec)
Heartbeat CPU 2 instructions: 230000000 cycles: 164474147 heartbeat IPC: 0.7601 cumulative IPC: 1.082 (Simulation time: 01 hr 58 min 33 sec)
Heartbeat CPU 3 instructions: 380000002 cycles: 167004076 heartbeat IPC: 1.774 cumulative IPC: 2.052 (Simulation time: 01 hr 59 min 51 sec)
Heartbeat CPU 0 instructions: 130000004 cycles: 174911182 heartbeat IPC: 0.4182 cumulative IPC: 0.5138 (Simulation time: 02 hr 03 min 44 sec)
Heartbeat CPU 2 instructions: 240000004 cycles: 205143271 heartbeat IPC: 0.2459 cumulative IPC: 0.8992 (Simulation time: 02 hr 17 min 53 sec)
Heartbeat CPU 3 instructions: 390000001 cycles: 208194514 heartbeat IPC: 0.2428 cumulative IPC: 1.658 (Simulation time: 02 hr 19 min 45 sec)
Heartbeat CPU 0 instructions: 140000001 cycles: 218344938 heartbeat IPC: 0.2302 cumulative IPC: 0.4519 (Simulation time: 02 hr 25 min 30 sec)
Heartbeat CPU 3 instructions: 400000003 cycles: 218406820 heartbeat IPC: 0.9792 cumulative IPC: 1.623 (Simulation time: 02 hr 25 min 33 sec)
Heartbeat CPU 1 instructions: 210000003 cycles: 222622368 heartbeat IPC: 0.145 cumulative IPC: 0.6608 (Simulation time: 02 hr 28 min 18 sec)
Heartbeat CPU 2 instructions: 250000000 cycles: 225562814 heartbeat IPC: 0.4897 cumulative IPC: 0.8587 (Simulation time: 02 hr 30 min 37 sec)
Heartbeat CPU 3 instructions: 410000000 cycles: 226299280 heartbeat IPC: 1.267 cumulative IPC: 1.609 (Simulation time: 02 hr 31 min 15 sec)
Heartbeat CPU 1 instructions: 220000001 cycles: 228671760 heartbeat IPC: 1.653 cumulative IPC: 0.6895 (Simulation time: 02 hr 33 min 22 sec)
Simulation finished CPU 1 instructions: 150000003 cycles: 211572063 cumulative IPC: 0.709 (Simulation time: 02 hr 35 min 12 sec)
Heartbeat CPU 1 instructions: 230000001 cycles: 232538294 heartbeat IPC: 2.586 cumulative IPC: 0.7239 (Simulation time: 02 hr 36 min 43 sec)
Heartbeat CPU 3 instructions: 420000001 cycles: 233245208 heartbeat IPC: 1.44 cumulative IPC: 1.604 (Simulation time: 02 hr 37 min 21 sec)
Heartbeat CPU 2 instructions: 260000001 cycles: 234165733 heartbeat IPC: 1.162 cumulative IPC: 0.8709 (Simulation time: 02 hr 38 min 10 sec)
Heartbeat CPU 1 instructions: 240000000 cycles: 236298723 heartbeat IPC: 2.659 cumulative IPC: 0.7574 (Simulation time: 02 hr 40 min 10 sec)
Heartbeat CPU 0 instructions: 150000004 cycles: 237466791 heartbeat IPC: 0.523 cumulative IPC: 0.4581 (Simulation time: 02 hr 41 min 15 sec)
Heartbeat CPU 3 instructions: 430000004 cycles: 238925195 heartbeat IPC: 1.761 cumulative IPC: 1.608 (Simulation time: 02 hr 42 min 40 sec)
Heartbeat CPU 2 instructions: 270000001 cycles: 239606000 heartbeat IPC: 1.838 cumulative IPC: 0.8947 (Simulation time: 02 hr 43 min 16 sec)
Heartbeat CPU 1 instructions: 250000004 cycles: 241104421 heartbeat IPC: 2.081 cumulative IPC: 0.7861 (Simulation time: 02 hr 44 min 34 sec)
Heartbeat CPU 3 instructions: 440000004 cycles: 245435838 heartbeat IPC: 1.536 cumulative IPC: 1.606 (Simulation time: 02 hr 48 min 15 sec)
Heartbeat CPU 1 instructions: 260000004 cycles: 247613635 heartbeat IPC: 1.536 cumulative IPC: 0.8074 (Simulation time: 02 hr 50 min 06 sec)
Heartbeat CPU 2 instructions: 280000003 cycles: 247877454 heartbeat IPC: 1.209 cumulative IPC: 0.9061 (Simulation time: 02 hr 50 min 21 sec)
Heartbeat CPU 3 instructions: 450000000 cycles: 252098987 heartbeat IPC: 1.501 cumulative IPC: 1.603 (Simulation time: 02 hr 53 min 59 sec)
Heartbeat CPU 1 instructions: 270000000 cycles: 253486257 heartbeat IPC: 1.703 cumulative IPC: 0.8299 (Simulation time: 02 hr 55 min 10 sec)
Heartbeat CPU 0 instructions: 160000004 cycles: 253879573 heartbeat IPC: 0.6093 cumulative IPC: 0.4687 (Simulation time: 02 hr 55 min 33 sec)
Heartbeat CPU 2 instructions: 290000000 cycles: 256708506 heartbeat IPC: 1.132 cumulative IPC: 0.9145 (Simulation time: 02 hr 57 min 45 sec)
Heartbeat CPU 3 instructions: 460000004 cycles: 260236185 heartbeat IPC: 1.229 cumulative IPC: 1.59 (Simulation time: 03 hr 00 min 31 sec)
Heartbeat CPU 1 instructions: 280000001 cycles: 260561336 heartbeat IPC: 1.413 cumulative IPC: 0.847 (Simulation time: 03 hr 00 min 47 sec)
Heartbeat CPU 3 instructions: 470000002 cycles: 266675679 heartbeat IPC: 1.553 cumulative IPC: 1.589 (Simulation time: 03 hr 05 min 37 sec)
Heartbeat CPU 2 instructions: 300000000 cycles: 266824940 heartbeat IPC: 0.9885 cumulative IPC: 0.9175 (Simulation time: 03 hr 05 min 45 sec)
Heartbeat CPU 1 instructions: 290000003 cycles: 267655727 heartbeat IPC: 1.41 cumulative IPC: 0.863 (Simulation time: 03 hr 06 min 31 sec)
Heartbeat CPU 0 instructions: 170000000 cycles: 273267440 heartbeat IPC: 0.5158 cumulative IPC: 0.4723 (Simulation time: 03 hr 10 min 56 sec)
Heartbeat CPU 3 instructions: 480000000 cycles: 273387658 heartbeat IPC: 1.49 cumulative IPC: 1.587 (Simulation time: 03 hr 11 min 00 sec)
Heartbeat CPU 2 instructions: 310000002 cycles: 274298426 heartbeat IPC: 1.338 cumulative IPC: 0.9299 (Simulation time: 03 hr 11 min 41 sec)
Heartbeat CPU 1 instructions: 300000001 cycles: 278535510 heartbeat IPC: 0.9191 cumulative IPC: 0.8654 (Simulation time: 03 hr 14 min 21 sec)
Heartbeat CPU 2 instructions: 320000003 cycles: 281644243 heartbeat IPC: 1.361 cumulative IPC: 0.9419 (Simulation time: 03 hr 16 min 24 sec)
Heartbeat CPU 3 instructions: 490000002 cycles: 283748542 heartbeat IPC: 0.9652 cumulative IPC: 1.562 (Simulation time: 03 hr 17 min 58 sec)
Heartbeat CPU 2 instructions: 330000002 cycles: 290520112 heartbeat IPC: 1.127 cumulative IPC: 0.948 (Simulation time: 03 hr 22 min 24 sec)
Heartbeat CPU 3 instructions: 500000000 cycles: 292635827 heartbeat IPC: 1.125 cumulative IPC: 1.548 (Simulation time: 03 hr 23 min 49 sec)
Heartbeat CPU 0 instructions: 180000001 cycles: 294834993 heartbeat IPC: 0.4637 cumulative IPC: 0.4716 (Simulation time: 03 hr 25 min 13 sec)
Heartbeat CPU 3 instructions: 510000002 cycles: 304402066 heartbeat IPC: 0.8499 cumulative IPC: 1.519 (Simulation time: 03 hr 30 min 23 sec)
Heartbeat CPU 2 instructions: 340000000 cycles: 305982032 heartbeat IPC: 0.6468 cumulative IPC: 0.9317 (Simulation time: 03 hr 31 min 20 sec)
Heartbeat CPU 3 instructions: 520000000 cycles: 315147254 heartbeat IPC: 0.9306 cumulative IPC: 1.498 (Simulation time: 03 hr 36 min 46 sec)
Heartbeat CPU 2 instructions: 350000000 cycles: 320147959 heartbeat IPC: 0.7059 cumulative IPC: 0.9211 (Simulation time: 03 hr 39 min 44 sec)
Heartbeat CPU 3 instructions: 530000003 cycles: 325238964 heartbeat IPC: 0.9909 cumulative IPC: 1.481 (Simulation time: 03 hr 42 min 47 sec)
Heartbeat CPU 0 instructions: 190000004 cycles: 332538260 heartbeat IPC: 0.2652 cumulative IPC: 0.4468 (Simulation time: 03 hr 46 min 58 sec)
Heartbeat CPU 3 instructions: 540000000 cycles: 334954207 heartbeat IPC: 1.029 cumulative IPC: 1.467 (Simulation time: 03 hr 48 min 05 sec)
Heartbeat CPU 3 instructions: 550000002 cycles: 345067571 heartbeat IPC: 0.9888 cumulative IPC: 1.452 (Simulation time: 03 hr 53 min 47 sec)
Heartbeat CPU 2 instructions: 360000002 cycles: 350290295 heartbeat IPC: 0.3318 cumulative IPC: 0.8675 (Simulation time: 03 hr 56 min 55 sec)
Heartbeat CPU 1 instructions: 310000000 cycles: 354055464 heartbeat IPC: 0.1324 cumulative IPC: 0.7001 (Simulation time: 03 hr 59 min 18 sec)
Heartbeat CPU 3 instructions: 560000002 cycles: 354468402 heartbeat IPC: 1.064 cumulative IPC: 1.442 (Simulation time: 03 hr 59 min 36 sec)
Heartbeat CPU 1 instructions: 320000004 cycles: 362054247 heartbeat IPC: 1.25 cumulative IPC: 0.7129 (Simulation time: 04 hr 05 min 04 sec)
Heartbeat CPU 0 instructions: 200000002 cycles: 362920617 heartbeat IPC: 0.3291 cumulative IPC: 0.4364 (Simulation time: 04 hr 05 min 37 sec)
Simulation finished CPU 0 instructions: 150000003 cycles: 343723624 cumulative IPC: 0.4364 (Simulation time: 04 hr 05 min 37 sec)
Simulation complete CPU 0 instructions: 150000003 cycles: 343723624 cumulative IPC: 0.4364 (Simulation time: 04 hr 05 min 37 sec)
Simulation complete CPU 1 instructions: 246383498 cycles: 343723624 cumulative IPC: 0.7168 (Simulation time: 04 hr 05 min 37 sec)
Simulation complete CPU 2 instructions: 295368374 cycles: 343723624 cumulative IPC: 0.8593 (Simulation time: 04 hr 05 min 37 sec)
Simulation complete CPU 3 instructions: 493132642 cycles: 343723624 cumulative IPC: 1.435 (Simulation time: 04 hr 05 min 37 sec)

ChampSim completed all CPUs

=== Simulation ===
CPU 0 runs /home/das/dpc3_traces/607.cactuBSSN_s-2421B.champsimtrace.xzCPU 1 runs /home/das/dpc3_traces/627.cam4_s-573B.champsimtrace.xzCPU 2 runs /home/das/dpc3_traces/628.pop2_s-17B.champsimtrace.xzCPU 3 runs /home/das/dpc3_traces/621.wrf_s-575B.champsimtrace.xz
Total Simulation Statistics (not including warmup)

CPU 0 cumulative IPC: 0.4364 instructions: 150000003 cycles: 343723624
CPU 0 Branch Prediction Accuracy: 97.89% MPKI: 0.03077 Average ROB Occupancy at Mispredict: 116.2
Branch type MPKI
BRANCH_DIRECT_JUMP: 0.0002
BRANCH_INDIRECT: 0.000567
BRANCH_CONDITIONAL: 0.0181
BRANCH_DIRECT_CALL: 0.00413
BRANCH_INDIRECT_CALL: 2e-05
BRANCH_RETURN: 0.00774


CPU 1 cumulative IPC: 0.7168 instructions: 246383498 cycles: 343723624
CPU 1 Branch Prediction Accuracy: 94.78% MPKI: 7.164 Average ROB Occupancy at Mispredict: 63.74
Branch type MPKI
BRANCH_DIRECT_JUMP: 0.00673
BRANCH_INDIRECT: 0.0021
BRANCH_CONDITIONAL: 6.54
BRANCH_DIRECT_CALL: 0.0233
BRANCH_INDIRECT_CALL: 0
BRANCH_RETURN: 0.588


CPU 2 cumulative IPC: 0.8593 instructions: 295368374 cycles: 343723624
CPU 2 Branch Prediction Accuracy: 97.64% MPKI: 3.914 Average ROB Occupancy at Mispredict: 95.79
Branch type MPKI
BRANCH_DIRECT_JUMP: 0.0251
BRANCH_INDIRECT: 0.000565
BRANCH_CONDITIONAL: 3.83
BRANCH_DIRECT_CALL: 0.000877
BRANCH_INDIRECT_CALL: 0
BRANCH_RETURN: 0.0598


CPU 3 cumulative IPC: 1.435 instructions: 493132642 cycles: 343723624
CPU 3 Branch Prediction Accuracy: 95.5% MPKI: 6.132 Average ROB Occupancy at Mispredict: 91.36
Branch type MPKI
BRANCH_DIRECT_JUMP: 0.000434
BRANCH_INDIRECT: 1.22e-05
BRANCH_CONDITIONAL: 5.88
BRANCH_DIRECT_CALL: 0.00238
BRANCH_INDIRECT_CALL: 0
BRANCH_RETURN: 0.254

LLC TOTAL        ACCESS:    1692746 HIT:     529626 MISS:    1163120
LLC LOAD         ACCESS:    1520390 HIT:     372741 MISS:    1147649
LLC RFO          ACCESS:       3161 HIT:       2053 MISS:       1108
LLC PREFETCH     ACCESS:        102 HIT:          0 MISS:        102
LLC WRITE        ACCESS:     146241 HIT:     146174 MISS:         67
LLC TRANSLATION  ACCESS:      22852 HIT:       8658 MISS:      14194
LLC PREFETCH REQUESTED:          0 ISSUED:          0 USEFUL:          0 USELESS:          0
LLC AVERAGE MISS LATENCY: 3703 cycles
LLC TOTAL        ACCESS:    3169216 HIT:    1556671 MISS:    1612545
LLC LOAD         ACCESS:     152768 HIT:      34508 MISS:     118260
LLC RFO          ACCESS:    1454306 HIT:      30262 MISS:    1424044
LLC PREFETCH     ACCESS:      80122 HIT:      26480 MISS:      53642
LLC WRITE        ACCESS:    1477308 HIT:    1464950 MISS:      12358
LLC TRANSLATION  ACCESS:       4712 HIT:        471 MISS:       4241
LLC PREFETCH REQUESTED:          0 ISSUED:          0 USEFUL:          0 USELESS:          0
LLC AVERAGE MISS LATENCY: 3703 cycles
LLC TOTAL        ACCESS:    2899934 HIT:    1804138 MISS:    1095796
LLC LOAD         ACCESS:     688761 HIT:     466280 MISS:     222481
LLC RFO          ACCESS:     642069 HIT:     201421 MISS:     440648
LLC PREFETCH     ACCESS:     672271 HIT:     252424 MISS:     419847
LLC WRITE        ACCESS:     889678 HIT:     882014 MISS:       7664
LLC TRANSLATION  ACCESS:       7155 HIT:       1999 MISS:       5156
LLC PREFETCH REQUESTED:          0 ISSUED:          0 USEFUL:          0 USELESS:          0
LLC AVERAGE MISS LATENCY: 3703 cycles
LLC TOTAL        ACCESS:     932290 HIT:     488109 MISS:     444181
LLC LOAD         ACCESS:     147651 HIT:      52258 MISS:      95393
LLC RFO          ACCESS:     303431 HIT:      96292 MISS:     207139
LLC PREFETCH     ACCESS:     142270 HIT:      23618 MISS:     118652
LLC WRITE        ACCESS:     336483 HIT:     314790 MISS:      21693
LLC TRANSLATION  ACCESS:       2455 HIT:       1151 MISS:       1304
LLC PREFETCH REQUESTED:          0 ISSUED:          0 USEFUL:          0 USELESS:          0
LLC AVERAGE MISS LATENCY: 3703 cycles
cpu0_DTLB TOTAL        ACCESS:   31578239 HIT:   18438469 MISS:   13139770
cpu0_DTLB LOAD         ACCESS:   31578239 HIT:   18438469 MISS:   13139770
cpu0_DTLB RFO          ACCESS:          0 HIT:          0 MISS:          0
cpu0_DTLB PREFETCH     ACCESS:          0 HIT:          0 MISS:          0
cpu0_DTLB WRITE        ACCESS:          0 HIT:          0 MISS:          0
cpu0_DTLB TRANSLATION  ACCESS:          0 HIT:          0 MISS:          0
cpu0_DTLB PREFETCH REQUESTED:          0 ISSUED:          0 USEFUL:          0 USELESS:          0
cpu0_DTLB AVERAGE MISS LATENCY: 9.888 cycles
cpu0_DTLB TOTAL        ACCESS:          0 HIT:          0 MISS:          0
cpu0_DTLB LOAD         ACCESS:          0 HIT:          0 MISS:          0
cpu0_DTLB RFO          ACCESS:          0 HIT:          0 MISS:          0
cpu0_DTLB PREFETCH     ACCESS:          0 HIT:          0 MISS:          0
cpu0_DTLB WRITE        ACCESS:          0 HIT:          0 MISS:          0
cpu0_DTLB TRANSLATION  ACCESS:          0 HIT:          0 MISS:          0
cpu0_DTLB PREFETCH REQUESTED:          0 ISSUED:          0 USEFUL:          0 USELESS:          0
cpu0_DTLB AVERAGE MISS LATENCY: 9.888 cycles
cpu0_DTLB TOTAL        ACCESS:          0 HIT:          0 MISS:          0
cpu0_DTLB LOAD         ACCESS:          0 HIT:          0 MISS:          0
cpu0_DTLB RFO          ACCESS:          0 HIT:          0 MISS:          0
cpu0_DTLB PREFETCH     ACCESS:          0 HIT:          0 MISS:          0
cpu0_DTLB WRITE        ACCESS:          0 HIT:          0 MISS:          0
cpu0_DTLB TRANSLATION  ACCESS:          0 HIT:          0 MISS:          0
cpu0_DTLB PREFETCH REQUESTED:          0 ISSUED:          0 USEFUL:          0 USELESS:          0
cpu0_DTLB AVERAGE MISS LATENCY: 9.888 cycles
cpu0_DTLB TOTAL        ACCESS:          0 HIT:          0 MISS:          0
cpu0_DTLB LOAD         ACCESS:          0 HIT:          0 MISS:          0
cpu0_DTLB RFO          ACCESS:          0 HIT:          0 MISS:          0
cpu0_DTLB PREFETCH     ACCESS:          0 HIT:          0 MISS:          0
cpu0_DTLB WRITE        ACCESS:          0 HIT:          0 MISS:          0
cpu0_DTLB TRANSLATION  ACCESS:          0 HIT:          0 MISS:          0
cpu0_DTLB PREFETCH REQUESTED:          0 ISSUED:          0 USEFUL:          0 USELESS:          0
cpu0_DTLB AVERAGE MISS LATENCY: 9.888 cycles
cpu0_ITLB TOTAL        ACCESS:   19802991 HIT:   19802903 MISS:         88
cpu0_ITLB LOAD         ACCESS:   19802991 HIT:   19802903 MISS:         88
cpu0_ITLB RFO          ACCESS:          0 HIT:          0 MISS:          0
cpu0_ITLB PREFETCH     ACCESS:          0 HIT:          0 MISS:          0
cpu0_ITLB WRITE        ACCESS:          0 HIT:          0 MISS:          0
cpu0_ITLB TRANSLATION  ACCESS:          0 HIT:          0 MISS:          0
cpu0_ITLB PREFETCH REQUESTED:          0 ISSUED:          0 USEFUL:          0 USELESS:          0
cpu0_ITLB AVERAGE MISS LATENCY: 245.2 cycles
cpu0_ITLB TOTAL        ACCESS:          0 HIT:          0 MISS:          0
cpu0_ITLB LOAD         ACCESS:          0 HIT:          0 MISS:          0
cpu0_ITLB RFO          ACCESS:          0 HIT:          0 MISS:          0
cpu0_ITLB PREFETCH     ACCESS:          0 HIT:          0 MISS:          0
cpu0_ITLB WRITE        ACCESS:          0 HIT:          0 MISS:          0
cpu0_ITLB TRANSLATION  ACCESS:          0 HIT:          0 MISS:          0
cpu0_ITLB PREFETCH REQUESTED:          0 ISSUED:          0 USEFUL:          0 USELESS:          0
cpu0_ITLB AVERAGE MISS LATENCY: 245.2 cycles
cpu0_ITLB TOTAL        ACCESS:          0 HIT:          0 MISS:          0
cpu0_ITLB LOAD         ACCESS:          0 HIT:          0 MISS:          0
cpu0_ITLB RFO          ACCESS:          0 HIT:          0 MISS:          0
cpu0_ITLB PREFETCH     ACCESS:          0 HIT:          0 MISS:          0
cpu0_ITLB WRITE        ACCESS:          0 HIT:          0 MISS:          0
cpu0_ITLB TRANSLATION  ACCESS:          0 HIT:          0 MISS:          0
cpu0_ITLB PREFETCH REQUESTED:          0 ISSUED:          0 USEFUL:          0 USELESS:          0
cpu0_ITLB AVERAGE MISS LATENCY: 245.2 cycles
cpu0_ITLB TOTAL        ACCESS:          0 HIT:          0 MISS:          0
cpu0_ITLB LOAD         ACCESS:          0 HIT:          0 MISS:          0
cpu0_ITLB RFO          ACCESS:          0 HIT:          0 MISS:          0
cpu0_ITLB PREFETCH     ACCESS:          0 HIT:          0 MISS:          0
cpu0_ITLB WRITE        ACCESS:          0 HIT:          0 MISS:          0
cpu0_ITLB TRANSLATION  ACCESS:          0 HIT:          0 MISS:          0
cpu0_ITLB PREFETCH REQUESTED:          0 ISSUED:          0 USEFUL:          0 USELESS:          0
cpu0_ITLB AVERAGE MISS LATENCY: 245.2 cycles
cpu0_L1D TOTAL        ACCESS:   39239592 HIT:   21888088 MISS:   17351504
cpu0_L1D LOAD         ACCESS:   22139976 HIT:    5730162 MISS:   16409814
cpu0_L1D RFO          ACCESS:          0 HIT:          0 MISS:          0
cpu0_L1D PREFETCH     ACCESS:       1646 HIT:       1313 MISS:        333
cpu0_L1D WRITE        ACCESS:   17069403 HIT:   16156313 MISS:     913090
cpu0_L1D TRANSLATION  ACCESS:      28567 HIT:        300 MISS:      28267
cpu0_L1D PREFETCH REQUESTED:       1646 ISSUED:       1646 USEFUL:         10 USELESS:         14
cpu0_L1D AVERAGE MISS LATENCY: 232 cycles
cpu0_L1D TOTAL        ACCESS:          0 HIT:          0 MISS:          0
cpu0_L1D LOAD         ACCESS:          0 HIT:          0 MISS:          0
cpu0_L1D RFO          ACCESS:          0 HIT:          0 MISS:          0
cpu0_L1D PREFETCH     ACCESS:          0 HIT:          0 MISS:          0
cpu0_L1D WRITE        ACCESS:          0 HIT:          0 MISS:          0
cpu0_L1D TRANSLATION  ACCESS:          0 HIT:          0 MISS:          0
cpu0_L1D PREFETCH REQUESTED:       1646 ISSUED:       1646 USEFUL:         10 USELESS:         14
cpu0_L1D AVERAGE MISS LATENCY: 232 cycles
cpu0_L1D TOTAL        ACCESS:          0 HIT:          0 MISS:          0
cpu0_L1D LOAD         ACCESS:          0 HIT:          0 MISS:          0
cpu0_L1D RFO          ACCESS:          0 HIT:          0 MISS:          0
cpu0_L1D PREFETCH     ACCESS:          0 HIT:          0 MISS:          0
cpu0_L1D WRITE        ACCESS:          0 HIT:          0 MISS:          0
cpu0_L1D TRANSLATION  ACCESS:          0 HIT:          0 MISS:          0
cpu0_L1D PREFETCH REQUESTED:       1646 ISSUED:       1646 USEFUL:         10 USELESS:         14
cpu0_L1D AVERAGE MISS LATENCY: 232 cycles
cpu0_L1D TOTAL        ACCESS:          0 HIT:          0 MISS:          0
cpu0_L1D LOAD         ACCESS:          0 HIT:          0 MISS:          0
cpu0_L1D RFO          ACCESS:          0 HIT:          0 MISS:          0
cpu0_L1D PREFETCH     ACCESS:          0 HIT:          0 MISS:          0
cpu0_L1D WRITE        ACCESS:          0 HIT:          0 MISS:          0
cpu0_L1D TRANSLATION  ACCESS:          0 HIT:          0 MISS:          0
cpu0_L1D PREFETCH REQUESTED:       1646 ISSUED:       1646 USEFUL:         10 USELESS:         14
cpu0_L1D AVERAGE MISS LATENCY: 232 cycles
cpu0_L1I TOTAL        ACCESS:   25728958 HIT:   25652405 MISS:      76553
cpu0_L1I LOAD         ACCESS:   25728958 HIT:   25652405 MISS:      76553
cpu0_L1I RFO          ACCESS:          0 HIT:          0 MISS:          0
cpu0_L1I PREFETCH     ACCESS:          0 HIT:          0 MISS:          0
cpu0_L1I WRITE        ACCESS:          0 HIT:          0 MISS:          0
cpu0_L1I TRANSLATION  ACCESS:          0 HIT:          0 MISS:          0
cpu0_L1I PREFETCH REQUESTED:          0 ISSUED:          0 USEFUL:          0 USELESS:          0
cpu0_L1I AVERAGE MISS LATENCY: 11.67 cycles
cpu0_L1I TOTAL        ACCESS:          0 HIT:          0 MISS:          0
cpu0_L1I LOAD         ACCESS:          0 HIT:          0 MISS:          0
cpu0_L1I RFO          ACCESS:          0 HIT:          0 MISS:          0
cpu0_L1I PREFETCH     ACCESS:          0 HIT:          0 MISS:          0
cpu0_L1I WRITE        ACCESS:          0 HIT:          0 MISS:          0
cpu0_L1I TRANSLATION  ACCESS:          0 HIT:          0 MISS:          0
cpu0_L1I PREFETCH REQUESTED:          0 ISSUED:          0 USEFUL:          0 USELESS:          0
cpu0_L1I AVERAGE MISS LATENCY: 11.67 cycles
cpu0_L1I TOTAL        ACCESS:          0 HIT:          0 MISS:          0
cpu0_L1I LOAD         ACCESS:          0 HIT:          0 MISS:          0
cpu0_L1I RFO          ACCESS:          0 HIT:          0 MISS:          0
cpu0_L1I PREFETCH     ACCESS:          0 HIT:          0 MISS:          0
cpu0_L1I WRITE        ACCESS:          0 HIT:          0 MISS:          0
cpu0_L1I TRANSLATION  ACCESS:          0 HIT:          0 MISS:          0
cpu0_L1I PREFETCH REQUESTED:          0 ISSUED:          0 USEFUL:          0 USELESS:          0
cpu0_L1I AVERAGE MISS LATENCY: 11.67 cycles
cpu0_L1I TOTAL        ACCESS:          0 HIT:          0 MISS:          0
cpu0_L1I LOAD         ACCESS:          0 HIT:          0 MISS:          0
cpu0_L1I RFO          ACCESS:          0 HIT:          0 MISS:          0
cpu0_L1I PREFETCH     ACCESS:          0 HIT:          0 MISS:          0
cpu0_L1I WRITE        ACCESS:          0 HIT:          0 MISS:          0
cpu0_L1I TRANSLATION  ACCESS:          0 HIT:          0 MISS:          0
cpu0_L1I PREFETCH REQUESTED:          0 ISSUED:          0 USEFUL:          0 USELESS:          0
cpu0_L1I AVERAGE MISS LATENCY: 11.67 cycles
cpu0_L2C TOTAL        ACCESS:   18282823 HIT:   16736247 MISS:    1546576
cpu0_L2C LOAD         ACCESS:   16281261 HIT:   14760854 MISS:    1520407
cpu0_L2C RFO          ACCESS:     679408 HIT:     676227 MISS:       3181
cpu0_L2C PREFETCH     ACCESS:        330 HIT:        196 MISS:        134
cpu0_L2C WRITE        ACCESS:    1293600 HIT:    1293598 MISS:          2
cpu0_L2C TRANSLATION  ACCESS:      28224 HIT:       5372 MISS:      22852
cpu0_L2C PREFETCH REQUESTED:          0 ISSUED:          0 USEFUL:          0 USELESS:          0
cpu0_L2C AVERAGE MISS LATENCY: 2490 cycles
cpu0_L2C TOTAL        ACCESS:          0 HIT:          0 MISS:          0
cpu0_L2C LOAD         ACCESS:          0 HIT:          0 MISS:          0
cpu0_L2C RFO          ACCESS:          0 HIT:          0 MISS:          0
cpu0_L2C PREFETCH     ACCESS:          0 HIT:          0 MISS:          0
cpu0_L2C WRITE        ACCESS:          0 HIT:          0 MISS:          0
cpu0_L2C TRANSLATION  ACCESS:          0 HIT:          0 MISS:          0
cpu0_L2C PREFETCH REQUESTED:          0 ISSUED:          0 USEFUL:          0 USELESS:          0
cpu0_L2C AVERAGE MISS LATENCY: 2490 cycles
cpu0_L2C TOTAL        ACCESS:          0 HIT:          0 MISS:          0
cpu0_L2C LOAD         ACCESS:          0 HIT:          0 MISS:          0
cpu0_L2C RFO          ACCESS:          0 HIT:          0 MISS:          0
cpu0_L2C PREFETCH     ACCESS:          0 HIT:          0 MISS:          0
cpu0_L2C WRITE        ACCESS:          0 HIT:          0 MISS:          0
cpu0_L2C TRANSLATION  ACCESS:          0 HIT:          0 MISS:          0
cpu0_L2C PREFETCH REQUESTED:          0 ISSUED:          0 USEFUL:          0 USELESS:          0
cpu0_L2C AVERAGE MISS LATENCY: 2490 cycles
cpu0_L2C TOTAL        ACCESS:          0 HIT:          0 MISS:          0
cpu0_L2C LOAD         ACCESS:          0 HIT:          0 MISS:          0
cpu0_L2C RFO          ACCESS:          0 HIT:          0 MISS:          0
cpu0_L2C PREFETCH     ACCESS:          0 HIT:          0 MISS:          0
cpu0_L2C WRITE        ACCESS:          0 HIT:          0 MISS:          0
cpu0_L2C TRANSLATION  ACCESS:          0 HIT:          0 MISS:          0
cpu0_L2C PREFETCH REQUESTED:          0 ISSUED:          0 USEFUL:          0 USELESS:          0
cpu0_L2C AVERAGE MISS LATENCY: 2490 cycles
cpu0_STLB TOTAL        ACCESS:   11239672 HIT:   11221327 MISS:      18345
cpu0_STLB LOAD         ACCESS:   11239672 HIT:   11221327 MISS:      18345
cpu0_STLB RFO          ACCESS:          0 HIT:          0 MISS:          0
cpu0_STLB PREFETCH     ACCESS:          0 HIT:          0 MISS:          0
cpu0_STLB WRITE        ACCESS:          0 HIT:          0 MISS:          0
cpu0_STLB TRANSLATION  ACCESS:          0 HIT:          0 MISS:          0
cpu0_STLB PREFETCH REQUESTED:          0 ISSUED:          0 USEFUL:          0 USELESS:          0
cpu0_STLB AVERAGE MISS LATENCY: 2777 cycles
cpu0_STLB TOTAL        ACCESS:          0 HIT:          0 MISS:          0
cpu0_STLB LOAD         ACCESS:          0 HIT:          0 MISS:          0
cpu0_STLB RFO          ACCESS:          0 HIT:          0 MISS:          0
cpu0_STLB PREFETCH     ACCESS:          0 HIT:          0 MISS:          0
cpu0_STLB WRITE        ACCESS:          0 HIT:          0 MISS:          0
cpu0_STLB TRANSLATION  ACCESS:          0 HIT:          0 MISS:          0
cpu0_STLB PREFETCH REQUESTED:          0 ISSUED:          0 USEFUL:          0 USELESS:          0
cpu0_STLB AVERAGE MISS LATENCY: 2777 cycles
cpu0_STLB TOTAL        ACCESS:          0 HIT:          0 MISS:          0
cpu0_STLB LOAD         ACCESS:          0 HIT:          0 MISS:          0
cpu0_STLB RFO          ACCESS:          0 HIT:          0 MISS:          0
cpu0_STLB PREFETCH     ACCESS:          0 HIT:          0 MISS:          0
cpu0_STLB WRITE        ACCESS:          0 HIT:          0 MISS:          0
cpu0_STLB TRANSLATION  ACCESS:          0 HIT:          0 MISS:          0
cpu0_STLB PREFETCH REQUESTED:          0 ISSUED:          0 USEFUL:          0 USELESS:          0
cpu0_STLB AVERAGE MISS LATENCY: 2777 cycles
cpu0_STLB TOTAL        ACCESS:          0 HIT:          0 MISS:          0
cpu0_STLB LOAD         ACCESS:          0 HIT:          0 MISS:          0
cpu0_STLB RFO          ACCESS:          0 HIT:          0 MISS:          0
cpu0_STLB PREFETCH     ACCESS:          0 HIT:          0 MISS:          0
cpu0_STLB WRITE        ACCESS:          0 HIT:          0 MISS:          0
cpu0_STLB TRANSLATION  ACCESS:          0 HIT:          0 MISS:          0
cpu0_STLB PREFETCH REQUESTED:          0 ISSUED:          0 USEFUL:          0 USELESS:          0
cpu0_STLB AVERAGE MISS LATENCY: 2777 cycles
cpu1_DTLB TOTAL        ACCESS:          0 HIT:          0 MISS:          0
cpu1_DTLB LOAD         ACCESS:          0 HIT:          0 MISS:          0
cpu1_DTLB RFO          ACCESS:          0 HIT:          0 MISS:          0
cpu1_DTLB PREFETCH     ACCESS:          0 HIT:          0 MISS:          0
cpu1_DTLB WRITE        ACCESS:          0 HIT:          0 MISS:          0
cpu1_DTLB TRANSLATION  ACCESS:          0 HIT:          0 MISS:          0
cpu1_DTLB PREFETCH REQUESTED:          0 ISSUED:          0 USEFUL:          0 USELESS:          0
cpu1_DTLB AVERAGE MISS LATENCY: 17.14 cycles
cpu1_DTLB TOTAL        ACCESS:   36410033 HIT:   35982529 MISS:     427504
cpu1_DTLB LOAD         ACCESS:   36410033 HIT:   35982529 MISS:     427504
cpu1_DTLB RFO          ACCESS:          0 HIT:          0 MISS:          0
cpu1_DTLB PREFETCH     ACCESS:          0 HIT:          0 MISS:          0
cpu1_DTLB WRITE        ACCESS:          0 HIT:          0 MISS:          0
cpu1_DTLB TRANSLATION  ACCESS:          0 HIT:          0 MISS:          0
cpu1_DTLB PREFETCH REQUESTED:          0 ISSUED:          0 USEFUL:          0 USELESS:          0
cpu1_DTLB AVERAGE MISS LATENCY: 17.14 cycles
cpu1_DTLB TOTAL        ACCESS:          0 HIT:          0 MISS:          0
cpu1_DTLB LOAD         ACCESS:          0 HIT:          0 MISS:          0
cpu1_DTLB RFO          ACCESS:          0 HIT:          0 MISS:          0
cpu1_DTLB PREFETCH     ACCESS:          0 HIT:          0 MISS:          0
cpu1_DTLB WRITE        ACCESS:          0 HIT:          0 MISS:          0
cpu1_DTLB TRANSLATION  ACCESS:          0 HIT:          0 MISS:          0
cpu1_DTLB PREFETCH REQUESTED:          0 ISSUED:          0 USEFUL:          0 USELESS:          0
cpu1_DTLB AVERAGE MISS LATENCY: 17.14 cycles
cpu1_DTLB TOTAL        ACCESS:          0 HIT:          0 MISS:          0
cpu1_DTLB LOAD         ACCESS:          0 HIT:          0 MISS:          0
cpu1_DTLB RFO          ACCESS:          0 HIT:          0 MISS:          0
cpu1_DTLB PREFETCH     ACCESS:          0 HIT:          0 MISS:          0
cpu1_DTLB WRITE        ACCESS:          0 HIT:          0 MISS:          0
cpu1_DTLB TRANSLATION  ACCESS:          0 HIT:          0 MISS:          0
cpu1_DTLB PREFETCH REQUESTED:          0 ISSUED:          0 USEFUL:          0 USELESS:          0
cpu1_DTLB AVERAGE MISS LATENCY: 17.14 cycles
cpu1_ITLB TOTAL        ACCESS:          0 HIT:          0 MISS:          0
cpu1_ITLB LOAD         ACCESS:          0 HIT:          0 MISS:          0
cpu1_ITLB RFO          ACCESS:          0 HIT:          0 MISS:          0
cpu1_ITLB PREFETCH     ACCESS:          0 HIT:          0 MISS:          0
cpu1_ITLB WRITE        ACCESS:          0 HIT:          0 MISS:          0
cpu1_ITLB TRANSLATION  ACCESS:          0 HIT:          0 MISS:          0
cpu1_ITLB PREFETCH REQUESTED:          0 ISSUED:          0 USEFUL:          0 USELESS:          0
cpu1_ITLB AVERAGE MISS LATENCY: 129.6 cycles
cpu1_ITLB TOTAL        ACCESS:    4726308 HIT:    4720312 MISS:       5996
cpu1_ITLB LOAD         ACCESS:    4726308 HIT:    4720312 MISS:       5996
cpu1_ITLB RFO          ACCESS:          0 HIT:          0 MISS:          0
cpu1_ITLB PREFETCH     ACCESS:          0 HIT:          0 MISS:          0
cpu1_ITLB WRITE        ACCESS:          0 HIT:          0 MISS:          0
cpu1_ITLB TRANSLATION  ACCESS:          0 HIT:          0 MISS:          0
cpu1_ITLB PREFETCH REQUESTED:          0 ISSUED:          0 USEFUL:          0 USELESS:          0
cpu1_ITLB AVERAGE MISS LATENCY: 129.6 cycles
cpu1_ITLB TOTAL        ACCESS:          0 HIT:          0 MISS:          0
cpu1_ITLB LOAD         ACCESS:          0 HIT:          0 MISS:          0
cpu1_ITLB RFO          ACCESS:          0 HIT:          0 MISS:          0
cpu1_ITLB PREFETCH     ACCESS:          0 HIT:          0 MISS:          0
cpu1_ITLB WRITE        ACCESS:          0 HIT:          0 MISS:          0
cpu1_ITLB TRANSLATION  ACCESS:          0 HIT:          0 MISS:          0
cpu1_ITLB PREFETCH REQUESTED:          0 ISSUED:          0 USEFUL:          0 USELESS:          0
cpu1_ITLB AVERAGE MISS LATENCY: 129.6 cycles
cpu1_ITLB TOTAL        ACCESS:          0 HIT:          0 MISS:          0
cpu1_ITLB LOAD         ACCESS:          0 HIT:          0 MISS:          0
cpu1_ITLB RFO          ACCESS:          0 HIT:          0 MISS:          0
cpu1_ITLB PREFETCH     ACCESS:          0 HIT:          0 MISS:          0
cpu1_ITLB WRITE        ACCESS:          0 HIT:          0 MISS:          0
cpu1_ITLB TRANSLATION  ACCESS:          0 HIT:          0 MISS:          0
cpu1_ITLB PREFETCH REQUESTED:          0 ISSUED:          0 USEFUL:          0 USELESS:          0
cpu1_ITLB AVERAGE MISS LATENCY: 129.6 cycles
cpu1_L1D TOTAL        ACCESS:          0 HIT:          0 MISS:          0
cpu1_L1D LOAD         ACCESS:          0 HIT:          0 MISS:          0
cpu1_L1D RFO          ACCESS:          0 HIT:          0 MISS:          0
cpu1_L1D PREFETCH     ACCESS:          0 HIT:          0 MISS:          0
cpu1_L1D WRITE        ACCESS:          0 HIT:          0 MISS:          0
cpu1_L1D TRANSLATION  ACCESS:          0 HIT:          0 MISS:          0
cpu1_L1D PREFETCH REQUESTED:   24921914 ISSUED:    4393054 USEFUL:     177847 USELESS:      66743
cpu1_L1D AVERAGE MISS LATENCY: 703.4 cycles
cpu1_L1D TOTAL        ACCESS:   52573849 HIT:   43531563 MISS:    9042286
cpu1_L1D LOAD         ACCESS:   23128230 HIT:   22220265 MISS:     907965
cpu1_L1D RFO          ACCESS:          0 HIT:          0 MISS:          0
cpu1_L1D PREFETCH     ACCESS:    4393054 HIT:    3360386 MISS:    1032668
cpu1_L1D WRITE        ACCESS:   25023280 HIT:   17928192 MISS:    7095088
cpu1_L1D TRANSLATION  ACCESS:      29285 HIT:      22720 MISS:       6565
cpu1_L1D PREFETCH REQUESTED:   24921914 ISSUED:    4393054 USEFUL:     177847 USELESS:      66743
cpu1_L1D AVERAGE MISS LATENCY: 703.4 cycles
cpu1_L1D TOTAL        ACCESS:          0 HIT:          0 MISS:          0
cpu1_L1D LOAD         ACCESS:          0 HIT:          0 MISS:          0
cpu1_L1D RFO          ACCESS:          0 HIT:          0 MISS:          0
cpu1_L1D PREFETCH     ACCESS:          0 HIT:          0 MISS:          0
cpu1_L1D WRITE        ACCESS:          0 HIT:          0 MISS:          0
cpu1_L1D TRANSLATION  ACCESS:          0 HIT:          0 MISS:          0
cpu1_L1D PREFETCH REQUESTED:   24921914 ISSUED:    4393054 USEFUL:     177847 USELESS:      66743
cpu1_L1D AVERAGE MISS LATENCY: 703.4 cycles
cpu1_L1D TOTAL        ACCESS:          0 HIT:          0 MISS:          0
cpu1_L1D LOAD         ACCESS:          0 HIT:          0 MISS:          0
cpu1_L1D RFO          ACCESS:          0 HIT:          0 MISS:          0
cpu1_L1D PREFETCH     ACCESS:          0 HIT:          0 MISS:          0
cpu1_L1D WRITE        ACCESS:          0 HIT:          0 MISS:          0
cpu1_L1D TRANSLATION  ACCESS:          0 HIT:          0 MISS:          0
cpu1_L1D PREFETCH REQUESTED:   24921914 ISSUED:    4393054 USEFUL:     177847 USELESS:      66743
cpu1_L1D AVERAGE MISS LATENCY: 703.4 cycles
cpu1_L1I TOTAL        ACCESS:          0 HIT:          0 MISS:          0
cpu1_L1I LOAD         ACCESS:          0 HIT:          0 MISS:          0
cpu1_L1I RFO          ACCESS:          0 HIT:          0 MISS:          0
cpu1_L1I PREFETCH     ACCESS:          0 HIT:          0 MISS:          0
cpu1_L1I WRITE        ACCESS:          0 HIT:          0 MISS:          0
cpu1_L1I TRANSLATION  ACCESS:          0 HIT:          0 MISS:          0
cpu1_L1I PREFETCH REQUESTED:          0 ISSUED:          0 USEFUL:          0 USELESS:          0
cpu1_L1I AVERAGE MISS LATENCY: 351.9 cycles
cpu1_L1I TOTAL        ACCESS:    6075165 HIT:    5934992 MISS:     140173
cpu1_L1I LOAD         ACCESS:    6075165 HIT:    5934992 MISS:     140173
cpu1_L1I RFO          ACCESS:          0 HIT:          0 MISS:          0
cpu1_L1I PREFETCH     ACCESS:          0 HIT:          0 MISS:          0
cpu1_L1I WRITE        ACCESS:          0 HIT:          0 MISS:          0
cpu1_L1I TRANSLATION  ACCESS:          0 HIT:          0 MISS:          0
cpu1_L1I PREFETCH REQUESTED:          0 ISSUED:          0 USEFUL:          0 USELESS:          0
cpu1_L1I AVERAGE MISS LATENCY: 351.9 cycles
cpu1_L1I TOTAL        ACCESS:          0 HIT:          0 MISS:          0
cpu1_L1I LOAD         ACCESS:          0 HIT:          0 MISS:          0
cpu1_L1I RFO          ACCESS:          0 HIT:          0 MISS:          0
cpu1_L1I PREFETCH     ACCESS:          0 HIT:          0 MISS:          0
cpu1_L1I WRITE        ACCESS:          0 HIT:          0 MISS:          0
cpu1_L1I TRANSLATION  ACCESS:          0 HIT:          0 MISS:          0
cpu1_L1I PREFETCH REQUESTED:          0 ISSUED:          0 USEFUL:          0 USELESS:          0
cpu1_L1I AVERAGE MISS LATENCY: 351.9 cycles
cpu1_L1I TOTAL        ACCESS:          0 HIT:          0 MISS:          0
cpu1_L1I LOAD         ACCESS:          0 HIT:          0 MISS:          0
cpu1_L1I RFO          ACCESS:          0 HIT:          0 MISS:          0
cpu1_L1I PREFETCH     ACCESS:          0 HIT:          0 MISS:          0
cpu1_L1I WRITE        ACCESS:          0 HIT:          0 MISS:          0
cpu1_L1I TRANSLATION  ACCESS:          0 HIT:          0 MISS:          0
cpu1_L1I PREFETCH REQUESTED:          0 ISSUED:          0 USEFUL:          0 USELESS:          0
cpu1_L1I AVERAGE MISS LATENCY: 351.9 cycles
cpu1_L2C TOTAL        ACCESS:          0 HIT:          0 MISS:          0
cpu1_L2C LOAD         ACCESS:          0 HIT:          0 MISS:          0
cpu1_L2C RFO          ACCESS:          0 HIT:          0 MISS:          0
cpu1_L2C PREFETCH     ACCESS:          0 HIT:          0 MISS:          0
cpu1_L2C WRITE        ACCESS:          0 HIT:          0 MISS:          0
cpu1_L2C TRANSLATION  ACCESS:          0 HIT:          0 MISS:          0
cpu1_L2C PREFETCH REQUESTED:          0 ISSUED:          0 USEFUL:          0 USELESS:          0
cpu1_L2C AVERAGE MISS LATENCY: 3656 cycles
cpu1_L2C TOTAL        ACCESS:    5476360 HIT:    3699033 MISS:    1777327
cpu1_L2C LOAD         ACCESS:     750891 HIT:     591312 MISS:     159579
cpu1_L2C RFO          ACCESS:    1800833 HIT:     346380 MISS:    1454453
cpu1_L2C PREFETCH     ACCESS:     997705 HIT:     839200 MISS:     158505
cpu1_L2C WRITE        ACCESS:    1920419 HIT:    1920341 MISS:         78
cpu1_L2C TRANSLATION  ACCESS:       6512 HIT:       1800 MISS:       4712
cpu1_L2C PREFETCH REQUESTED:          0 ISSUED:          0 USEFUL:          0 USELESS:          0
cpu1_L2C AVERAGE MISS LATENCY: 3656 cycles
cpu1_L2C TOTAL        ACCESS:          0 HIT:          0 MISS:          0
cpu1_L2C LOAD         ACCESS:          0 HIT:          0 MISS:          0
cpu1_L2C RFO          ACCESS:          0 HIT:          0 MISS:          0
cpu1_L2C PREFETCH     ACCESS:          0 HIT:          0 MISS:          0
cpu1_L2C WRITE        ACCESS:          0 HIT:          0 MISS:          0
cpu1_L2C TRANSLATION  ACCESS:          0 HIT:          0 MISS:          0
cpu1_L2C PREFETCH REQUESTED:          0 ISSUED:          0 USEFUL:          0 USELESS:          0
cpu1_L2C AVERAGE MISS LATENCY: 3656 cycles
cpu1_L2C TOTAL        ACCESS:          0 HIT:          0 MISS:          0
cpu1_L2C LOAD         ACCESS:          0 HIT:          0 MISS:          0
cpu1_L2C RFO          ACCESS:          0 HIT:          0 MISS:          0
cpu1_L2C PREFETCH     ACCESS:          0 HIT:          0 MISS:          0
cpu1_L2C WRITE        ACCESS:          0 HIT:          0 MISS:          0
cpu1_L2C TRANSLATION  ACCESS:          0 HIT:          0 MISS:          0
cpu1_L2C PREFETCH REQUESTED:          0 ISSUED:          0 USEFUL:          0 USELESS:          0
cpu1_L2C AVERAGE MISS LATENCY: 3656 cycles
cpu1_STLB TOTAL        ACCESS:          0 HIT:          0 MISS:          0
cpu1_STLB LOAD         ACCESS:          0 HIT:          0 MISS:          0
cpu1_STLB RFO          ACCESS:          0 HIT:          0 MISS:          0
cpu1_STLB PREFETCH     ACCESS:          0 HIT:          0 MISS:          0
cpu1_STLB WRITE        ACCESS:          0 HIT:          0 MISS:          0
cpu1_STLB TRANSLATION  ACCESS:          0 HIT:          0 MISS:          0
cpu1_STLB PREFETCH REQUESTED:          0 ISSUED:          0 USEFUL:          0 USELESS:          0
cpu1_STLB AVERAGE MISS LATENCY: 293.4 cycles
cpu1_STLB TOTAL        ACCESS:     164411 HIT:     135679 MISS:      28732
cpu1_STLB LOAD         ACCESS:     164411 HIT:     135679 MISS:      28732
cpu1_STLB RFO          ACCESS:          0 HIT:          0 MISS:          0
cpu1_STLB PREFETCH     ACCESS:          0 HIT:          0 MISS:          0
cpu1_STLB WRITE        ACCESS:          0 HIT:          0 MISS:          0
cpu1_STLB TRANSLATION  ACCESS:          0 HIT:          0 MISS:          0
cpu1_STLB PREFETCH REQUESTED:          0 ISSUED:          0 USEFUL:          0 USELESS:          0
cpu1_STLB AVERAGE MISS LATENCY: 293.4 cycles
cpu1_STLB TOTAL        ACCESS:          0 HIT:          0 MISS:          0
cpu1_STLB LOAD         ACCESS:          0 HIT:          0 MISS:          0
cpu1_STLB RFO          ACCESS:          0 HIT:          0 MISS:          0
cpu1_STLB PREFETCH     ACCESS:          0 HIT:          0 MISS:          0
cpu1_STLB WRITE        ACCESS:          0 HIT:          0 MISS:          0
cpu1_STLB TRANSLATION  ACCESS:          0 HIT:          0 MISS:          0
cpu1_STLB PREFETCH REQUESTED:          0 ISSUED:          0 USEFUL:          0 USELESS:          0
cpu1_STLB AVERAGE MISS LATENCY: 293.4 cycles
cpu1_STLB TOTAL        ACCESS:          0 HIT:          0 MISS:          0
cpu1_STLB LOAD         ACCESS:          0 HIT:          0 MISS:          0
cpu1_STLB RFO          ACCESS:          0 HIT:          0 MISS:          0
cpu1_STLB PREFETCH     ACCESS:          0 HIT:          0 MISS:          0
cpu1_STLB WRITE        ACCESS:          0 HIT:          0 MISS:          0
cpu1_STLB TRANSLATION  ACCESS:          0 HIT:          0 MISS:          0
cpu1_STLB PREFETCH REQUESTED:          0 ISSUED:          0 USEFUL:          0 USELESS:          0
cpu1_STLB AVERAGE MISS LATENCY: 293.4 cycles
cpu2_DTLB TOTAL        ACCESS:          0 HIT:          0 MISS:          0
cpu2_DTLB LOAD         ACCESS:          0 HIT:          0 MISS:          0
cpu2_DTLB RFO          ACCESS:          0 HIT:          0 MISS:          0
cpu2_DTLB PREFETCH     ACCESS:          0 HIT:          0 MISS:          0
cpu2_DTLB WRITE        ACCESS:          0 HIT:          0 MISS:          0
cpu2_DTLB TRANSLATION  ACCESS:          0 HIT:          0 MISS:          0
cpu2_DTLB PREFETCH REQUESTED:          0 ISSUED:          0 USEFUL:          0 USELESS:          0
cpu2_DTLB AVERAGE MISS LATENCY: 39.63 cycles
cpu2_DTLB TOTAL        ACCESS:          0 HIT:          0 MISS:          0
cpu2_DTLB LOAD         ACCESS:          0 HIT:          0 MISS:          0
cpu2_DTLB RFO          ACCESS:          0 HIT:          0 MISS:          0
cpu2_DTLB PREFETCH     ACCESS:          0 HIT:          0 MISS:          0
cpu2_DTLB WRITE        ACCESS:          0 HIT:          0 MISS:          0
cpu2_DTLB TRANSLATION  ACCESS:          0 HIT:          0 MISS:          0
cpu2_DTLB PREFETCH REQUESTED:          0 ISSUED:          0 USEFUL:          0 USELESS:          0
cpu2_DTLB AVERAGE MISS LATENCY: 39.63 cycles
cpu2_DTLB TOTAL        ACCESS:   39634487 HIT:   39304529 MISS:     329958
cpu2_DTLB LOAD         ACCESS:   39634487 HIT:   39304529 MISS:     329958
cpu2_DTLB RFO          ACCESS:          0 HIT:          0 MISS:          0
cpu2_DTLB PREFETCH     ACCESS:          0 HIT:          0 MISS:          0
cpu2_DTLB WRITE        ACCESS:          0 HIT:          0 MISS:          0
cpu2_DTLB TRANSLATION  ACCESS:          0 HIT:          0 MISS:          0
cpu2_DTLB PREFETCH REQUESTED:          0 ISSUED:          0 USEFUL:          0 USELESS:          0
cpu2_DTLB AVERAGE MISS LATENCY: 39.63 cycles
cpu2_DTLB TOTAL        ACCESS:          0 HIT:          0 MISS:          0
cpu2_DTLB LOAD         ACCESS:          0 HIT:          0 MISS:          0
cpu2_DTLB RFO          ACCESS:          0 HIT:          0 MISS:          0
cpu2_DTLB PREFETCH     ACCESS:          0 HIT:          0 MISS:          0
cpu2_DTLB WRITE        ACCESS:          0 HIT:          0 MISS:          0
cpu2_DTLB TRANSLATION  ACCESS:          0 HIT:          0 MISS:          0
cpu2_DTLB PREFETCH REQUESTED:          0 ISSUED:          0 USEFUL:          0 USELESS:          0
cpu2_DTLB AVERAGE MISS LATENCY: 39.63 cycles
cpu2_ITLB TOTAL        ACCESS:          0 HIT:          0 MISS:          0
cpu2_ITLB LOAD         ACCESS:          0 HIT:          0 MISS:          0
cpu2_ITLB RFO          ACCESS:          0 HIT:          0 MISS:          0
cpu2_ITLB PREFETCH     ACCESS:          0 HIT:          0 MISS:          0
cpu2_ITLB WRITE        ACCESS:          0 HIT:          0 MISS:          0
cpu2_ITLB TRANSLATION  ACCESS:          0 HIT:          0 MISS:          0
cpu2_ITLB PREFETCH REQUESTED:          0 ISSUED:          0 USEFUL:          0 USELESS:          0
cpu2_ITLB AVERAGE MISS LATENCY: 43.52 cycles
cpu2_ITLB TOTAL        ACCESS:          0 HIT:          0 MISS:          0
cpu2_ITLB LOAD         ACCESS:          0 HIT:          0 MISS:          0
cpu2_ITLB RFO          ACCESS:          0 HIT:          0 MISS:          0
cpu2_ITLB PREFETCH     ACCESS:          0 HIT:          0 MISS:          0
cpu2_ITLB WRITE        ACCESS:          0 HIT:          0 MISS:          0
cpu2_ITLB TRANSLATION  ACCESS:          0 HIT:          0 MISS:          0
cpu2_ITLB PREFETCH REQUESTED:          0 ISSUED:          0 USEFUL:          0 USELESS:          0
cpu2_ITLB AVERAGE MISS LATENCY: 43.52 cycles
cpu2_ITLB TOTAL        ACCESS:     537695 HIT:     527100 MISS:      10595
cpu2_ITLB LOAD         ACCESS:     537695 HIT:     527100 MISS:      10595
cpu2_ITLB RFO          ACCESS:          0 HIT:          0 MISS:          0
cpu2_ITLB PREFETCH     ACCESS:          0 HIT:          0 MISS:          0
cpu2_ITLB WRITE        ACCESS:          0 HIT:          0 MISS:          0
cpu2_ITLB TRANSLATION  ACCESS:          0 HIT:          0 MISS:          0
cpu2_ITLB PREFETCH REQUESTED:          0 ISSUED:          0 USEFUL:          0 USELESS:          0
cpu2_ITLB AVERAGE MISS LATENCY: 43.52 cycles
cpu2_ITLB TOTAL        ACCESS:          0 HIT:          0 MISS:          0
cpu2_ITLB LOAD         ACCESS:          0 HIT:          0 MISS:          0
cpu2_ITLB RFO          ACCESS:          0 HIT:          0 MISS:          0
cpu2_ITLB PREFETCH     ACCESS:          0 HIT:          0 MISS:          0
cpu2_ITLB WRITE        ACCESS:          0 HIT:          0 MISS:          0
cpu2_ITLB TRANSLATION  ACCESS:          0 HIT:          0 MISS:          0
cpu2_ITLB PREFETCH REQUESTED:          0 ISSUED:          0 USEFUL:          0 USELESS:          0
cpu2_ITLB AVERAGE MISS LATENCY: 43.52 cycles
cpu2_L1D TOTAL        ACCESS:          0 HIT:          0 MISS:          0
cpu2_L1D LOAD         ACCESS:          0 HIT:          0 MISS:          0
cpu2_L1D RFO          ACCESS:          0 HIT:          0 MISS:          0
cpu2_L1D PREFETCH     ACCESS:          0 HIT:          0 MISS:          0
cpu2_L1D WRITE        ACCESS:          0 HIT:          0 MISS:          0
cpu2_L1D TRANSLATION  ACCESS:          0 HIT:          0 MISS:          0
cpu2_L1D PREFETCH REQUESTED:  107336891 ISSUED:   10259197 USEFUL:     596414 USELESS:     269345
cpu2_L1D AVERAGE MISS LATENCY: 225.6 cycles
cpu2_L1D TOTAL        ACCESS:          0 HIT:          0 MISS:          0
cpu2_L1D LOAD         ACCESS:          0 HIT:          0 MISS:          0
cpu2_L1D RFO          ACCESS:          0 HIT:          0 MISS:          0
cpu2_L1D PREFETCH     ACCESS:          0 HIT:          0 MISS:          0
cpu2_L1D WRITE        ACCESS:          0 HIT:          0 MISS:          0
cpu2_L1D TRANSLATION  ACCESS:          0 HIT:          0 MISS:          0
cpu2_L1D PREFETCH REQUESTED:  107336891 ISSUED:   10259197 USEFUL:     596414 USELESS:     269345
cpu2_L1D AVERAGE MISS LATENCY: 225.6 cycles
cpu2_L1D TOTAL        ACCESS:   59033075 HIT:   46769702 MISS:   12263373
cpu2_L1D LOAD         ACCESS:   29736727 HIT:   26536068 MISS:    3200659
cpu2_L1D RFO          ACCESS:          0 HIT:          0 MISS:          0
cpu2_L1D PREFETCH     ACCESS:   10259228 HIT:    7140827 MISS:    3118401
cpu2_L1D WRITE        ACCESS:   19020997 HIT:   13088574 MISS:    5932423
cpu2_L1D TRANSLATION  ACCESS:      16123 HIT:       4233 MISS:      11890
cpu2_L1D PREFETCH REQUESTED:  107336891 ISSUED:   10259197 USEFUL:     596414 USELESS:     269345
cpu2_L1D AVERAGE MISS LATENCY: 225.6 cycles
cpu2_L1D TOTAL        ACCESS:          0 HIT:          0 MISS:          0
cpu2_L1D LOAD         ACCESS:          0 HIT:          0 MISS:          0
cpu2_L1D RFO          ACCESS:          0 HIT:          0 MISS:          0
cpu2_L1D PREFETCH     ACCESS:          0 HIT:          0 MISS:          0
cpu2_L1D WRITE        ACCESS:          0 HIT:          0 MISS:          0
cpu2_L1D TRANSLATION  ACCESS:          0 HIT:          0 MISS:          0
cpu2_L1D PREFETCH REQUESTED:  107336891 ISSUED:   10259197 USEFUL:     596414 USELESS:     269345
cpu2_L1D AVERAGE MISS LATENCY: 225.6 cycles
cpu2_L1I TOTAL        ACCESS:          0 HIT:          0 MISS:          0
cpu2_L1I LOAD         ACCESS:          0 HIT:          0 MISS:          0
cpu2_L1I RFO          ACCESS:          0 HIT:          0 MISS:          0
cpu2_L1I PREFETCH     ACCESS:          0 HIT:          0 MISS:          0
cpu2_L1I WRITE        ACCESS:          0 HIT:          0 MISS:          0
cpu2_L1I TRANSLATION  ACCESS:          0 HIT:          0 MISS:          0
cpu2_L1I PREFETCH REQUESTED:          0 ISSUED:          0 USEFUL:          0 USELESS:          0
cpu2_L1I AVERAGE MISS LATENCY: 130.4 cycles
cpu2_L1I TOTAL        ACCESS:          0 HIT:          0 MISS:          0
cpu2_L1I LOAD         ACCESS:          0 HIT:          0 MISS:          0
cpu2_L1I RFO          ACCESS:          0 HIT:          0 MISS:          0
cpu2_L1I PREFETCH     ACCESS:          0 HIT:          0 MISS:          0
cpu2_L1I WRITE        ACCESS:          0 HIT:          0 MISS:          0
cpu2_L1I TRANSLATION  ACCESS:          0 HIT:          0 MISS:          0
cpu2_L1I PREFETCH REQUESTED:          0 ISSUED:          0 USEFUL:          0 USELESS:          0
cpu2_L1I AVERAGE MISS LATENCY: 130.4 cycles
cpu2_L1I TOTAL        ACCESS:     660192 HIT:     478263 MISS:     181929
cpu2_L1I LOAD         ACCESS:     660192 HIT:     478263 MISS:     181929
cpu2_L1I RFO          ACCESS:          0 HIT:          0 MISS:          0
cpu2_L1I PREFETCH     ACCESS:          0 HIT:          0 MISS:          0
cpu2_L1I WRITE        ACCESS:          0 HIT:          0 MISS:          0
cpu2_L1I TRANSLATION  ACCESS:          0 HIT:          0 MISS:          0
cpu2_L1I PREFETCH REQUESTED:          0 ISSUED:          0 USEFUL:          0 USELESS:          0
cpu2_L1I AVERAGE MISS LATENCY: 130.4 cycles
cpu2_L1I TOTAL        ACCESS:          0 HIT:          0 MISS:          0
cpu2_L1I LOAD         ACCESS:          0 HIT:          0 MISS:          0
cpu2_L1I RFO          ACCESS:          0 HIT:          0 MISS:          0
cpu2_L1I PREFETCH     ACCESS:          0 HIT:          0 MISS:          0
cpu2_L1I WRITE        ACCESS:          0 HIT:          0 MISS:          0
cpu2_L1I TRANSLATION  ACCESS:          0 HIT:          0 MISS:          0
cpu2_L1I PREFETCH REQUESTED:          0 ISSUED:          0 USEFUL:          0 USELESS:          0
cpu2_L1I AVERAGE MISS LATENCY: 130.4 cycles
cpu2_L2C TOTAL        ACCESS:          0 HIT:          0 MISS:          0
cpu2_L2C LOAD         ACCESS:          0 HIT:          0 MISS:          0
cpu2_L2C RFO          ACCESS:          0 HIT:          0 MISS:          0
cpu2_L2C PREFETCH     ACCESS:          0 HIT:          0 MISS:          0
cpu2_L2C WRITE        ACCESS:          0 HIT:          0 MISS:          0
cpu2_L2C TRANSLATION  ACCESS:          0 HIT:          0 MISS:          0
cpu2_L2C PREFETCH REQUESTED:          0 ISSUED:          0 USEFUL:          0 USELESS:          0
cpu2_L2C AVERAGE MISS LATENCY: 1307 cycles
cpu2_L2C TOTAL        ACCESS:          0 HIT:          0 MISS:          0
cpu2_L2C LOAD         ACCESS:          0 HIT:          0 MISS:          0
cpu2_L2C RFO          ACCESS:          0 HIT:          0 MISS:          0
cpu2_L2C PREFETCH     ACCESS:          0 HIT:          0 MISS:          0
cpu2_L2C WRITE        ACCESS:          0 HIT:          0 MISS:          0
cpu2_L2C TRANSLATION  ACCESS:          0 HIT:          0 MISS:          0
cpu2_L2C PREFETCH REQUESTED:          0 ISSUED:          0 USEFUL:          0 USELESS:          0
cpu2_L2C AVERAGE MISS LATENCY: 1307 cycles
cpu2_L2C TOTAL        ACCESS:    8355581 HIT:    5632274 MISS:    2723307
cpu2_L2C LOAD         ACCESS:    2014682 HIT:    1291063 MISS:     723619
cpu2_L2C RFO          ACCESS:    1456979 HIT:     814896 MISS:     642083
cpu2_L2C PREFETCH     ACCESS:    2981680 HIT:    1632286 MISS:    1349394
cpu2_L2C WRITE        ACCESS:    1890524 HIT:    1889468 MISS:       1056
cpu2_L2C TRANSLATION  ACCESS:      11716 HIT:       4561 MISS:       7155
cpu2_L2C PREFETCH REQUESTED:          0 ISSUED:          0 USEFUL:          0 USELESS:          0
cpu2_L2C AVERAGE MISS LATENCY: 1307 cycles
cpu2_L2C TOTAL        ACCESS:          0 HIT:          0 MISS:          0
cpu2_L2C LOAD         ACCESS:          0 HIT:          0 MISS:          0
cpu2_L2C RFO          ACCESS:          0 HIT:          0 MISS:          0
cpu2_L2C PREFETCH     ACCESS:          0 HIT:          0 MISS:          0
cpu2_L2C WRITE        ACCESS:          0 HIT:          0 MISS:          0
cpu2_L2C TRANSLATION  ACCESS:          0 HIT:          0 MISS:          0
cpu2_L2C PREFETCH REQUESTED:          0 ISSUED:          0 USEFUL:          0 USELESS:          0
cpu2_L2C AVERAGE MISS LATENCY: 1307 cycles
cpu2_STLB TOTAL        ACCESS:          0 HIT:          0 MISS:          0
cpu2_STLB LOAD         ACCESS:          0 HIT:          0 MISS:          0
cpu2_STLB RFO          ACCESS:          0 HIT:          0 MISS:          0
cpu2_STLB PREFETCH     ACCESS:          0 HIT:          0 MISS:          0
cpu2_STLB WRITE        ACCESS:          0 HIT:          0 MISS:          0
cpu2_STLB TRANSLATION  ACCESS:          0 HIT:          0 MISS:          0
cpu2_STLB PREFETCH REQUESTED:          0 ISSUED:          0 USEFUL:          0 USELESS:          0
cpu2_STLB AVERAGE MISS LATENCY: 1155 cycles
cpu2_STLB TOTAL        ACCESS:          0 HIT:          0 MISS:          0
cpu2_STLB LOAD         ACCESS:          0 HIT:          0 MISS:          0
cpu2_STLB RFO          ACCESS:          0 HIT:          0 MISS:          0
cpu2_STLB PREFETCH     ACCESS:          0 HIT:          0 MISS:          0
cpu2_STLB WRITE        ACCESS:          0 HIT:          0 MISS:          0
cpu2_STLB TRANSLATION  ACCESS:          0 HIT:          0 MISS:          0
cpu2_STLB PREFETCH REQUESTED:          0 ISSUED:          0 USEFUL:          0 USELESS:          0
cpu2_STLB AVERAGE MISS LATENCY: 1155 cycles
cpu2_STLB TOTAL        ACCESS:     120819 HIT:     106653 MISS:      14166
cpu2_STLB LOAD         ACCESS:     120819 HIT:     106653 MISS:      14166
cpu2_STLB RFO          ACCESS:          0 HIT:          0 MISS:          0
cpu2_STLB PREFETCH     ACCESS:          0 HIT:          0 MISS:          0
cpu2_STLB WRITE        ACCESS:          0 HIT:          0 MISS:          0
cpu2_STLB TRANSLATION  ACCESS:          0 HIT:          0 MISS:          0
cpu2_STLB PREFETCH REQUESTED:          0 ISSUED:          0 USEFUL:          0 USELESS:          0
cpu2_STLB AVERAGE MISS LATENCY: 1155 cycles
cpu2_STLB TOTAL        ACCESS:          0 HIT:          0 MISS:          0
cpu2_STLB LOAD         ACCESS:          0 HIT:          0 MISS:          0
cpu2_STLB RFO          ACCESS:          0 HIT:          0 MISS:          0
cpu2_STLB PREFETCH     ACCESS:          0 HIT:          0 MISS:          0
cpu2_STLB WRITE        ACCESS:          0 HIT:          0 MISS:          0
cpu2_STLB TRANSLATION  ACCESS:          0 HIT:          0 MISS:          0
cpu2_STLB PREFETCH REQUESTED:          0 ISSUED:          0 USEFUL:          0 USELESS:          0
cpu2_STLB AVERAGE MISS LATENCY: 1155 cycles
cpu3_DTLB TOTAL        ACCESS:          0 HIT:          0 MISS:          0
cpu3_DTLB LOAD         ACCESS:          0 HIT:          0 MISS:          0
cpu3_DTLB RFO          ACCESS:          0 HIT:          0 MISS:          0
cpu3_DTLB PREFETCH     ACCESS:          0 HIT:          0 MISS:          0
cpu3_DTLB WRITE        ACCESS:          0 HIT:          0 MISS:          0
cpu3_DTLB TRANSLATION  ACCESS:          0 HIT:          0 MISS:          0
cpu3_DTLB PREFETCH REQUESTED:          0 ISSUED:          0 USEFUL:          0 USELESS:          0
cpu3_DTLB AVERAGE MISS LATENCY: 11.93 cycles
cpu3_DTLB TOTAL        ACCESS:          0 HIT:          0 MISS:          0
cpu3_DTLB LOAD         ACCESS:          0 HIT:          0 MISS:          0
cpu3_DTLB RFO          ACCESS:          0 HIT:          0 MISS:          0
cpu3_DTLB PREFETCH     ACCESS:          0 HIT:          0 MISS:          0
cpu3_DTLB WRITE        ACCESS:          0 HIT:          0 MISS:          0
cpu3_DTLB TRANSLATION  ACCESS:          0 HIT:          0 MISS:          0
cpu3_DTLB PREFETCH REQUESTED:          0 ISSUED:          0 USEFUL:          0 USELESS:          0
cpu3_DTLB AVERAGE MISS LATENCY: 11.93 cycles
cpu3_DTLB TOTAL        ACCESS:          0 HIT:          0 MISS:          0
cpu3_DTLB LOAD         ACCESS:          0 HIT:          0 MISS:          0
cpu3_DTLB RFO          ACCESS:          0 HIT:          0 MISS:          0
cpu3_DTLB PREFETCH     ACCESS:          0 HIT:          0 MISS:          0
cpu3_DTLB WRITE        ACCESS:          0 HIT:          0 MISS:          0
cpu3_DTLB TRANSLATION  ACCESS:          0 HIT:          0 MISS:          0
cpu3_DTLB PREFETCH REQUESTED:          0 ISSUED:          0 USEFUL:          0 USELESS:          0
cpu3_DTLB AVERAGE MISS LATENCY: 11.93 cycles
cpu3_DTLB TOTAL        ACCESS:   73668755 HIT:   72961355 MISS:     707400
cpu3_DTLB LOAD         ACCESS:   73668755 HIT:   72961355 MISS:     707400
cpu3_DTLB RFO          ACCESS:          0 HIT:          0 MISS:          0
cpu3_DTLB PREFETCH     ACCESS:          0 HIT:          0 MISS:          0
cpu3_DTLB WRITE        ACCESS:          0 HIT:          0 MISS:          0
cpu3_DTLB TRANSLATION  ACCESS:          0 HIT:          0 MISS:          0
cpu3_DTLB PREFETCH REQUESTED:          0 ISSUED:          0 USEFUL:          0 USELESS:          0
cpu3_DTLB AVERAGE MISS LATENCY: 11.93 cycles
cpu3_ITLB TOTAL        ACCESS:          0 HIT:          0 MISS:          0
cpu3_ITLB LOAD         ACCESS:          0 HIT:          0 MISS:          0
cpu3_ITLB RFO          ACCESS:          0 HIT:          0 MISS:          0
cpu3_ITLB PREFETCH     ACCESS:          0 HIT:          0 MISS:          0
cpu3_ITLB WRITE        ACCESS:          0 HIT:          0 MISS:          0
cpu3_ITLB TRANSLATION  ACCESS:          0 HIT:          0 MISS:          0
cpu3_ITLB PREFETCH REQUESTED:          0 ISSUED:          0 USEFUL:          0 USELESS:          0
cpu3_ITLB AVERAGE MISS LATENCY: 905.6 cycles
cpu3_ITLB TOTAL        ACCESS:          0 HIT:          0 MISS:          0
cpu3_ITLB LOAD         ACCESS:          0 HIT:          0 MISS:          0
cpu3_ITLB RFO          ACCESS:          0 HIT:          0 MISS:          0
cpu3_ITLB PREFETCH     ACCESS:          0 HIT:          0 MISS:          0
cpu3_ITLB WRITE        ACCESS:          0 HIT:          0 MISS:          0
cpu3_ITLB TRANSLATION  ACCESS:          0 HIT:          0 MISS:          0
cpu3_ITLB PREFETCH REQUESTED:          0 ISSUED:          0 USEFUL:          0 USELESS:          0
cpu3_ITLB AVERAGE MISS LATENCY: 905.6 cycles
cpu3_ITLB TOTAL        ACCESS:          0 HIT:          0 MISS:          0
cpu3_ITLB LOAD         ACCESS:          0 HIT:          0 MISS:          0
cpu3_ITLB RFO          ACCESS:          0 HIT:          0 MISS:          0
cpu3_ITLB PREFETCH     ACCESS:          0 HIT:          0 MISS:          0
cpu3_ITLB WRITE        ACCESS:          0 HIT:          0 MISS:          0
cpu3_ITLB TRANSLATION  ACCESS:          0 HIT:          0 MISS:          0
cpu3_ITLB PREFETCH REQUESTED:          0 ISSUED:          0 USEFUL:          0 USELESS:          0
cpu3_ITLB AVERAGE MISS LATENCY: 905.6 cycles
cpu3_ITLB TOTAL        ACCESS:    4666113 HIT:    4665900 MISS:        213
cpu3_ITLB LOAD         ACCESS:    4666113 HIT:    4665900 MISS:        213
cpu3_ITLB RFO          ACCESS:          0 HIT:          0 MISS:          0
cpu3_ITLB PREFETCH     ACCESS:          0 HIT:          0 MISS:          0
cpu3_ITLB WRITE        ACCESS:          0 HIT:          0 MISS:          0
cpu3_ITLB TRANSLATION  ACCESS:          0 HIT:          0 MISS:          0
cpu3_ITLB PREFETCH REQUESTED:          0 ISSUED:          0 USEFUL:          0 USELESS:          0
cpu3_ITLB AVERAGE MISS LATENCY: 905.6 cycles
cpu3_L1D TOTAL        ACCESS:          0 HIT:          0 MISS:          0
cpu3_L1D LOAD         ACCESS:          0 HIT:          0 MISS:          0
cpu3_L1D RFO          ACCESS:          0 HIT:          0 MISS:          0
cpu3_L1D PREFETCH     ACCESS:          0 HIT:          0 MISS:          0
cpu3_L1D WRITE        ACCESS:          0 HIT:          0 MISS:          0
cpu3_L1D TRANSLATION  ACCESS:          0 HIT:          0 MISS:          0
cpu3_L1D PREFETCH REQUESTED:   34103774 ISSUED:    3590251 USEFUL:     209767 USELESS:      65169
cpu3_L1D AVERAGE MISS LATENCY: 237.7 cycles
cpu3_L1D TOTAL        ACCESS:          0 HIT:          0 MISS:          0
cpu3_L1D LOAD         ACCESS:          0 HIT:          0 MISS:          0
cpu3_L1D RFO          ACCESS:          0 HIT:          0 MISS:          0
cpu3_L1D PREFETCH     ACCESS:          0 HIT:          0 MISS:          0
cpu3_L1D WRITE        ACCESS:          0 HIT:          0 MISS:          0
cpu3_L1D TRANSLATION  ACCESS:          0 HIT:          0 MISS:          0
cpu3_L1D PREFETCH REQUESTED:   34103774 ISSUED:    3590251 USEFUL:     209767 USELESS:      65169
cpu3_L1D AVERAGE MISS LATENCY: 237.7 cycles
cpu3_L1D TOTAL        ACCESS:          0 HIT:          0 MISS:          0
cpu3_L1D LOAD         ACCESS:          0 HIT:          0 MISS:          0
cpu3_L1D RFO          ACCESS:          0 HIT:          0 MISS:          0
cpu3_L1D PREFETCH     ACCESS:          0 HIT:          0 MISS:          0
cpu3_L1D WRITE        ACCESS:          0 HIT:          0 MISS:          0
cpu3_L1D TRANSLATION  ACCESS:          0 HIT:          0 MISS:          0
cpu3_L1D PREFETCH REQUESTED:   34103774 ISSUED:    3590251 USEFUL:     209767 USELESS:      65169
cpu3_L1D AVERAGE MISS LATENCY: 237.7 cycles
cpu3_L1D TOTAL        ACCESS:   96687919 HIT:   90063982 MISS:    6623937
cpu3_L1D LOAD         ACCESS:   55913668 HIT:   54310343 MISS:    1603325
cpu3_L1D RFO          ACCESS:          0 HIT:          0 MISS:          0
cpu3_L1D PREFETCH     ACCESS:    3590220 HIT:    2069025 MISS:    1521195
cpu3_L1D WRITE        ACCESS:   37177264 HIT:   33682478 MISS:    3494786
cpu3_L1D TRANSLATION  ACCESS:       6767 HIT:       2136 MISS:       4631
cpu3_L1D PREFETCH REQUESTED:   34103774 ISSUED:    3590251 USEFUL:     209767 USELESS:      65169
cpu3_L1D AVERAGE MISS LATENCY: 237.7 cycles
cpu3_L1I TOTAL        ACCESS:          0 HIT:          0 MISS:          0
cpu3_L1I LOAD         ACCESS:          0 HIT:          0 MISS:          0
cpu3_L1I RFO          ACCESS:          0 HIT:          0 MISS:          0
cpu3_L1I PREFETCH     ACCESS:          0 HIT:          0 MISS:          0
cpu3_L1I WRITE        ACCESS:          0 HIT:          0 MISS:          0
cpu3_L1I TRANSLATION  ACCESS:          0 HIT:          0 MISS:          0
cpu3_L1I PREFETCH REQUESTED:          0 ISSUED:          0 USEFUL:          0 USELESS:          0
cpu3_L1I AVERAGE MISS LATENCY: 28.11 cycles
cpu3_L1I TOTAL        ACCESS:          0 HIT:          0 MISS:          0
cpu3_L1I LOAD         ACCESS:          0 HIT:          0 MISS:          0
cpu3_L1I RFO          ACCESS:          0 HIT:          0 MISS:          0
cpu3_L1I PREFETCH     ACCESS:          0 HIT:          0 MISS:          0
cpu3_L1I WRITE        ACCESS:          0 HIT:          0 MISS:          0
cpu3_L1I TRANSLATION  ACCESS:          0 HIT:          0 MISS:          0
cpu3_L1I PREFETCH REQUESTED:          0 ISSUED:          0 USEFUL:          0 USELESS:          0
cpu3_L1I AVERAGE MISS LATENCY: 28.11 cycles
cpu3_L1I TOTAL        ACCESS:          0 HIT:          0 MISS:          0
cpu3_L1I LOAD         ACCESS:          0 HIT:          0 MISS:          0
cpu3_L1I RFO          ACCESS:          0 HIT:          0 MISS:          0
cpu3_L1I PREFETCH     ACCESS:          0 HIT:          0 MISS:          0
cpu3_L1I WRITE        ACCESS:          0 HIT:          0 MISS:          0
cpu3_L1I TRANSLATION  ACCESS:          0 HIT:          0 MISS:          0
cpu3_L1I PREFETCH REQUESTED:          0 ISSUED:          0 USEFUL:          0 USELESS:          0
cpu3_L1I AVERAGE MISS LATENCY: 28.11 cycles
cpu3_L1I TOTAL        ACCESS:    5769964 HIT:    4852570 MISS:     917394
cpu3_L1I LOAD         ACCESS:    5769964 HIT:    4852570 MISS:     917394
cpu3_L1I RFO          ACCESS:          0 HIT:          0 MISS:          0
cpu3_L1I PREFETCH     ACCESS:          0 HIT:          0 MISS:          0
cpu3_L1I WRITE        ACCESS:          0 HIT:          0 MISS:          0
cpu3_L1I TRANSLATION  ACCESS:          0 HIT:          0 MISS:          0
cpu3_L1I PREFETCH REQUESTED:          0 ISSUED:          0 USEFUL:          0 USELESS:          0
cpu3_L1I AVERAGE MISS LATENCY: 28.11 cycles
cpu3_L2C TOTAL        ACCESS:          0 HIT:          0 MISS:          0
cpu3_L2C LOAD         ACCESS:          0 HIT:          0 MISS:          0
cpu3_L2C RFO          ACCESS:          0 HIT:          0 MISS:          0
cpu3_L2C PREFETCH     ACCESS:          0 HIT:          0 MISS:          0
cpu3_L2C WRITE        ACCESS:          0 HIT:          0 MISS:          0
cpu3_L2C TRANSLATION  ACCESS:          0 HIT:          0 MISS:          0
cpu3_L2C PREFETCH REQUESTED:          0 ISSUED:          0 USEFUL:          0 USELESS:          0
cpu3_L2C AVERAGE MISS LATENCY: 2852 cycles
cpu3_L2C TOTAL        ACCESS:          0 HIT:          0 MISS:          0
cpu3_L2C LOAD         ACCESS:          0 HIT:          0 MISS:          0
cpu3_L2C RFO          ACCESS:          0 HIT:          0 MISS:          0
cpu3_L2C PREFETCH     ACCESS:          0 HIT:          0 MISS:          0
cpu3_L2C WRITE        ACCESS:          0 HIT:          0 MISS:          0
cpu3_L2C TRANSLATION  ACCESS:          0 HIT:          0 MISS:          0
cpu3_L2C PREFETCH REQUESTED:          0 ISSUED:          0 USEFUL:          0 USELESS:          0
cpu3_L2C AVERAGE MISS LATENCY: 2852 cycles
cpu3_L2C TOTAL        ACCESS:          0 HIT:          0 MISS:          0
cpu3_L2C LOAD         ACCESS:          0 HIT:          0 MISS:          0
[...]
cpu2_L2C PREFETCH     ACCESS:          0 HIT:          0 MISS:          0
cpu2_L2C WRITE        ACCESS:          0 HIT:          0 MISS:          0
cpu2_L2C TRANSLATION  ACCESS:          0 HIT:          0 MISS:          0
cpu2_L2C PREFETCH REQUESTED:          0 ISSUED:          0 USEFUL:          0 USELESS:          0
cpu2_L2C AVERAGE MISS LATENCY: 1307 cycles
cpu2_L2C TOTAL        ACCESS:          0 HIT:          0 MISS:          0
cpu2_L2C LOAD         ACCESS:          0 HIT:          0 MISS:          0
cpu2_L2C RFO          ACCESS:          0 HIT:          0 MISS:          0
cpu2_L2C PREFETCH     ACCESS:          0 HIT:          0 MISS:          0
cpu2_L2C WRITE        ACCESS:          0 HIT:          0 MISS:          0
cpu2_L2C TRANSLATION  ACCESS:          0 HIT:          0 MISS:          0
cpu2_L2C PREFETCH REQUESTED:          0 ISSUED:          0 USEFUL:          0 USELESS:          0
cpu2_L2C AVERAGE MISS LATENCY: 1307 cycles
cpu2_L2C TOTAL        ACCESS:    4200299 HIT:    2814203 MISS:    1386096
cpu2_L2C LOAD         ACCESS:    1073575 HIT:     680446 MISS:     393129
cpu2_L2C RFO          ACCESS:     734573 HIT:     414017 MISS:     320556
cpu2_L2C PREFETCH     ACCESS:    1423374 HIT:     755287 MISS:     668087
cpu2_L2C WRITE        ACCESS:     962725 HIT:     962216 MISS:        509
cpu2_L2C TRANSLATION  ACCESS:       6052 HIT:       2237 MISS:       3815
cpu2_L2C PREFETCH REQUESTED:          0 ISSUED:          0 USEFUL:          0 USELESS:          0
cpu2_L2C AVERAGE MISS LATENCY: 1307 cycles
cpu2_L2C TOTAL        ACCESS:          0 HIT:          0 MISS:          0
cpu2_L2C LOAD         ACCESS:          0 HIT:          0 MISS:          0
cpu2_L2C RFO          ACCESS:          0 HIT:          0 MISS:          0
cpu2_L2C PREFETCH     ACCESS:          0 HIT:          0 MISS:          0
cpu2_L2C WRITE        ACCESS:          0 HIT:          0 MISS:          0
cpu2_L2C TRANSLATION  ACCESS:          0 HIT:          0 MISS:          0
cpu2_L2C PREFETCH REQUESTED:          0 ISSUED:          0 USEFUL:          0 USELESS:          0
cpu2_L2C AVERAGE MISS LATENCY: 1307 cycles
cpu2_STLB TOTAL        ACCESS:          0 HIT:          0 MISS:          0
cpu2_STLB LOAD         ACCESS:          0 HIT:          0 MISS:          0
cpu2_STLB RFO          ACCESS:          0 HIT:          0 MISS:          0
cpu2_STLB PREFETCH     ACCESS:          0 HIT:          0 MISS:          0
cpu2_STLB WRITE        ACCESS:          0 HIT:          0 MISS:          0
cpu2_STLB TRANSLATION  ACCESS:          0 HIT:          0 MISS:          0
cpu2_STLB PREFETCH REQUESTED:          0 ISSUED:          0 USEFUL:          0 USELESS:          0
cpu2_STLB AVERAGE MISS LATENCY: 1155 cycles
cpu2_STLB TOTAL        ACCESS:          0 HIT:          0 MISS:          0
cpu2_STLB LOAD         ACCESS:          0 HIT:          0 MISS:          0
cpu2_STLB RFO          ACCESS:          0 HIT:          0 MISS:          0
cpu2_STLB PREFETCH     ACCESS:          0 HIT:          0 MISS:          0
cpu2_STLB WRITE        ACCESS:          0 HIT:          0 MISS:          0
cpu2_STLB TRANSLATION  ACCESS:          0 HIT:          0 MISS:          0
cpu2_STLB PREFETCH REQUESTED:          0 ISSUED:          0 USEFUL:          0 USELESS:          0
cpu2_STLB AVERAGE MISS LATENCY: 1155 cycles
cpu2_STLB TOTAL        ACCESS:      63874 HIT:      56633 MISS:       7241
cpu2_STLB LOAD         ACCESS:      63874 HIT:      56633 MISS:       7241
cpu2_STLB RFO          ACCESS:          0 HIT:          0 MISS:          0
cpu2_STLB PREFETCH     ACCESS:          0 HIT:          0 MISS:          0
cpu2_STLB WRITE        ACCESS:          0 HIT:          0 MISS:          0
cpu2_STLB TRANSLATION  ACCESS:          0 HIT:          0 MISS:          0
cpu2_STLB PREFETCH REQUESTED:          0 ISSUED:          0 USEFUL:          0 USELESS:          0
cpu2_STLB AVERAGE MISS LATENCY: 1155 cycles
cpu2_STLB TOTAL        ACCESS:          0 HIT:          0 MISS:          0
cpu2_STLB LOAD         ACCESS:          0 HIT:          0 MISS:          0
cpu2_STLB RFO          ACCESS:          0 HIT:          0 MISS:          0
cpu2_STLB PREFETCH     ACCESS:          0 HIT:          0 MISS:          0
cpu2_STLB WRITE        ACCESS:          0 HIT:          0 MISS:          0
cpu2_STLB TRANSLATION  ACCESS:          0 HIT:          0 MISS:          0
cpu2_STLB PREFETCH REQUESTED:          0 ISSUED:          0 USEFUL:          0 USELESS:          0
cpu2_STLB AVERAGE MISS LATENCY: 1155 cycles
cpu3_DTLB TOTAL        ACCESS:          0 HIT:          0 MISS:          0
cpu3_DTLB LOAD         ACCESS:          0 HIT:          0 MISS:          0
cpu3_DTLB RFO          ACCESS:          0 HIT:          0 MISS:          0
cpu3_DTLB PREFETCH     ACCESS:          0 HIT:          0 MISS:          0
cpu3_DTLB WRITE        ACCESS:          0 HIT:          0 MISS:          0
cpu3_DTLB TRANSLATION  ACCESS:          0 HIT:          0 MISS:          0
cpu3_DTLB PREFETCH REQUESTED:          0 ISSUED:          0 USEFUL:          0 USELESS:          0
cpu3_DTLB AVERAGE MISS LATENCY: 11.93 cycles
cpu3_DTLB TOTAL        ACCESS:          0 HIT:          0 MISS:          0
cpu3_DTLB LOAD         ACCESS:          0 HIT:          0 MISS:          0
cpu3_DTLB RFO          ACCESS:          0 HIT:          0 MISS:          0
cpu3_DTLB PREFETCH     ACCESS:          0 HIT:          0 MISS:          0
cpu3_DTLB WRITE        ACCESS:          0 HIT:          0 MISS:          0
cpu3_DTLB TRANSLATION  ACCESS:          0 HIT:          0 MISS:          0
cpu3_DTLB PREFETCH REQUESTED:          0 ISSUED:          0 USEFUL:          0 USELESS:          0
cpu3_DTLB AVERAGE MISS LATENCY: 11.93 cycles
cpu3_DTLB TOTAL        ACCESS:          0 HIT:          0 MISS:          0
cpu3_DTLB LOAD         ACCESS:          0 HIT:          0 MISS:          0
cpu3_DTLB RFO          ACCESS:          0 HIT:          0 MISS:          0
cpu3_DTLB PREFETCH     ACCESS:          0 HIT:          0 MISS:          0
cpu3_DTLB WRITE        ACCESS:          0 HIT:          0 MISS:          0
cpu3_DTLB TRANSLATION  ACCESS:          0 HIT:          0 MISS:          0
cpu3_DTLB PREFETCH REQUESTED:          0 ISSUED:          0 USEFUL:          0 USELESS:          0
cpu3_DTLB AVERAGE MISS LATENCY: 11.93 cycles
cpu3_DTLB TOTAL        ACCESS:   17912317 HIT:   17901016 MISS:      11301
cpu3_DTLB LOAD         ACCESS:   17912317 HIT:   17901016 MISS:      11301
cpu3_DTLB RFO          ACCESS:          0 HIT:          0 MISS:          0
cpu3_DTLB PREFETCH     ACCESS:          0 HIT:          0 MISS:          0
cpu3_DTLB WRITE        ACCESS:          0 HIT:          0 MISS:          0
cpu3_DTLB TRANSLATION  ACCESS:          0 HIT:          0 MISS:          0
cpu3_DTLB PREFETCH REQUESTED:          0 ISSUED:          0 USEFUL:          0 USELESS:          0
cpu3_DTLB AVERAGE MISS LATENCY: 11.93 cycles
cpu3_ITLB TOTAL        ACCESS:          0 HIT:          0 MISS:          0
cpu3_ITLB LOAD         ACCESS:          0 HIT:          0 MISS:          0
cpu3_ITLB RFO          ACCESS:          0 HIT:          0 MISS:          0
cpu3_ITLB PREFETCH     ACCESS:          0 HIT:          0 MISS:          0
cpu3_ITLB WRITE        ACCESS:          0 HIT:          0 MISS:          0
cpu3_ITLB TRANSLATION  ACCESS:          0 HIT:          0 MISS:          0
cpu3_ITLB PREFETCH REQUESTED:          0 ISSUED:          0 USEFUL:          0 USELESS:          0
cpu3_ITLB AVERAGE MISS LATENCY: 905.6 cycles
cpu3_ITLB TOTAL        ACCESS:          0 HIT:          0 MISS:          0
cpu3_ITLB LOAD         ACCESS:          0 HIT:          0 MISS:          0
cpu3_ITLB RFO          ACCESS:          0 HIT:          0 MISS:          0
cpu3_ITLB PREFETCH     ACCESS:          0 HIT:          0 MISS:          0
cpu3_ITLB WRITE        ACCESS:          0 HIT:          0 MISS:          0
cpu3_ITLB TRANSLATION  ACCESS:          0 HIT:          0 MISS:          0
cpu3_ITLB PREFETCH REQUESTED:          0 ISSUED:          0 USEFUL:          0 USELESS:          0
cpu3_ITLB AVERAGE MISS LATENCY: 905.6 cycles
cpu3_ITLB TOTAL        ACCESS:          0 HIT:          0 MISS:          0
cpu3_ITLB LOAD         ACCESS:          0 HIT:          0 MISS:          0
cpu3_ITLB RFO          ACCESS:          0 HIT:          0 MISS:          0
cpu3_ITLB PREFETCH     ACCESS:          0 HIT:          0 MISS:          0
cpu3_ITLB WRITE        ACCESS:          0 HIT:          0 MISS:          0
cpu3_ITLB TRANSLATION  ACCESS:          0 HIT:          0 MISS:          0
cpu3_ITLB PREFETCH REQUESTED:          0 ISSUED:          0 USEFUL:          0 USELESS:          0
cpu3_ITLB AVERAGE MISS LATENCY: 905.6 cycles
cpu3_ITLB TOTAL        ACCESS:     506116 HIT:     506116 MISS:          0
cpu3_ITLB LOAD         ACCESS:     506116 HIT:     506116 MISS:          0
cpu3_ITLB RFO          ACCESS:          0 HIT:          0 MISS:          0
cpu3_ITLB PREFETCH     ACCESS:          0 HIT:          0 MISS:          0
cpu3_ITLB WRITE        ACCESS:          0 HIT:          0 MISS:          0
cpu3_ITLB TRANSLATION  ACCESS:          0 HIT:          0 MISS:          0
cpu3_ITLB PREFETCH REQUESTED:          0 ISSUED:          0 USEFUL:          0 USELESS:          0
cpu3_ITLB AVERAGE MISS LATENCY: 905.6 cycles
cpu3_L1D TOTAL        ACCESS:          0 HIT:          0 MISS:          0
cpu3_L1D LOAD         ACCESS:          0 HIT:          0 MISS:          0
cpu3_L1D RFO          ACCESS:          0 HIT:          0 MISS:          0
cpu3_L1D PREFETCH     ACCESS:          0 HIT:          0 MISS:          0
cpu3_L1D WRITE        ACCESS:          0 HIT:          0 MISS:          0
cpu3_L1D TRANSLATION  ACCESS:          0 HIT:          0 MISS:          0
cpu3_L1D PREFETCH REQUESTED:   34103774 ISSUED:    3590251 USEFUL:     209767 USELESS:      65169
cpu3_L1D AVERAGE MISS LATENCY: 237.7 cycles
cpu3_L1D TOTAL        ACCESS:          0 HIT:          0 MISS:          0
cpu3_L1D LOAD         ACCESS:          0 HIT:          0 MISS:          0
cpu3_L1D RFO          ACCESS:          0 HIT:          0 MISS:          0
cpu3_L1D PREFETCH     ACCESS:          0 HIT:          0 MISS:          0
cpu3_L1D WRITE        ACCESS:          0 HIT:          0 MISS:          0
cpu3_L1D TRANSLATION  ACCESS:          0 HIT:          0 MISS:          0
cpu3_L1D PREFETCH REQUESTED:   34103774 ISSUED:    3590251 USEFUL:     209767 USELESS:      65169
cpu3_L1D AVERAGE MISS LATENCY: 237.7 cycles
cpu3_L1D TOTAL        ACCESS:          0 HIT:          0 MISS:          0
cpu3_L1D LOAD         ACCESS:          0 HIT:          0 MISS:          0
cpu3_L1D RFO          ACCESS:          0 HIT:          0 MISS:          0
cpu3_L1D PREFETCH     ACCESS:          0 HIT:          0 MISS:          0
cpu3_L1D WRITE        ACCESS:          0 HIT:          0 MISS:          0
cpu3_L1D TRANSLATION  ACCESS:          0 HIT:          0 MISS:          0
cpu3_L1D PREFETCH REQUESTED:   34103774 ISSUED:    3590251 USEFUL:     209767 USELESS:      65169
cpu3_L1D AVERAGE MISS LATENCY: 237.7 cycles
cpu3_L1D TOTAL        ACCESS:   22022264 HIT:   21990064 MISS:      32200
cpu3_L1D LOAD         ACCESS:   16416439 HIT:   16414130 MISS:       2309
cpu3_L1D RFO          ACCESS:          0 HIT:          0 MISS:          0
cpu3_L1D PREFETCH     ACCESS:      21277 HIT:      10745 MISS:      10532
cpu3_L1D WRITE        ACCESS:    5584370 HIT:    5565171 MISS:      19199
cpu3_L1D TRANSLATION  ACCESS:        178 HIT:         18 MISS:        160
cpu3_L1D PREFETCH REQUESTED:   34103774 ISSUED:    3590251 USEFUL:     209767 USELESS:      65169
cpu3_L1D AVERAGE MISS LATENCY: 237.7 cycles
cpu3_L1I TOTAL        ACCESS:          0 HIT:          0 MISS:          0
cpu3_L1I LOAD         ACCESS:          0 HIT:          0 MISS:          0
cpu3_L1I RFO          ACCESS:          0 HIT:          0 MISS:          0
cpu3_L1I PREFETCH     ACCESS:          0 HIT:          0 MISS:          0
cpu3_L1I WRITE        ACCESS:          0 HIT:          0 MISS:          0
cpu3_L1I TRANSLATION  ACCESS:          0 HIT:          0 MISS:          0
cpu3_L1I PREFETCH REQUESTED:          0 ISSUED:          0 USEFUL:          0 USELESS:          0
cpu3_L1I AVERAGE MISS LATENCY: 28.11 cycles
cpu3_L1I TOTAL        ACCESS:          0 HIT:          0 MISS:          0
cpu3_L1I LOAD         ACCESS:          0 HIT:          0 MISS:          0
cpu3_L1I RFO          ACCESS:          0 HIT:          0 MISS:          0
cpu3_L1I PREFETCH     ACCESS:          0 HIT:          0 MISS:          0
cpu3_L1I WRITE        ACCESS:          0 HIT:          0 MISS:          0
cpu3_L1I TRANSLATION  ACCESS:          0 HIT:          0 MISS:          0
cpu3_L1I PREFETCH REQUESTED:          0 ISSUED:          0 USEFUL:          0 USELESS:          0
cpu3_L1I AVERAGE MISS LATENCY: 28.11 cycles
cpu3_L1I TOTAL        ACCESS:          0 HIT:          0 MISS:          0
cpu3_L1I LOAD         ACCESS:          0 HIT:          0 MISS:          0
cpu3_L1I RFO          ACCESS:          0 HIT:          0 MISS:          0
cpu3_L1I PREFETCH     ACCESS:          0 HIT:          0 MISS:          0
cpu3_L1I WRITE        ACCESS:          0 HIT:          0 MISS:          0
cpu3_L1I TRANSLATION  ACCESS:          0 HIT:          0 MISS:          0
cpu3_L1I PREFETCH REQUESTED:          0 ISSUED:          0 USEFUL:          0 USELESS:          0
cpu3_L1I AVERAGE MISS LATENCY: 28.11 cycles
cpu3_L1I TOTAL        ACCESS:     563834 HIT:     562347 MISS:       1487
cpu3_L1I LOAD         ACCESS:     563834 HIT:     562347 MISS:       1487
cpu3_L1I RFO          ACCESS:          0 HIT:          0 MISS:          0
cpu3_L1I PREFETCH     ACCESS:          0 HIT:          0 MISS:          0
cpu3_L1I WRITE        ACCESS:          0 HIT:          0 MISS:          0
cpu3_L1I TRANSLATION  ACCESS:          0 HIT:          0 MISS:          0
cpu3_L1I PREFETCH REQUESTED:          0 ISSUED:          0 USEFUL:          0 USELESS:          0
cpu3_L1I AVERAGE MISS LATENCY: 28.11 cycles
cpu3_L2C TOTAL        ACCESS:          0 HIT:          0 MISS:          0
cpu3_L2C LOAD         ACCESS:          0 HIT:          0 MISS:          0
cpu3_L2C RFO          ACCESS:          0 HIT:          0 MISS:          0
cpu3_L2C PREFETCH     ACCESS:          0 HIT:          0 MISS:          0
cpu3_L2C WRITE        ACCESS:          0 HIT:          0 MISS:          0
cpu3_L2C TRANSLATION  ACCESS:          0 HIT:          0 MISS:          0
cpu3_L2C PREFETCH REQUESTED:          0 ISSUED:          0 USEFUL:          0 USELESS:          0
cpu3_L2C AVERAGE MISS LATENCY: 2852 cycles
cpu3_L2C TOTAL        ACCESS:          0 HIT:          0 MISS:          0
cpu3_L2C LOAD         ACCESS:          0 HIT:          0 MISS:          0
cpu3_L2C RFO          ACCESS:          0 HIT:          0 MISS:          0
cpu3_L2C PREFETCH     ACCESS:          0 HIT:          0 MISS:          0
cpu3_L2C WRITE        ACCESS:          0 HIT:          0 MISS:          0
cpu3_L2C TRANSLATION  ACCESS:          0 HIT:          0 MISS:          0
cpu3_L2C PREFETCH REQUESTED:          0 ISSUED:          0 USEFUL:          0 USELESS:          0
cpu3_L2C AVERAGE MISS LATENCY: 2852 cycles
cpu3_L2C TOTAL        ACCESS:          0 HIT:          0 MISS:          0
cpu3_L2C LOAD         ACCESS:          0 HIT:          0 MISS:          0
cpu3_L2C RFO          ACCESS:          0 HIT:          0 MISS:          0
cpu3_L2C PREFETCH     ACCESS:          0 HIT:          0 MISS:          0
cpu3_L2C WRITE        ACCESS:          0 HIT:          0 MISS:          0
cpu3_L2C TRANSLATION  ACCESS:          0 HIT:          0 MISS:          0
cpu3_L2C PREFETCH REQUESTED:          0 ISSUED:          0 USEFUL:          0 USELESS:          0
cpu3_L2C AVERAGE MISS LATENCY: 2852 cycles
cpu3_L2C TOTAL        ACCESS:      18720 HIT:       8427 MISS:      10293
cpu3_L2C LOAD         ACCESS:       2245 HIT:       1364 MISS:        881
cpu3_L2C RFO          ACCESS:       2653 HIT:        105 MISS:       2548
cpu3_L2C PREFETCH     ACCESS:      10439 HIT:       3677 MISS:       6762
cpu3_L2C WRITE        ACCESS:       3223 HIT:       3222 MISS:          1
cpu3_L2C TRANSLATION  ACCESS:        160 HIT:         59 MISS:        101
cpu3_L2C PREFETCH REQUESTED:          0 ISSUED:          0 USEFUL:          0 USELESS:          0
cpu3_L2C AVERAGE MISS LATENCY: 2852 cycles
cpu3_STLB TOTAL        ACCESS:          0 HIT:          0 MISS:          0
cpu3_STLB LOAD         ACCESS:          0 HIT:          0 MISS:          0
cpu3_STLB RFO          ACCESS:          0 HIT:          0 MISS:          0
cpu3_STLB PREFETCH     ACCESS:          0 HIT:          0 MISS:          0
cpu3_STLB WRITE        ACCESS:          0 HIT:          0 MISS:          0
cpu3_STLB TRANSLATION  ACCESS:          0 HIT:          0 MISS:          0
cpu3_STLB PREFETCH REQUESTED:          0 ISSUED:          0 USEFUL:          0 USELESS:          0
cpu3_STLB AVERAGE MISS LATENCY: 1231 cycles
cpu3_STLB TOTAL        ACCESS:          0 HIT:          0 MISS:          0
cpu3_STLB LOAD         ACCESS:          0 HIT:          0 MISS:          0
cpu3_STLB RFO          ACCESS:          0 HIT:          0 MISS:          0
cpu3_STLB PREFETCH     ACCESS:          0 HIT:          0 MISS:          0
cpu3_STLB WRITE        ACCESS:          0 HIT:          0 MISS:          0
cpu3_STLB TRANSLATION  ACCESS:          0 HIT:          0 MISS:          0
cpu3_STLB PREFETCH REQUESTED:          0 ISSUED:          0 USEFUL:          0 USELESS:          0
cpu3_STLB AVERAGE MISS LATENCY: 1231 cycles
cpu3_STLB TOTAL        ACCESS:          0 HIT:          0 MISS:          0
cpu3_STLB LOAD         ACCESS:          0 HIT:          0 MISS:          0
cpu3_STLB RFO          ACCESS:          0 HIT:          0 MISS:          0
cpu3_STLB PREFETCH     ACCESS:          0 HIT:          0 MISS:          0
cpu3_STLB WRITE        ACCESS:          0 HIT:          0 MISS:          0
cpu3_STLB TRANSLATION  ACCESS:          0 HIT:          0 MISS:          0
cpu3_STLB PREFETCH REQUESTED:          0 ISSUED:          0 USEFUL:          0 USELESS:          0
cpu3_STLB AVERAGE MISS LATENCY: 1231 cycles
cpu3_STLB TOTAL        ACCESS:       9960 HIT:       9783 MISS:        177
cpu3_STLB LOAD         ACCESS:       9960 HIT:       9783 MISS:        177
cpu3_STLB RFO          ACCESS:          0 HIT:          0 MISS:          0
cpu3_STLB PREFETCH     ACCESS:          0 HIT:          0 MISS:          0
cpu3_STLB WRITE        ACCESS:          0 HIT:          0 MISS:          0
cpu3_STLB TRANSLATION  ACCESS:          0 HIT:          0 MISS:          0
cpu3_STLB PREFETCH REQUESTED:          0 ISSUED:          0 USEFUL:          0 USELESS:          0
cpu3_STLB AVERAGE MISS LATENCY: 1231 cycles

DRAM Statistics

Channel 0 RQ ROW_BUFFER_HIT:    1176383
  ROW_BUFFER_MISS:    3097117
 AVG DBUS CONGESTED CYCLE: 3.985
WQ ROW_BUFFER_HIT: Channel 0 
  ROW_BUFFER_MISS:     132374
  FULL:    2231512
BERTI TO_L1: 66419906 TO_L2: 123987743 TO_L2_BC_MSHR: 49476213
BERTI AVG_LAT: 196.347 NUM_TRACK_LATENCY: 25617425 NUM_CANT_TRACK_LATENCY: 472520
BERTI CROSS_PAGE 31449851 NO_CROSS_PAGE: 158957798
BERTI FOUND_BERTI: 39083352 NO_FOUND_BERTI: 142761669
BERTI AVERAGE_ISSUED: 3.2813
BERTI TO_L1: 66419906 TO_L2: 123987743 TO_L2_BC_MSHR: 49476213
BERTI AVG_LAT: 196.347 NUM_TRACK_LATENCY: 25617425 NUM_CANT_TRACK_LATENCY: 472520
BERTI CROSS_PAGE 31449851 NO_CROSS_PAGE: 158957798
BERTI FOUND_BERTI: 39083352 NO_FOUND_BERTI: 142761669
BERTI AVERAGE_ISSUED: 3.2813
BERTI TO_L1: 66419906 TO_L2: 123987743 TO_L2_BC_MSHR: 49476213
BERTI AVG_LAT: 196.347 NUM_TRACK_LATENCY: 25617425 NUM_CANT_TRACK_LATENCY: 472520
BERTI CROSS_PAGE 31449851 NO_CROSS_PAGE: 158957798
BERTI FOUND_BERTI: 39083352 NO_FOUND_BERTI: 142761669
BERTI AVERAGE_ISSUED: 3.2813
BERTI TO_L1: 66419906 TO_L2: 123987743 TO_L2_BC_MSHR: 49476213
BERTI AVG_LAT: 196.347 NUM_TRACK_LATENCY: 25617425 NUM_CANT_TRACK_LATENCY: 472520
BERTI CROSS_PAGE 31449851 NO_CROSS_PAGE: 158957798
BERTI FOUND_BERTI: 39083352 NO_FOUND_BERTI: 142761669
BERTI AVERAGE_ISSUED: 3.2813
