WARNING: physical memory size is smaller than virtual memory size.
WARNING: option --warmup_instructions is deprecated. Use --warmup-instructions instead.
WARNING: option --simulation_instructions is deprecated. Use --simulation-instructions instead.

*** ChampSim Multicore Out-of-Order Simulator ***
Warmup Instructions: 50000000
Simulation Instructions: 150000000
Number of CPUs: 4
Page size: 4096

Berti Prefetcher
BERTI HASH ORIGINAL
BERTI IP MASK ffff
Berti Prefetcher
BERTI HASH ORIGINAL
BERTI IP MASK ffff
Berti Prefetcher
BERTI HASH ORIGINAL
BERTI IP MASK ffff
Berti Prefetcher
BERTI HASH ORIGINAL
BERTI IP MASK ffff
Off-chip DRAM Size: 4 GiB Channels: 1 Width: 64-bit Data Race: 3200 MT/s
Heartbeat CPU 1 instructions: 10000003 cycles: 2500045 heartbeat IPC: 4 cumulative IPC: 4 (Simulation time: 00 hr 02 min 30 sec)
Heartbeat CPU 3 instructions: 10000001 cycles: 2502909 heartbeat IPC: 3.995 cumulative IPC: 3.995 (Simulation time: 00 hr 02 min 30 sec)
Heartbeat CPU 2 instructions: 10000003 cycles: 3063388 heartbeat IPC: 3.264 cumulative IPC: 3.264 (Simulation time: 00 hr 03 min 05 sec)
Heartbeat CPU 0 instructions: 10000002 cycles: 4174609 heartbeat IPC: 2.395 cumulative IPC: 2.395 (Simulation time: 00 hr 04 min 14 sec)
Heartbeat CPU 1 instructions: 20000003 cycles: 5000045 heartbeat IPC: 4 cumulative IPC: 4 (Simulation time: 00 hr 05 min 06 sec)
Heartbeat CPU 3 instructions: 20000001 cycles: 5005630 heartbeat IPC: 3.996 cumulative IPC: 3.996 (Simulation time: 00 hr 05 min 06 sec)
Heartbeat CPU 2 instructions: 20000002 cycles: 5749151 heartbeat IPC: 3.723 cumulative IPC: 3.479 (Simulation time: 00 hr 05 min 53 sec)
Heartbeat CPU 1 instructions: 30000003 cycles: 7500045 heartbeat IPC: 4 cumulative IPC: 4 (Simulation time: 00 hr 07 min 47 sec)
Heartbeat CPU 3 instructions: 30000003 cycles: 7507965 heartbeat IPC: 3.996 cumulative IPC: 3.996 (Simulation time: 00 hr 07 min 47 sec)
Heartbeat CPU 0 instructions: 20000003 cycles: 8346640 heartbeat IPC: 2.397 cumulative IPC: 2.396 (Simulation time: 00 hr 08 min 41 sec)
Heartbeat CPU 2 instructions: 30000000 cycles: 8968276 heartbeat IPC: 3.106 cumulative IPC: 3.345 (Simulation time: 00 hr 09 min 21 sec)
Heartbeat CPU 1 instructions: 40000003 cycles: 10000045 heartbeat IPC: 4 cumulative IPC: 4 (Simulation time: 00 hr 10 min 27 sec)
Heartbeat CPU 3 instructions: 40000002 cycles: 10010596 heartbeat IPC: 3.996 cumulative IPC: 3.996 (Simulation time: 00 hr 10 min 28 sec)
Heartbeat CPU 2 instructions: 40000004 cycles: 12221122 heartbeat IPC: 3.074 cumulative IPC: 3.273 (Simulation time: 00 hr 12 min 49 sec)
Heartbeat CPU 1 instructions: 50000003 cycles: 12500045 heartbeat IPC: 4 cumulative IPC: 4 (Simulation time: 00 hr 13 min 06 sec)
Warmup finished CPU 1 instructions: 50000003 cycles: 12500046 cumulative IPC: 4 (Simulation time: 00 hr 13 min 06 sec)
Heartbeat CPU 3 instructions: 50000003 cycles: 12513280 heartbeat IPC: 3.996 cumulative IPC: 3.996 (Simulation time: 00 hr 13 min 07 sec)
Warmup finished CPU 3 instructions: 50000003 cycles: 12513281 cumulative IPC: 3.996 (Simulation time: 00 hr 13 min 07 sec)
Heartbeat CPU 0 instructions: 30000001 cycles: 12518873 heartbeat IPC: 2.397 cumulative IPC: 2.396 (Simulation time: 00 hr 13 min 07 sec)
Heartbeat CPU 1 instructions: 60000003 cycles: 15000045 heartbeat IPC: 4 cumulative IPC: 4 (Simulation time: 00 hr 15 min 44 sec)
Heartbeat CPU 3 instructions: 60000001 cycles: 15015994 heartbeat IPC: 3.996 cumulative IPC: 3.996 (Simulation time: 00 hr 15 min 45 sec)
Heartbeat CPU 2 instructions: 50000002 cycles: 15376231 heartbeat IPC: 3.169 cumulative IPC: 3.252 (Simulation time: 00 hr 16 min 08 sec)
Warmup finished CPU 2 instructions: 50000002 cycles: 15376232 cumulative IPC: 3.252 (Simulation time: 00 hr 16 min 08 sec)
Heartbeat CPU 0 instructions: 40000000 cycles: 16705569 heartbeat IPC: 2.389 cumulative IPC: 2.394 (Simulation time: 00 hr 17 min 31 sec)
Heartbeat CPU 1 instructions: 70000003 cycles: 17500045 heartbeat IPC: 4 cumulative IPC: 4 (Simulation time: 00 hr 18 min 19 sec)
Heartbeat CPU 3 instructions: 70000003 cycles: 17520811 heartbeat IPC: 3.992 cumulative IPC: 3.995 (Simulation time: 00 hr 18 min 21 sec)
Heartbeat CPU 2 instructions: 60000002 cycles: 18084016 heartbeat IPC: 3.693 cumulative IPC: 3.318 (Simulation time: 00 hr 18 min 56 sec)
Heartbeat CPU 1 instructions: 80000003 cycles: 20000045 heartbeat IPC: 4 cumulative IPC: 4 (Simulation time: 00 hr 20 min 56 sec)
Heartbeat CPU 3 instructions: 80000000 cycles: 20023022 heartbeat IPC: 3.996 cumulative IPC: 3.995 (Simulation time: 00 hr 20 min 58 sec)
Heartbeat CPU 2 instructions: 70000001 cycles: 20811270 heartbeat IPC: 3.667 cumulative IPC: 3.364 (Simulation time: 00 hr 21 min 46 sec)
Heartbeat CPU 0 instructions: 50000003 cycles: 20870998 heartbeat IPC: 2.401 cumulative IPC: 2.396 (Simulation time: 00 hr 21 min 50 sec)
Warmup finished CPU 0 instructions: 50000003 cycles: 20870999 cumulative IPC: 2.396 (Simulation time: 00 hr 21 min 50 sec)
Warmup complete CPU 0 instructions: 50000003 cycles: 20870999 cumulative IPC: 2.396 (Simulation time: 00 hr 21 min 50 sec)
Warmup complete CPU 1 instructions: 83483815 cycles: 20870999 cumulative IPC: 4 (Simulation time: 00 hr 21 min 50 sec)
Warmup complete CPU 2 instructions: 70203413 cycles: 20870999 cumulative IPC: 3.364 (Simulation time: 00 hr 21 min 50 sec)
Warmup complete CPU 3 instructions: 83391904 cycles: 20870999 cumulative IPC: 3.996 (Simulation time: 00 hr 21 min 50 sec)
Heartbeat CPU 3 instructions: 90000004 cycles: 23980225 heartbeat IPC: 2.527 cumulative IPC: 2.125 (Simulation time: 00 hr 23 min 29 sec)
Heartbeat CPU 1 instructions: 90000004 cycles: 28167613 heartbeat IPC: 1.224 cumulative IPC: 0.893 (Simulation time: 00 hr 25 min 54 sec)
Heartbeat CPU 3 instructions: 100000000 cycles: 28695575 heartbeat IPC: 2.121 cumulative IPC: 2.123 (Simulation time: 00 hr 26 min 14 sec)
Heartbeat CPU 2 instructions: 80000001 cycles: 31346098 heartbeat IPC: 0.9492 cumulative IPC: 0.9352 (Simulation time: 00 hr 27 min 47 sec)
Heartbeat CPU 3 instructions: 110000001 cycles: 33399512 heartbeat IPC: 2.126 cumulative IPC: 2.124 (Simulation time: 00 hr 29 min 00 sec)
Heartbeat CPU 3 instructions: 120000000 cycles: 38025930 heartbeat IPC: 2.161 cumulative IPC: 2.134 (Simulation time: 00 hr 31 min 41 sec)
Heartbeat CPU 2 instructions: 90000001 cycles: 38649764 heartbeat IPC: 1.369 cumulative IPC: 1.113 (Simulation time: 00 hr 32 min 04 sec)
Heartbeat CPU 1 instructions: 100000004 cycles: 39276087 heartbeat IPC: 0.9002 cumulative IPC: 0.8974 (Simulation time: 00 hr 32 min 25 sec)
Heartbeat CPU 3 instructions: 130000002 cycles: 42683453 heartbeat IPC: 2.147 cumulative IPC: 2.137 (Simulation time: 00 hr 34 min 15 sec)
Heartbeat CPU 3 instructions: 140000000 cycles: 47373801 heartbeat IPC: 2.132 cumulative IPC: 2.136 (Simulation time: 00 hr 36 min 59 sec)
Heartbeat CPU 2 instructions: 100000002 cycles: 48352962 heartbeat IPC: 1.031 cumulative IPC: 1.084 (Simulation time: 00 hr 37 min 32 sec)
Heartbeat CPU 1 instructions: 110000000 cycles: 51348936 heartbeat IPC: 0.8283 cumulative IPC: 0.87 (Simulation time: 00 hr 39 min 14 sec)
Heartbeat CPU 3 instructions: 150000004 cycles: 51989443 heartbeat IPC: 2.167 cumulative IPC: 2.14 (Simulation time: 00 hr 39 min 37 sec)
Heartbeat CPU 3 instructions: 160000003 cycles: 56609114 heartbeat IPC: 2.165 cumulative IPC: 2.144 (Simulation time: 00 hr 42 min 15 sec)
Heartbeat CPU 2 instructions: 110000004 cycles: 56917253 heartbeat IPC: 1.168 cumulative IPC: 1.104 (Simulation time: 00 hr 42 min 25 sec)
Heartbeat CPU 3 instructions: 170000003 cycles: 61208905 heartbeat IPC: 2.174 cumulative IPC: 2.147 (Simulation time: 00 hr 44 min 50 sec)
Heartbeat CPU 1 instructions: 120000004 cycles: 64167405 heartbeat IPC: 0.7801 cumulative IPC: 0.8434 (Simulation time: 00 hr 46 min 32 sec)
Heartbeat CPU 2 instructions: 120000000 cycles: 65301255 heartbeat IPC: 1.193 cumulative IPC: 1.121 (Simulation time: 00 hr 47 min 13 sec)
Heartbeat CPU 3 instructions: 180000004 cycles: 65818872 heartbeat IPC: 2.169 cumulative IPC: 2.149 (Simulation time: 00 hr 47 min 32 sec)
Heartbeat CPU 3 instructions: 190000002 cycles: 70441786 heartbeat IPC: 2.163 cumulative IPC: 2.151 (Simulation time: 00 hr 50 min 13 sec)
Heartbeat CPU 2 instructions: 130000001 cycles: 72284142 heartbeat IPC: 1.432 cumulative IPC: 1.163 (Simulation time: 00 hr 51 min 23 sec)
Heartbeat CPU 3 instructions: 200000000 cycles: 75082111 heartbeat IPC: 2.155 cumulative IPC: 2.151 (Simulation time: 00 hr 53 min 05 sec)
Heartbeat CPU 1 instructions: 130000002 cycles: 75816740 heartbeat IPC: 0.8584 cumulative IPC: 0.8466 (Simulation time: 00 hr 53 min 32 sec)
Heartbeat CPU 3 instructions: 210000000 cycles: 79667668 heartbeat IPC: 2.181 cumulative IPC: 2.153 (Simulation time: 00 hr 55 min 50 sec)
Heartbeat CPU 2 instructions: 140000000 cycles: 80421917 heartbeat IPC: 1.229 cumulative IPC: 1.172 (Simulation time: 00 hr 56 min 16 sec)
Heartbeat CPU 0 instructions: 60000003 cycles: 80611283 heartbeat IPC: 0.1674 cumulative IPC: 0.1674 (Simulation time: 00 hr 56 min 23 sec)
Heartbeat CPU 3 instructions: 220000000 cycles: 84252539 heartbeat IPC: 2.181 cumulative IPC: 2.155 (Simulation time: 00 hr 58 min 12 sec)
Heartbeat CPU 1 instructions: 140000000 cycles: 87564283 heartbeat IPC: 0.8512 cumulative IPC: 0.8474 (Simulation time: 01 hr 00 min 04 sec)
Heartbeat CPU 3 instructions: 230000001 cycles: 88841656 heartbeat IPC: 2.179 cumulative IPC: 2.157 (Simulation time: 01 hr 00 min 49 sec)
Simulation finished CPU 3 instructions: 150000000 cycles: 69547834 cumulative IPC: 2.157 (Simulation time: 01 hr 01 min 42 sec)
Heartbeat CPU 2 instructions: 150000000 cycles: 91591857 heartbeat IPC: 0.8953 cumulative IPC: 1.128 (Simulation time: 01 hr 02 min 22 sec)
Heartbeat CPU 3 instructions: 240000000 cycles: 93463514 heartbeat IPC: 2.164 cumulative IPC: 2.157 (Simulation time: 01 hr 03 min 28 sec)
Heartbeat CPU 3 instructions: 250000002 cycles: 98093850 heartbeat IPC: 2.16 cumulative IPC: 2.157 (Simulation time: 01 hr 06 min 30 sec)
Heartbeat CPU 1 instructions: 150000002 cycles: 98909818 heartbeat IPC: 0.8814 cumulative IPC: 0.8523 (Simulation time: 01 hr 06 min 58 sec)
Heartbeat CPU 2 instructions: 160000002 cycles: 101352449 heartbeat IPC: 1.025 cumulative IPC: 1.116 (Simulation time: 01 hr 08 min 21 sec)
Heartbeat CPU 3 instructions: 260000000 cycles: 102755279 heartbeat IPC: 2.145 cumulative IPC: 2.157 (Simulation time: 01 hr 09 min 17 sec)
Heartbeat CPU 3 instructions: 270000000 cycles: 107389180 heartbeat IPC: 2.158 cumulative IPC: 2.157 (Simulation time: 01 hr 12 min 21 sec)
Heartbeat CPU 2 instructions: 170000004 cycles: 108766658 heartbeat IPC: 1.349 cumulative IPC: 1.135 (Simulation time: 01 hr 13 min 13 sec)
Heartbeat CPU 1 instructions: 160000004 cycles: 110451935 heartbeat IPC: 0.8664 cumulative IPC: 0.8542 (Simulation time: 01 hr 14 min 19 sec)
Heartbeat CPU 3 instructions: 280000001 cycles: 112033477 heartbeat IPC: 2.153 cumulative IPC: 2.157 (Simulation time: 01 hr 15 min 23 sec)
Heartbeat CPU 3 instructions: 290000004 cycles: 116688347 heartbeat IPC: 2.148 cumulative IPC: 2.156 (Simulation time: 01 hr 18 min 50 sec)
Heartbeat CPU 2 instructions: 180000002 cycles: 117018356 heartbeat IPC: 1.212 cumulative IPC: 1.142 (Simulation time: 01 hr 19 min 07 sec)
Heartbeat CPU 3 instructions: 300000000 cycles: 121313655 heartbeat IPC: 2.162 cumulative IPC: 2.157 (Simulation time: 01 hr 22 min 47 sec)
Heartbeat CPU 1 instructions: 170000003 cycles: 123214005 heartbeat IPC: 0.7836 cumulative IPC: 0.8454 (Simulation time: 01 hr 24 min 30 sec)
Heartbeat CPU 2 instructions: 190000003 cycles: 125350405 heartbeat IPC: 1.2 cumulative IPC: 1.147 (Simulation time: 01 hr 26 min 26 sec)
Heartbeat CPU 3 instructions: 310000001 cycles: 125945035 heartbeat IPC: 2.159 cumulative IPC: 2.157 (Simulation time: 01 hr 26 min 56 sec)
Heartbeat CPU 3 instructions: 320000001 cycles: 130573856 heartbeat IPC: 2.16 cumulative IPC: 2.157 (Simulation time: 01 hr 30 min 49 sec)
Heartbeat CPU 2 instructions: 200000002 cycles: 133100594 heartbeat IPC: 1.29 cumulative IPC: 1.157 (Simulation time: 01 hr 32 min 49 sec)
Heartbeat CPU 3 instructions: 330000001 cycles: 135217090 heartbeat IPC: 2.154 cumulative IPC: 2.157 (Simulation time: 01 hr 34 min 22 sec)
Heartbeat CPU 1 instructions: 180000000 cycles: 136187208 heartbeat IPC: 0.7708 cumulative IPC: 0.837 (Simulation time: 01 hr 34 min 58 sec)
Heartbeat CPU 2 instructions: 210000001 cycles: 140484320 heartbeat IPC: 1.354 cumulative IPC: 1.169 (Simulation time: 01 hr 37 min 32 sec)
Heartbeat CPU 3 instructions: 340000000 cycles: 142112590 heartbeat IPC: 1.45 cumulative IPC: 2.117 (Simulation time: 01 hr 38 min 29 sec)
Heartbeat CPU 0 instructions: 70000002 cycles: 144134403 heartbeat IPC: 0.1574 cumulative IPC: 0.1623 (Simulation time: 01 hr 39 min 40 sec)
Heartbeat CPU 3 instructions: 350000002 cycles: 147650654 heartbeat IPC: 1.806 cumulative IPC: 2.103 (Simulation time: 01 hr 41 min 36 sec)
Heartbeat CPU 1 instructions: 190000001 cycles: 149187857 heartbeat IPC: 0.7692 cumulative IPC: 0.8301 (Simulation time: 01 hr 42 min 24 sec)
Heartbeat CPU 3 instructions: 360000003 cycles: 153103440 heartbeat IPC: 1.834 cumulative IPC: 2.092 (Simulation time: 01 hr 44 min 41 sec)
Heartbeat CPU 2 instructions: 220000000 cycles: 153368869 heartbeat IPC: 0.7761 cumulative IPC: 1.131 (Simulation time: 01 hr 44 min 50 sec)
Simulation finished CPU 2 instructions: 150000001 cycles: 132691313 cumulative IPC: 1.13 (Simulation time: 01 hr 44 min 58 sec)
Heartbeat CPU 3 instructions: 370000000 cycles: 158372938 heartbeat IPC: 1.898 cumulative IPC: 2.084 (Simulation time: 01 hr 48 min 20 sec)
Heartbeat CPU 2 instructions: 230000000 cycles: 162889202 heartbeat IPC: 1.05 cumulative IPC: 1.125 (Simulation time: 01 hr 51 min 32 sec)
Heartbeat CPU 3 instructions: 380000002 cycles: 163633953 heartbeat IPC: 1.901 cumulative IPC: 2.078 (Simulation time: 01 hr 51 min 59 sec)
Heartbeat CPU 1 instructions: 200000000 cycles: 164037181 heartbeat IPC: 0.6734 cumulative IPC: 0.8139 (Simulation time: 01 hr 52 min 13 sec)
Heartbeat CPU 2 instructions: 240000001 cycles: 175169531 heartbeat IPC: 0.8143 cumulative IPC: 1.1 (Simulation time: 01 hr 58 min 52 sec)
Heartbeat CPU 3 instructions: 390000001 cycles: 188091076 heartbeat IPC: 0.4089 cumulative IPC: 1.834 (Simulation time: 02 hr 05 min 46 sec)
Heartbeat CPU 2 instructions: 250000001 cycles: 188855996 heartbeat IPC: 0.7306 cumulative IPC: 1.07 (Simulation time: 02 hr 06 min 14 sec)
Heartbeat CPU 1 instructions: 210000001 cycles: 193302912 heartbeat IPC: 0.3417 cumulative IPC: 0.7337 (Simulation time: 02 hr 08 min 51 sec)
Heartbeat CPU 3 instructions: 400000003 cycles: 193989824 heartbeat IPC: 1.695 cumulative IPC: 1.829 (Simulation time: 02 hr 09 min 13 sec)
Heartbeat CPU 2 instructions: 260000002 cycles: 198047417 heartbeat IPC: 1.088 cumulative IPC: 1.071 (Simulation time: 02 hr 11 min 27 sec)
Heartbeat CPU 3 instructions: 410000003 cycles: 200140275 heartbeat IPC: 1.626 cumulative IPC: 1.822 (Simulation time: 02 hr 12 min 29 sec)
Heartbeat CPU 2 instructions: 270000000 cycles: 205555796 heartbeat IPC: 1.332 cumulative IPC: 1.082 (Simulation time: 02 hr 15 min 46 sec)
Heartbeat CPU 3 instructions: 420000001 cycles: 205996499 heartbeat IPC: 1.708 cumulative IPC: 1.818 (Simulation time: 02 hr 16 min 02 sec)
Heartbeat CPU 1 instructions: 220000004 cycles: 207002459 heartbeat IPC: 0.73 cumulative IPC: 0.7334 (Simulation time: 02 hr 16 min 37 sec)
Heartbeat CPU 3 instructions: 430000004 cycles: 211760876 heartbeat IPC: 1.735 cumulative IPC: 1.816 (Simulation time: 02 hr 19 min 26 sec)
Heartbeat CPU 2 instructions: 280000000 cycles: 212806515 heartbeat IPC: 1.379 cumulative IPC: 1.093 (Simulation time: 02 hr 20 min 01 sec)
Heartbeat CPU 3 instructions: 440000004 cycles: 217529864 heartbeat IPC: 1.733 cumulative IPC: 1.813 (Simulation time: 02 hr 22 min 47 sec)
Heartbeat CPU 1 instructions: 230000001 cycles: 219851541 heartbeat IPC: 0.7783 cumulative IPC: 0.7363 (Simulation time: 02 hr 24 min 04 sec)
Heartbeat CPU 2 instructions: 290000003 cycles: 221611289 heartbeat IPC: 1.136 cumulative IPC: 1.095 (Simulation time: 02 hr 25 min 06 sec)
Heartbeat CPU 3 instructions: 450000000 cycles: 223766107 heartbeat IPC: 1.604 cumulative IPC: 1.807 (Simulation time: 02 hr 26 min 15 sec)
Simulation finished CPU 1 instructions: 150000000 cycles: 203525620 cumulative IPC: 0.737 (Simulation time: 02 hr 26 min 37 sec)
Heartbeat CPU 3 instructions: 460000001 cycles: 229770975 heartbeat IPC: 1.665 cumulative IPC: 1.803 (Simulation time: 02 hr 29 min 17 sec)
Heartbeat CPU 0 instructions: 80000002 cycles: 232617829 heartbeat IPC: 0.113 cumulative IPC: 0.1417 (Simulation time: 02 hr 30 min 45 sec)
Heartbeat CPU 1 instructions: 240000004 cycles: 233462970 heartbeat IPC: 0.7347 cumulative IPC: 0.7362 (Simulation time: 02 hr 31 min 13 sec)
Heartbeat CPU 3 instructions: 470000001 cycles: 235566356 heartbeat IPC: 1.726 cumulative IPC: 1.801 (Simulation time: 02 hr 32 min 25 sec)
Heartbeat CPU 2 instructions: 300000001 cycles: 235667387 heartbeat IPC: 0.7114 cumulative IPC: 1.07 (Simulation time: 02 hr 32 min 28 sec)
Heartbeat CPU 3 instructions: 480000000 cycles: 241789389 heartbeat IPC: 1.607 cumulative IPC: 1.795 (Simulation time: 02 hr 35 min 46 sec)
Heartbeat CPU 2 instructions: 310000001 cycles: 245380225 heartbeat IPC: 1.03 cumulative IPC: 1.068 (Simulation time: 02 hr 37 min 40 sec)
Heartbeat CPU 1 instructions: 250000004 cycles: 248958382 heartbeat IPC: 0.6454 cumulative IPC: 0.7301 (Simulation time: 02 hr 39 min 26 sec)
Heartbeat CPU 3 instructions: 490000002 cycles: 251250015 heartbeat IPC: 1.057 cumulative IPC: 1.765 (Simulation time: 02 hr 40 min 48 sec)
Heartbeat CPU 2 instructions: 320000001 cycles: 258712170 heartbeat IPC: 0.7501 cumulative IPC: 1.05 (Simulation time: 02 hr 44 min 33 sec)
Heartbeat CPU 3 instructions: 500000001 cycles: 259086833 heartbeat IPC: 1.276 cumulative IPC: 1.749 (Simulation time: 02 hr 44 min 45 sec)
Heartbeat CPU 1 instructions: 260000000 cycles: 266190352 heartbeat IPC: 0.5803 cumulative IPC: 0.7195 (Simulation time: 02 hr 48 min 27 sec)
Heartbeat CPU 3 instructions: 510000002 cycles: 266727439 heartbeat IPC: 1.309 cumulative IPC: 1.735 (Simulation time: 02 hr 48 min 44 sec)
Heartbeat CPU 2 instructions: 330000000 cycles: 270391157 heartbeat IPC: 0.8562 cumulative IPC: 1.041 (Simulation time: 02 hr 50 min 39 sec)
Heartbeat CPU 3 instructions: 520000004 cycles: 274572296 heartbeat IPC: 1.275 cumulative IPC: 1.721 (Simulation time: 02 hr 52 min 52 sec)
Heartbeat CPU 2 instructions: 340000000 cycles: 281086489 heartbeat IPC: 0.935 cumulative IPC: 1.037 (Simulation time: 02 hr 56 min 20 sec)
Heartbeat CPU 3 instructions: 530000003 cycles: 282225682 heartbeat IPC: 1.307 cumulative IPC: 1.709 (Simulation time: 02 hr 56 min 56 sec)
Heartbeat CPU 1 instructions: 270000003 cycles: 283637576 heartbeat IPC: 0.5732 cumulative IPC: 0.7098 (Simulation time: 02 hr 57 min 43 sec)
Heartbeat CPU 3 instructions: 540000000 cycles: 289509467 heartbeat IPC: 1.373 cumulative IPC: 1.7 (Simulation time: 03 hr 00 min 59 sec)
Heartbeat CPU 2 instructions: 350000003 cycles: 290701071 heartbeat IPC: 1.04 cumulative IPC: 1.037 (Simulation time: 03 hr 01 min 37 sec)
Heartbeat CPU 3 instructions: 550000002 cycles: 296938600 heartbeat IPC: 1.346 cumulative IPC: 1.69 (Simulation time: 03 hr 05 min 01 sec)
Heartbeat CPU 1 instructions: 280000003 cycles: 298060900 heartbeat IPC: 0.6933 cumulative IPC: 0.709 (Simulation time: 03 hr 05 min 39 sec)
Heartbeat CPU 2 instructions: 360000001 cycles: 300146991 heartbeat IPC: 1.059 cumulative IPC: 1.038 (Simulation time: 03 hr 06 min 49 sec)
Heartbeat CPU 3 instructions: 560000001 cycles: 304402546 heartbeat IPC: 1.34 cumulative IPC: 1.681 (Simulation time: 03 hr 09 min 08 sec)
Heartbeat CPU 2 instructions: 370000000 cycles: 309960753 heartbeat IPC: 1.019 cumulative IPC: 1.037 (Simulation time: 03 hr 12 min 12 sec)
Heartbeat CPU 3 instructions: 570000004 cycles: 311979239 heartbeat IPC: 1.32 cumulative IPC: 1.672 (Simulation time: 03 hr 13 min 23 sec)
Heartbeat CPU 1 instructions: 290000001 cycles: 315460970 heartbeat IPC: 0.5747 cumulative IPC: 0.701 (Simulation time: 03 hr 15 min 20 sec)
Heartbeat CPU 2 instructions: 380000003 cycles: 317690429 heartbeat IPC: 1.294 cumulative IPC: 1.044 (Simulation time: 03 hr 16 min 39 sec)
Heartbeat CPU 0 instructions: 90000001 cycles: 318703744 heartbeat IPC: 0.1162 cumulative IPC: 0.1343 (Simulation time: 03 hr 17 min 13 sec)
Heartbeat CPU 3 instructions: 580000000 cycles: 319281927 heartbeat IPC: 1.369 cumulative IPC: 1.664 (Simulation time: 03 hr 17 min 37 sec)
Heartbeat CPU 2 instructions: 390000000 cycles: 324643548 heartbeat IPC: 1.438 cumulative IPC: 1.053 (Simulation time: 03 hr 21 min 47 sec)
Heartbeat CPU 3 instructions: 590000001 cycles: 326384662 heartbeat IPC: 1.408 cumulative IPC: 1.658 (Simulation time: 03 hr 22 min 46 sec)
Heartbeat CPU 1 instructions: 300000004 cycles: 328724327 heartbeat IPC: 0.754 cumulative IPC: 0.7033 (Simulation time: 03 hr 24 min 11 sec)
Heartbeat CPU 2 instructions: 400000000 cycles: 332232889 heartbeat IPC: 1.318 cumulative IPC: 1.059 (Simulation time: 03 hr 27 min 04 sec)
Heartbeat CPU 3 instructions: 600000000 cycles: 333322865 heartbeat IPC: 1.441 cumulative IPC: 1.653 (Simulation time: 03 hr 27 min 56 sec)
Heartbeat CPU 3 instructions: 610000000 cycles: 340580348 heartbeat IPC: 1.378 cumulative IPC: 1.647 (Simulation time: 03 hr 33 min 17 sec)
Heartbeat CPU 2 instructions: 410000001 cycles: 341093233 heartbeat IPC: 1.129 cumulative IPC: 1.061 (Simulation time: 03 hr 33 min 41 sec)
Heartbeat CPU 1 instructions: 310000003 cycles: 342759241 heartbeat IPC: 0.7125 cumulative IPC: 0.7037 (Simulation time: 03 hr 34 min 57 sec)
Heartbeat CPU 2 instructions: 420000002 cycles: 359228729 heartbeat IPC: 0.5514 cumulative IPC: 1.034 (Simulation time: 03 hr 44 min 15 sec)
Heartbeat CPU 1 instructions: 320000002 cycles: 364505776 heartbeat IPC: 0.4598 cumulative IPC: 0.6883 (Simulation time: 03 hr 46 min 50 sec)
Heartbeat CPU 2 instructions: 430000002 cycles: 371591474 heartbeat IPC: 0.8089 cumulative IPC: 1.026 (Simulation time: 03 hr 51 min 14 sec)
Heartbeat CPU 3 instructions: 620000003 cycles: 372841660 heartbeat IPC: 0.31 cumulative IPC: 1.525 (Simulation time: 03 hr 52 min 06 sec)
Heartbeat CPU 2 instructions: 440000000 cycles: 384075478 heartbeat IPC: 0.801 cumulative IPC: 1.018 (Simulation time: 03 hr 59 min 33 sec)
Heartbeat CPU 1 instructions: 330000002 cycles: 394135675 heartbeat IPC: 0.3375 cumulative IPC: 0.6604 (Simulation time: 04 hr 04 min 47 sec)
Heartbeat CPU 3 instructions: 630000003 cycles: 396480528 heartbeat IPC: 0.423 cumulative IPC: 1.455 (Simulation time: 04 hr 05 min 59 sec)
Heartbeat CPU 2 instructions: 450000001 cycles: 396736848 heartbeat IPC: 0.7898 cumulative IPC: 1.01 (Simulation time: 04 hr 06 min 12 sec)
Heartbeat CPU 2 instructions: 460000002 cycles: 406234816 heartbeat IPC: 1.053 cumulative IPC: 1.012 (Simulation time: 04 hr 11 min 52 sec)
Heartbeat CPU 3 instructions: 640000000 cycles: 412012344 heartbeat IPC: 0.6438 cumulative IPC: 1.423 (Simulation time: 04 hr 15 min 07 sec)
Heartbeat CPU 1 instructions: 340000004 cycles: 413401250 heartbeat IPC: 0.5191 cumulative IPC: 0.6535 (Simulation time: 04 hr 15 min 49 sec)
Heartbeat CPU 2 instructions: 470000003 cycles: 423949664 heartbeat IPC: 0.5645 cumulative IPC: 0.9919 (Simulation time: 04 hr 21 min 15 sec)
Heartbeat CPU 0 instructions: 100000000 cycles: 429741778 heartbeat IPC: 0.09006 cumulative IPC: 0.1223 (Simulation time: 04 hr 24 min 33 sec)
Heartbeat CPU 3 instructions: 650000001 cycles: 430637375 heartbeat IPC: 0.5369 cumulative IPC: 1.383 (Simulation time: 04 hr 25 min 06 sec)
Heartbeat CPU 1 instructions: 350000004 cycles: 432291275 heartbeat IPC: 0.5294 cumulative IPC: 0.6478 (Simulation time: 04 hr 25 min 56 sec)
Heartbeat CPU 2 instructions: 480000002 cycles: 434345828 heartbeat IPC: 0.9619 cumulative IPC: 0.9911 (Simulation time: 04 hr 27 min 06 sec)
Heartbeat CPU 3 instructions: 660000001 cycles: 439345746 heartbeat IPC: 1.148 cumulative IPC: 1.378 (Simulation time: 04 hr 29 min 55 sec)
Heartbeat CPU 2 instructions: 490000002 cycles: 443694139 heartbeat IPC: 1.07 cumulative IPC: 0.9928 (Simulation time: 04 hr 32 min 13 sec)
Heartbeat CPU 1 instructions: 360000001 cycles: 452734618 heartbeat IPC: 0.4892 cumulative IPC: 0.6403 (Simulation time: 04 hr 36 min 46 sec)
Heartbeat CPU 3 instructions: 670000001 cycles: 454612447 heartbeat IPC: 0.655 cumulative IPC: 1.352 (Simulation time: 04 hr 37 min 39 sec)
Heartbeat CPU 2 instructions: 500000000 cycles: 463088821 heartbeat IPC: 0.5156 cumulative IPC: 0.9719 (Simulation time: 04 hr 41 min 13 sec)
Heartbeat CPU 2 instructions: 510000001 cycles: 480211031 heartbeat IPC: 0.584 cumulative IPC: 0.9575 (Simulation time: 04 hr 48 min 51 sec)
Heartbeat CPU 1 instructions: 370000000 cycles: 483224921 heartbeat IPC: 0.328 cumulative IPC: 0.6197 (Simulation time: 04 hr 50 min 21 sec)
Heartbeat CPU 2 instructions: 520000000 cycles: 494571598 heartbeat IPC: 0.6964 cumulative IPC: 0.9495 (Simulation time: 04 hr 55 min 51 sec)
Heartbeat CPU 2 instructions: 530000001 cycles: 507041607 heartbeat IPC: 0.8019 cumulative IPC: 0.9458 (Simulation time: 05 hr 01 min 50 sec)
Heartbeat CPU 3 instructions: 680000001 cycles: 507873962 heartbeat IPC: 0.1878 cumulative IPC: 1.225 (Simulation time: 05 hr 02 min 16 sec)
Heartbeat CPU 1 instructions: 380000000 cycles: 512062117 heartbeat IPC: 0.3468 cumulative IPC: 0.6037 (Simulation time: 05 hr 04 min 32 sec)
Heartbeat CPU 2 instructions: 540000000 cycles: 516837415 heartbeat IPC: 1.021 cumulative IPC: 0.9472 (Simulation time: 05 hr 07 min 16 sec)
Heartbeat CPU 3 instructions: 690000001 cycles: 516880804 heartbeat IPC: 1.11 cumulative IPC: 1.223 (Simulation time: 05 hr 07 min 18 sec)
Heartbeat CPU 2 instructions: 550000004 cycles: 526745631 heartbeat IPC: 1.009 cumulative IPC: 0.9484 (Simulation time: 05 hr 12 min 29 sec)
Heartbeat CPU 3 instructions: 700000003 cycles: 528549843 heartbeat IPC: 0.857 cumulative IPC: 1.215 (Simulation time: 05 hr 13 min 30 sec)
Heartbeat CPU 1 instructions: 390000001 cycles: 530895005 heartbeat IPC: 0.531 cumulative IPC: 0.601 (Simulation time: 05 hr 14 min 50 sec)
Heartbeat CPU 2 instructions: 560000001 cycles: 536245247 heartbeat IPC: 1.053 cumulative IPC: 0.9504 (Simulation time: 05 hr 17 min 39 sec)
Heartbeat CPU 3 instructions: 710000002 cycles: 539020331 heartbeat IPC: 0.9551 cumulative IPC: 1.209 (Simulation time: 05 hr 19 min 12 sec)
Heartbeat CPU 2 instructions: 570000004 cycles: 542716710 heartbeat IPC: 1.545 cumulative IPC: 0.9577 (Simulation time: 05 hr 21 min 23 sec)
Heartbeat CPU 1 instructions: 400000000 cycles: 546290170 heartbeat IPC: 0.6496 cumulative IPC: 0.6024 (Simulation time: 05 hr 23 min 34 sec)
Heartbeat CPU 3 instructions: 720000003 cycles: 546670337 heartbeat IPC: 1.307 cumulative IPC: 1.211 (Simulation time: 05 hr 23 min 49 sec)
Heartbeat CPU 2 instructions: 580000000 cycles: 549116213 heartbeat IPC: 1.563 cumulative IPC: 0.9651 (Simulation time: 05 hr 25 min 14 sec)
Heartbeat CPU 0 instructions: 110000004 cycles: 550109376 heartbeat IPC: 0.08308 cumulative IPC: 0.1134 (Simulation time: 05 hr 25 min 47 sec)
Heartbeat CPU 2 instructions: 590000001 cycles: 555913661 heartbeat IPC: 1.471 cumulative IPC: 0.9715 (Simulation time: 05 hr 29 min 03 sec)
Heartbeat CPU 3 instructions: 730000001 cycles: 556834926 heartbeat IPC: 0.9838 cumulative IPC: 1.206 (Simulation time: 05 hr 29 min 35 sec)
Heartbeat CPU 1 instructions: 410000001 cycles: 559669171 heartbeat IPC: 0.7474 cumulative IPC: 0.606 (Simulation time: 05 hr 31 min 16 sec)
Heartbeat CPU 2 instructions: 600000000 cycles: 563662175 heartbeat IPC: 1.291 cumulative IPC: 0.9761 (Simulation time: 05 hr 33 min 24 sec)
Heartbeat CPU 3 instructions: 740000000 cycles: 569788442 heartbeat IPC: 0.772 cumulative IPC: 1.196 (Simulation time: 05 hr 36 min 26 sec)
Heartbeat CPU 2 instructions: 610000000 cycles: 573092685 heartbeat IPC: 1.06 cumulative IPC: 0.9775 (Simulation time: 05 hr 38 min 11 sec)
Heartbeat CPU 1 instructions: 420000002 cycles: 574937029 heartbeat IPC: 0.655 cumulative IPC: 0.6074 (Simulation time: 05 hr 39 min 09 sec)
Heartbeat CPU 2 instructions: 620000000 cycles: 588838942 heartbeat IPC: 0.6351 cumulative IPC: 0.968 (Simulation time: 05 hr 45 min 40 sec)
Heartbeat CPU 3 instructions: 750000003 cycles: 592572138 heartbeat IPC: 0.4389 cumulative IPC: 1.166 (Simulation time: 05 hr 47 min 31 sec)
Heartbeat CPU 1 instructions: 430000000 cycles: 593215010 heartbeat IPC: 0.5471 cumulative IPC: 0.6054 (Simulation time: 05 hr 47 min 50 sec)
Heartbeat CPU 2 instructions: 630000002 cycles: 601217099 heartbeat IPC: 0.8079 cumulative IPC: 0.9646 (Simulation time: 05 hr 51 min 47 sec)
Heartbeat CPU 3 instructions: 760000000 cycles: 604453353 heartbeat IPC: 0.8417 cumulative IPC: 1.159 (Simulation time: 05 hr 53 min 28 sec)
Heartbeat CPU 1 instructions: 440000000 cycles: 611900592 heartbeat IPC: 0.5352 cumulative IPC: 0.6032 (Simulation time: 05 hr 57 min 11 sec)
Heartbeat CPU 2 instructions: 640000002 cycles: 612773279 heartbeat IPC: 0.8653 cumulative IPC: 0.9627 (Simulation time: 05 hr 57 min 36 sec)
Heartbeat CPU 2 instructions: 650000000 cycles: 624576762 heartbeat IPC: 0.8472 cumulative IPC: 0.9604 (Simulation time: 06 hr 03 min 27 sec)
Heartbeat CPU 3 instructions: 770000001 cycles: 631833189 heartbeat IPC: 0.3652 cumulative IPC: 1.124 (Simulation time: 06 hr 07 min 08 sec)
Heartbeat CPU 1 instructions: 450000000 cycles: 634827136 heartbeat IPC: 0.4362 cumulative IPC: 0.597 (Simulation time: 06 hr 08 min 42 sec)
Heartbeat CPU 2 instructions: 660000004 cycles: 635126254 heartbeat IPC: 0.9479 cumulative IPC: 0.9602 (Simulation time: 06 hr 08 min 54 sec)
Heartbeat CPU 2 instructions: 670000004 cycles: 645013384 heartbeat IPC: 1.011 cumulative IPC: 0.961 (Simulation time: 06 hr 14 min 13 sec)
Heartbeat CPU 0 instructions: 120000004 cycles: 648377953 heartbeat IPC: 0.1018 cumulative IPC: 0.1116 (Simulation time: 06 hr 16 min 02 sec)
Heartbeat CPU 1 instructions: 460000001 cycles: 652420569 heartbeat IPC: 0.5684 cumulative IPC: 0.5962 (Simulation time: 06 hr 18 min 39 sec)
Heartbeat CPU 3 instructions: 780000000 cycles: 653266470 heartbeat IPC: 0.4666 cumulative IPC: 1.102 (Simulation time: 06 hr 19 min 18 sec)
Heartbeat CPU 2 instructions: 680000004 cycles: 655386515 heartbeat IPC: 0.964 cumulative IPC: 0.961 (Simulation time: 06 hr 20 min 40 sec)
Heartbeat CPU 2 instructions: 690000000 cycles: 661452828 heartbeat IPC: 1.648 cumulative IPC: 0.9676 (Simulation time: 06 hr 25 min 19 sec)
Heartbeat CPU 1 instructions: 470000002 cycles: 667060369 heartbeat IPC: 0.6831 cumulative IPC: 0.5981 (Simulation time: 06 hr 28 min 44 sec)
Heartbeat CPU 2 instructions: 700000000 cycles: 669001468 heartbeat IPC: 1.325 cumulative IPC: 0.9717 (Simulation time: 06 hr 30 min 06 sec)
Heartbeat CPU 3 instructions: 790000003 cycles: 671380355 heartbeat IPC: 0.5521 cumulative IPC: 1.086 (Simulation time: 06 hr 31 min 49 sec)
Heartbeat CPU 2 instructions: 710000002 cycles: 678861533 heartbeat IPC: 1.014 cumulative IPC: 0.9723 (Simulation time: 06 hr 36 min 22 sec)
Heartbeat CPU 1 instructions: 480000001 cycles: 684358796 heartbeat IPC: 0.5781 cumulative IPC: 0.5976 (Simulation time: 06 hr 40 min 01 sec)
Heartbeat CPU 3 instructions: 800000003 cycles: 690738477 heartbeat IPC: 0.5166 cumulative IPC: 1.07 (Simulation time: 06 hr 43 min 49 sec)
Heartbeat CPU 2 instructions: 720000003 cycles: 693252059 heartbeat IPC: 0.6949 cumulative IPC: 0.9664 (Simulation time: 06 hr 45 min 41 sec)
Heartbeat CPU 1 instructions: 490000001 cycles: 704995738 heartbeat IPC: 0.4846 cumulative IPC: 0.5942 (Simulation time: 06 hr 53 min 34 sec)
Heartbeat CPU 2 instructions: 730000000 cycles: 708535192 heartbeat IPC: 0.6543 cumulative IPC: 0.9595 (Simulation time: 06 hr 55 min 14 sec)
Heartbeat CPU 3 instructions: 810000001 cycles: 708642308 heartbeat IPC: 0.5585 cumulative IPC: 1.056 (Simulation time: 06 hr 55 min 17 sec)
Heartbeat CPU 2 instructions: 740000000 cycles: 720982122 heartbeat IPC: 0.8034 cumulative IPC: 0.9567 (Simulation time: 07 hr 01 min 21 sec)
Heartbeat CPU 1 instructions: 500000001 cycles: 732687857 heartbeat IPC: 0.3611 cumulative IPC: 0.5851 (Simulation time: 07 hr 07 min 51 sec)
Heartbeat CPU 2 instructions: 750000002 cycles: 740421780 heartbeat IPC: 0.5144 cumulative IPC: 0.9448 (Simulation time: 07 hr 12 min 36 sec)
Heartbeat CPU 3 instructions: 820000000 cycles: 762073023 heartbeat IPC: 0.1872 cumulative IPC: 0.9938 (Simulation time: 07 hr 24 min 27 sec)
Heartbeat CPU 2 instructions: 760000000 cycles: 762111578 heartbeat IPC: 0.461 cumulative IPC: 0.9306 (Simulation time: 07 hr 24 min 28 sec)
Heartbeat CPU 1 instructions: 510000000 cycles: 762299729 heartbeat IPC: 0.3377 cumulative IPC: 0.5753 (Simulation time: 07 hr 24 min 33 sec)
Heartbeat CPU 0 instructions: 130000002 cycles: 767409338 heartbeat IPC: 0.08401 cumulative IPC: 0.1072 (Simulation time: 07 hr 26 min 55 sec)
Heartbeat CPU 2 instructions: 770000004 cycles: 774138409 heartbeat IPC: 0.8315 cumulative IPC: 0.929 (Simulation time: 07 hr 30 min 01 sec)
Heartbeat CPU 2 instructions: 780000000 cycles: 785035928 heartbeat IPC: 0.9176 cumulative IPC: 0.9289 (Simulation time: 07 hr 35 min 44 sec)
Heartbeat CPU 1 instructions: 520000004 cycles: 787231935 heartbeat IPC: 0.4011 cumulative IPC: 0.5696 (Simulation time: 07 hr 37 min 07 sec)
Heartbeat CPU 3 instructions: 830000003 cycles: 795498247 heartbeat IPC: 0.2992 cumulative IPC: 0.9638 (Simulation time: 07 hr 41 min 13 sec)
Heartbeat CPU 2 instructions: 790000000 cycles: 795739325 heartbeat IPC: 0.9343 cumulative IPC: 0.9289 (Simulation time: 07 hr 41 min 20 sec)
Heartbeat CPU 2 instructions: 800000002 cycles: 804223700 heartbeat IPC: 1.179 cumulative IPC: 0.9316 (Simulation time: 07 hr 45 min 39 sec)
Heartbeat CPU 1 instructions: 530000004 cycles: 806445602 heartbeat IPC: 0.5205 cumulative IPC: 0.5684 (Simulation time: 07 hr 47 min 03 sec)
Heartbeat CPU 2 instructions: 810000002 cycles: 814169425 heartbeat IPC: 1.005 cumulative IPC: 0.9326 (Simulation time: 07 hr 52 min 16 sec)
Heartbeat CPU 1 instructions: 540000002 cycles: 825099153 heartbeat IPC: 0.5361 cumulative IPC: 0.5676 (Simulation time: 07 hr 58 min 10 sec)
Heartbeat CPU 3 instructions: 840000003 cycles: 825724699 heartbeat IPC: 0.3308 cumulative IPC: 0.9401 (Simulation time: 07 hr 58 min 29 sec)
Heartbeat CPU 2 instructions: 820000000 cycles: 828926020 heartbeat IPC: 0.6777 cumulative IPC: 0.9279 (Simulation time: 08 hr 00 min 27 sec)
Heartbeat CPU 2 instructions: 830000000 cycles: 841309207 heartbeat IPC: 0.8075 cumulative IPC: 0.9261 (Simulation time: 08 hr 08 min 23 sec)
Heartbeat CPU 1 instructions: 550000000 cycles: 844387466 heartbeat IPC: 0.5184 cumulative IPC: 0.5665 (Simulation time: 08 hr 09 min 58 sec)
Heartbeat CPU 2 instructions: 840000004 cycles: 857259637 heartbeat IPC: 0.6269 cumulative IPC: 0.9204 (Simulation time: 08 hr 17 min 47 sec)
Heartbeat CPU 3 instructions: 850000004 cycles: 867442323 heartbeat IPC: 0.2397 cumulative IPC: 0.9055 (Simulation time: 08 hr 23 min 51 sec)
Heartbeat CPU 1 instructions: 560000004 cycles: 868717782 heartbeat IPC: 0.411 cumulative IPC: 0.562 (Simulation time: 08 hr 24 min 38 sec)
Heartbeat CPU 2 instructions: 850000000 cycles: 869277191 heartbeat IPC: 0.8321 cumulative IPC: 0.9191 (Simulation time: 08 hr 24 min 59 sec)
Heartbeat CPU 2 instructions: 860000000 cycles: 885820545 heartbeat IPC: 0.6045 cumulative IPC: 0.9131 (Simulation time: 08 hr 34 min 36 sec)
Heartbeat CPU 0 instructions: 140000001 cycles: 887952042 heartbeat IPC: 0.08296 cumulative IPC: 0.1038 (Simulation time: 08 hr 35 min 52 sec)
Heartbeat CPU 1 instructions: 570000004 cycles: 891115967 heartbeat IPC: 0.4465 cumulative IPC: 0.5591 (Simulation time: 08 hr 38 min 04 sec)
Heartbeat CPU 3 instructions: 860000004 cycles: 895317837 heartbeat IPC: 0.3587 cumulative IPC: 0.8881 (Simulation time: 08 hr 40 min 52 sec)
Heartbeat CPU 2 instructions: 870000002 cycles: 897009560 heartbeat IPC: 0.8937 cumulative IPC: 0.9129 (Simulation time: 08 hr 42 min 02 sec)
Heartbeat CPU 3 instructions: 870000003 cycles: 905395507 heartbeat IPC: 0.9923 cumulative IPC: 0.8893 (Simulation time: 08 hr 47 min 35 sec)
Heartbeat CPU 2 instructions: 880000001 cycles: 906791962 heartbeat IPC: 1.022 cumulative IPC: 0.9141 (Simulation time: 08 hr 48 min 29 sec)
Heartbeat CPU 1 instructions: 580000001 cycles: 907593707 heartbeat IPC: 0.6069 cumulative IPC: 0.5599 (Simulation time: 08 hr 48 min 59 sec)
Heartbeat CPU 2 instructions: 890000000 cycles: 916397814 heartbeat IPC: 1.041 cumulative IPC: 0.9154 (Simulation time: 08 hr 54 min 35 sec)
Heartbeat CPU 3 instructions: 880000003 cycles: 923971396 heartbeat IPC: 0.5383 cumulative IPC: 0.8821 (Simulation time: 08 hr 59 min 01 sec)
Heartbeat CPU 1 instructions: 590000003 cycles: 925549846 heartbeat IPC: 0.5569 cumulative IPC: 0.5599 (Simulation time: 09 hr 00 min 02 sec)
Heartbeat CPU 2 instructions: 900000000 cycles: 930055172 heartbeat IPC: 0.7322 cumulative IPC: 0.9127 (Simulation time: 09 hr 03 min 01 sec)
Heartbeat CPU 3 instructions: 890000004 cycles: 932774427 heartbeat IPC: 1.136 cumulative IPC: 0.8845 (Simulation time: 09 hr 04 min 51 sec)
Heartbeat CPU 2 instructions: 910000003 cycles: 939165874 heartbeat IPC: 1.098 cumulative IPC: 0.9145 (Simulation time: 09 hr 08 min 59 sec)
Heartbeat CPU 1 instructions: 600000004 cycles: 942113249 heartbeat IPC: 0.6037 cumulative IPC: 0.5607 (Simulation time: 09 hr 10 min 46 sec)
Heartbeat CPU 2 instructions: 920000004 cycles: 949798882 heartbeat IPC: 0.9405 cumulative IPC: 0.9148 (Simulation time: 09 hr 15 min 14 sec)
Heartbeat CPU 3 instructions: 900000003 cycles: 953071745 heartbeat IPC: 0.4927 cumulative IPC: 0.876 (Simulation time: 09 hr 17 min 24 sec)
Heartbeat CPU 2 instructions: 930000004 cycles: 957916964 heartbeat IPC: 1.232 cumulative IPC: 0.9176 (Simulation time: 09 hr 20 min 09 sec)
Heartbeat CPU 1 instructions: 610000000 cycles: 960783506 heartbeat IPC: 0.5356 cumulative IPC: 0.5602 (Simulation time: 09 hr 22 min 11 sec)
Heartbeat CPU 3 instructions: 910000002 cycles: 961177107 heartbeat IPC: 1.234 cumulative IPC: 0.8791 (Simulation time: 09 hr 22 min 28 sec)
Heartbeat CPU 2 instructions: 940000004 cycles: 970953018 heartbeat IPC: 0.7671 cumulative IPC: 0.9155 (Simulation time: 09 hr 28 min 28 sec)
Heartbeat CPU 1 instructions: 620000002 cycles: 977720724 heartbeat IPC: 0.5904 cumulative IPC: 0.5607 (Simulation time: 09 hr 32 min 24 sec)
Heartbeat CPU 3 instructions: 920000004 cycles: 979234637 heartbeat IPC: 0.5538 cumulative IPC: 0.873 (Simulation time: 09 hr 33 min 23 sec)
Heartbeat CPU 0 instructions: 150000003 cycles: 982389556 heartbeat IPC: 0.1059 cumulative IPC: 0.104 (Simulation time: 09 hr 35 min 26 sec)
Heartbeat CPU 2 instructions: 950000002 cycles: 982817078 heartbeat IPC: 0.8429 cumulative IPC: 0.9146 (Simulation time: 09 hr 35 min 42 sec)
Heartbeat CPU 3 instructions: 930000003 cycles: 989193635 heartbeat IPC: 1.004 cumulative IPC: 0.8743 (Simulation time: 09 hr 39 min 14 sec)
Heartbeat CPU 1 instructions: 630000000 cycles: 994212065 heartbeat IPC: 0.6064 cumulative IPC: 0.5615 (Simulation time: 09 hr 41 min 41 sec)
Heartbeat CPU 2 instructions: 960000000 cycles: 994473754 heartbeat IPC: 0.8579 cumulative IPC: 0.9139 (Simulation time: 09 hr 41 min 51 sec)
Heartbeat CPU 2 instructions: 970000000 cycles: 1005637166 heartbeat IPC: 0.8958 cumulative IPC: 0.9137 (Simulation time: 09 hr 47 min 09 sec)
Heartbeat CPU 3 instructions: 940000002 cycles: 1010046213 heartbeat IPC: 0.4796 cumulative IPC: 0.866 (Simulation time: 09 hr 49 min 15 sec)
Heartbeat CPU 1 instructions: 640000000 cycles: 1014777302 heartbeat IPC: 0.4863 cumulative IPC: 0.5599 (Simulation time: 09 hr 51 min 46 sec)
Heartbeat CPU 2 instructions: 980000001 cycles: 1015719968 heartbeat IPC: 0.9918 cumulative IPC: 0.9145 (Simulation time: 09 hr 52 min 15 sec)
Heartbeat CPU 3 instructions: 950000003 cycles: 1020578009 heartbeat IPC: 0.9495 cumulative IPC: 0.8669 (Simulation time: 09 hr 54 min 50 sec)
Heartbeat CPU 2 instructions: 990000002 cycles: 1025334896 heartbeat IPC: 1.04 cumulative IPC: 0.9157 (Simulation time: 09 hr 57 min 19 sec)
Heartbeat CPU 1 instructions: 650000002 cycles: 1032432254 heartbeat IPC: 0.5664 cumulative IPC: 0.56 (Simulation time: 10 hr 00 min 58 sec)
Heartbeat CPU 2 instructions: 1000000001 cycles: 1033917463 heartbeat IPC: 1.165 cumulative IPC: 0.9178 (Simulation time: 10 hr 01 min 45 sec)
Heartbeat CPU 3 instructions: 960000000 cycles: 1039172667 heartbeat IPC: 0.5378 cumulative IPC: 0.8609 (Simulation time: 10 hr 04 min 28 sec)
Heartbeat CPU 2 instructions: 1010000000 cycles: 1042861016 heartbeat IPC: 1.118 cumulative IPC: 0.9196 (Simulation time: 10 hr 06 min 42 sec)
Heartbeat CPU 3 instructions: 970000001 cycles: 1043715412 heartbeat IPC: 2.201 cumulative IPC: 0.8668 (Simulation time: 10 hr 07 min 13 sec)
Heartbeat CPU 1 instructions: 660000000 cycles: 1048220644 heartbeat IPC: 0.6334 cumulative IPC: 0.5612 (Simulation time: 10 hr 09 min 49 sec)
Heartbeat CPU 3 instructions: 980000002 cycles: 1048404947 heartbeat IPC: 2.132 cumulative IPC: 0.8726 (Simulation time: 10 hr 09 min 56 sec)
Heartbeat CPU 3 instructions: 990000000 cycles: 1053547548 heartbeat IPC: 1.945 cumulative IPC: 0.8779 (Simulation time: 10 hr 12 min 46 sec)
Heartbeat CPU 2 instructions: 1020000001 cycles: 1057263112 heartbeat IPC: 0.6943 cumulative IPC: 0.9164 (Simulation time: 10 hr 14 min 25 sec)
Heartbeat CPU 1 instructions: 670000002 cycles: 1068605726 heartbeat IPC: 0.4906 cumulative IPC: 0.5598 (Simulation time: 10 hr 19 min 33 sec)
Heartbeat CPU 2 instructions: 1030000001 cycles: 1069736221 heartbeat IPC: 0.8017 cumulative IPC: 0.9151 (Simulation time: 10 hr 20 min 05 sec)
Heartbeat CPU 3 instructions: 1000000004 cycles: 1078427304 heartbeat IPC: 0.4019 cumulative IPC: 0.8667 (Simulation time: 10 hr 24 min 29 sec)
Heartbeat CPU 2 instructions: 1040000001 cycles: 1080993087 heartbeat IPC: 0.8883 cumulative IPC: 0.9148 (Simulation time: 10 hr 25 min 45 sec)
Heartbeat CPU 0 instructions: 160000002 cycles: 1084126798 heartbeat IPC: 0.09829 cumulative IPC: 0.1035 (Simulation time: 10 hr 27 min 28 sec)
Heartbeat CPU 1 instructions: 680000000 cycles: 1086357179 heartbeat IPC: 0.5633 cumulative IPC: 0.5599 (Simulation time: 10 hr 28 min 40 sec)
Heartbeat CPU 2 instructions: 1050000000 cycles: 1089916035 heartbeat IPC: 1.121 cumulative IPC: 0.9165 (Simulation time: 10 hr 30 min 24 sec)
Heartbeat CPU 2 instructions: 1060000000 cycles: 1102488864 heartbeat IPC: 0.7954 cumulative IPC: 0.9151 (Simulation time: 10 hr 36 min 32 sec)
Heartbeat CPU 1 instructions: 690000004 cycles: 1103468218 heartbeat IPC: 0.5844 cumulative IPC: 0.5602 (Simulation time: 10 hr 37 min 03 sec)
Heartbeat CPU 2 instructions: 1070000000 cycles: 1113229342 heartbeat IPC: 0.9311 cumulative IPC: 0.9153 (Simulation time: 10 hr 41 min 38 sec)
Heartbeat CPU 2 instructions: 1080000000 cycles: 1124713285 heartbeat IPC: 0.8708 cumulative IPC: 0.9148 (Simulation time: 10 hr 46 min 52 sec)
Heartbeat CPU 1 instructions: 700000002 cycles: 1129477376 heartbeat IPC: 0.3845 cumulative IPC: 0.5561 (Simulation time: 10 hr 48 min 51 sec)
Heartbeat CPU 3 instructions: 1010000001 cycles: 1130020791 heartbeat IPC: 0.1938 cumulative IPC: 0.8354 (Simulation time: 10 hr 49 min 04 sec)
Heartbeat CPU 3 instructions: 1020000002 cycles: 1142068122 heartbeat IPC: 0.8301 cumulative IPC: 0.8354 (Simulation time: 10 hr 54 min 50 sec)
Heartbeat CPU 2 instructions: 1090000000 cycles: 1142649807 heartbeat IPC: 0.5575 cumulative IPC: 0.9091 (Simulation time: 10 hr 55 min 08 sec)
Heartbeat CPU 1 instructions: 710000000 cycles: 1147646167 heartbeat IPC: 0.5504 cumulative IPC: 0.556 (Simulation time: 10 hr 57 min 47 sec)
Heartbeat CPU 2 instructions: 1100000001 cycles: 1152030519 heartbeat IPC: 1.066 cumulative IPC: 0.9104 (Simulation time: 11 hr 00 min 03 sec)
Heartbeat CPU 3 instructions: 1030000003 cycles: 1152764600 heartbeat IPC: 0.9349 cumulative IPC: 0.8363 (Simulation time: 11 hr 00 min 26 sec)
Heartbeat CPU 3 instructions: 1040000003 cycles: 1160945949 heartbeat IPC: 1.222 cumulative IPC: 0.8391 (Simulation time: 11 hr 04 min 53 sec)
Heartbeat CPU 2 instructions: 1110000003 cycles: 1161797186 heartbeat IPC: 1.024 cumulative IPC: 0.9114 (Simulation time: 11 hr 05 min 27 sec)
Heartbeat CPU 1 instructions: 720000002 cycles: 1163483307 heartbeat IPC: 0.6314 cumulative IPC: 0.5571 (Simulation time: 11 hr 06 min 24 sec)
Heartbeat CPU 2 instructions: 1120000001 cycles: 1170491810 heartbeat IPC: 1.15 cumulative IPC: 0.9132 (Simulation time: 11 hr 10 min 23 sec)
Heartbeat CPU 3 instructions: 1050000002 cycles: 1170908901 heartbeat IPC: 1.004 cumulative IPC: 0.8405 (Simulation time: 11 hr 10 min 37 sec)
Heartbeat CPU 1 instructions: 730000002 cycles: 1178168181 heartbeat IPC: 0.681 cumulative IPC: 0.5586 (Simulation time: 11 hr 14 min 12 sec)
Heartbeat CPU 3 instructions: 1060000004 cycles: 1181330107 heartbeat IPC: 0.9596 cumulative IPC: 0.8416 (Simulation time: 11 hr 15 min 47 sec)
Heartbeat CPU 0 instructions: 170000001 cycles: 1181770411 heartbeat IPC: 0.1024 cumulative IPC: 0.1034 (Simulation time: 11 hr 16 min 01 sec)
Heartbeat CPU 2 instructions: 1130000002 cycles: 1184442160 heartbeat IPC: 0.7168 cumulative IPC: 0.9108 (Simulation time: 11 hr 17 min 23 sec)
Heartbeat CPU 3 instructions: 1070000004 cycles: 1192193256 heartbeat IPC: 0.9205 cumulative IPC: 0.8423 (Simulation time: 11 hr 21 min 27 sec)
Heartbeat CPU 2 instructions: 1140000001 cycles: 1194055507 heartbeat IPC: 1.04 cumulative IPC: 0.9119 (Simulation time: 11 hr 22 min 26 sec)
Heartbeat CPU 1 instructions: 740000003 cycles: 1195326572 heartbeat IPC: 0.5828 cumulative IPC: 0.559 (Simulation time: 11 hr 23 min 01 sec)
Heartbeat CPU 2 instructions: 1150000000 cycles: 1204156453 heartbeat IPC: 0.99 cumulative IPC: 0.9125 (Simulation time: 11 hr 27 min 22 sec)
Heartbeat CPU 2 instructions: 1160000002 cycles: 1212177543 heartbeat IPC: 1.247 cumulative IPC: 0.9148 (Simulation time: 11 hr 31 min 35 sec)
Heartbeat CPU 1 instructions: 750000003 cycles: 1212399194 heartbeat IPC: 0.5857 cumulative IPC: 0.5594 (Simulation time: 11 hr 31 min 42 sec)
Heartbeat CPU 3 instructions: 1080000000 cycles: 1214948636 heartbeat IPC: 0.4395 cumulative IPC: 0.8346 (Simulation time: 11 hr 32 min 57 sec)
Heartbeat CPU 2 instructions: 1170000001 cycles: 1221991034 heartbeat IPC: 1.019 cumulative IPC: 0.9156 (Simulation time: 11 hr 36 min 24 sec)
Heartbeat CPU 1 instructions: 760000004 cycles: 1230930381 heartbeat IPC: 0.5396 cumulative IPC: 0.5591 (Simulation time: 11 hr 40 min 29 sec)
Heartbeat CPU 3 instructions: 1090000003 cycles: 1236376392 heartbeat IPC: 0.4667 cumulative IPC: 0.8281 (Simulation time: 11 hr 43 min 03 sec)
Heartbeat CPU 2 instructions: 1180000000 cycles: 1238139379 heartbeat IPC: 0.6193 cumulative IPC: 0.9117 (Simulation time: 11 hr 44 min 00 sec)
Heartbeat CPU 1 instructions: 770000002 cycles: 1248838232 heartbeat IPC: 0.5584 cumulative IPC: 0.5591 (Simulation time: 11 hr 49 min 03 sec)
Heartbeat CPU 3 instructions: 1100000000 cycles: 1252334186 heartbeat IPC: 0.6267 cumulative IPC: 0.8255 (Simulation time: 11 hr 50 min 31 sec)
Heartbeat CPU 2 instructions: 1190000000 cycles: 1252578897 heartbeat IPC: 0.6925 cumulative IPC: 0.9091 (Simulation time: 11 hr 50 min 37 sec)
Heartbeat CPU 2 instructions: 1200000003 cycles: 1263672525 heartbeat IPC: 0.9014 cumulative IPC: 0.9091 (Simulation time: 11 hr 55 min 35 sec)
Heartbeat CPU 1 instructions: 780000003 cycles: 1270215030 heartbeat IPC: 0.4678 cumulative IPC: 0.5575 (Simulation time: 11 hr 58 min 32 sec)
Heartbeat CPU 2 instructions: 1210000001 cycles: 1273735262 heartbeat IPC: 0.9938 cumulative IPC: 0.9098 (Simulation time: 12 hr 00 min 08 sec)
Heartbeat CPU 3 instructions: 1110000000 cycles: 1277756517 heartbeat IPC: 0.3934 cumulative IPC: 0.8168 (Simulation time: 12 hr 01 min 58 sec)
Heartbeat CPU 2 instructions: 1220000003 cycles: 1284548273 heartbeat IPC: 0.9248 cumulative IPC: 0.9099 (Simulation time: 12 hr 05 min 05 sec)
Heartbeat CPU 0 instructions: 180000001 cycles: 1287520153 heartbeat IPC: 0.09456 cumulative IPC: 0.1026 (Simulation time: 12 hr 06 min 30 sec)
Heartbeat CPU 1 instructions: 790000000 cycles: 1290235280 heartbeat IPC: 0.4995 cumulative IPC: 0.5566 (Simulation time: 12 hr 07 min 48 sec)
Heartbeat CPU 2 instructions: 1230000001 cycles: 1294278485 heartbeat IPC: 1.028 cumulative IPC: 0.9108 (Simulation time: 12 hr 09 min 35 sec)
Heartbeat CPU 3 instructions: 1120000004 cycles: 1306942067 heartbeat IPC: 0.3426 cumulative IPC: 0.806 (Simulation time: 12 hr 14 min 45 sec)
Heartbeat CPU 2 instructions: 1240000003 cycles: 1318425209 heartbeat IPC: 0.4141 cumulative IPC: 0.9015 (Simulation time: 12 hr 19 min 20 sec)
Heartbeat CPU 1 instructions: 800000003 cycles: 1321309644 heartbeat IPC: 0.3218 cumulative IPC: 0.551 (Simulation time: 12 hr 20 min 34 sec)
Heartbeat CPU 2 instructions: 1250000002 cycles: 1332016501 heartbeat IPC: 0.7358 cumulative IPC: 0.8998 (Simulation time: 12 hr 25 min 12 sec)
Heartbeat CPU 2 instructions: 1260000000 cycles: 1343204108 heartbeat IPC: 0.8938 cumulative IPC: 0.8998 (Simulation time: 12 hr 29 min 52 sec)
Heartbeat CPU 1 instructions: 810000000 cycles: 1348941620 heartbeat IPC: 0.3619 cumulative IPC: 0.547 (Simulation time: 12 hr 32 min 17 sec)
Heartbeat CPU 3 instructions: 1130000000 cycles: 1350381961 heartbeat IPC: 0.2302 cumulative IPC: 0.7872 (Simulation time: 12 hr 32 min 54 sec)
Heartbeat CPU 2 instructions: 1270000000 cycles: 1354240204 heartbeat IPC: 0.9061 cumulative IPC: 0.8998 (Simulation time: 12 hr 34 min 35 sec)
Heartbeat CPU 2 instructions: 1280000001 cycles: 1363495593 heartbeat IPC: 1.08 cumulative IPC: 0.9011 (Simulation time: 12 hr 38 min 37 sec)
Heartbeat CPU 1 instructions: 820000001 cycles: 1369321659 heartbeat IPC: 0.4907 cumulative IPC: 0.5462 (Simulation time: 12 hr 41 min 21 sec)
Heartbeat CPU 2 instructions: 1290000004 cycles: 1372893365 heartbeat IPC: 1.064 cumulative IPC: 0.9022 (Simulation time: 12 hr 43 min 08 sec)
Heartbeat CPU 3 instructions: 1140000000 cycles: 1378893041 heartbeat IPC: 0.3507 cumulative IPC: 0.778 (Simulation time: 12 hr 45 min 52 sec)
Heartbeat CPU 1 instructions: 830000002 cycles: 1387007302 heartbeat IPC: 0.5654 cumulative IPC: 0.5464 (Simulation time: 12 hr 48 min 59 sec)
Heartbeat CPU 2 instructions: 1300000000 cycles: 1389269557 heartbeat IPC: 0.6106 cumulative IPC: 0.8987 (Simulation time: 12 hr 49 min 59 sec)
Heartbeat CPU 2 instructions: 1310000002 cycles: 1399406559 heartbeat IPC: 0.9865 cumulative IPC: 0.8994 (Simulation time: 12 hr 54 min 32 sec)
Heartbeat CPU 1 instructions: 840000002 cycles: 1406552109 heartbeat IPC: 0.5116 cumulative IPC: 0.546 (Simulation time: 12 hr 57 min 38 sec)
Heartbeat CPU 2 instructions: 1320000000 cycles: 1410506213 heartbeat IPC: 0.9009 cumulative IPC: 0.8994 (Simulation time: 12 hr 59 min 20 sec)
Heartbeat CPU 3 instructions: 1150000000 cycles: 1412257779 heartbeat IPC: 0.2997 cumulative IPC: 0.7666 (Simulation time: 13 hr 00 min 09 sec)
Heartbeat CPU 0 instructions: 190000003 cycles: 1416817775 heartbeat IPC: 0.07734 cumulative IPC: 0.1003 (Simulation time: 13 hr 02 min 07 sec)
Heartbeat CPU 2 instructions: 1330000002 cycles: 1426330448 heartbeat IPC: 0.6319 cumulative IPC: 0.8964 (Simulation time: 13 hr 05 min 44 sec)
Heartbeat CPU 1 instructions: 850000001 cycles: 1431098434 heartbeat IPC: 0.4074 cumulative IPC: 0.5435 (Simulation time: 13 hr 07 min 24 sec)
Heartbeat CPU 2 instructions: 1340000001 cycles: 1444017095 heartbeat IPC: 0.5654 cumulative IPC: 0.8922 (Simulation time: 13 hr 12 min 40 sec)
Heartbeat CPU 3 instructions: 1160000001 cycles: 1449126978 heartbeat IPC: 0.2712 cumulative IPC: 0.7538 (Simulation time: 13 hr 14 min 40 sec)
Heartbeat CPU 1 instructions: 860000003 cycles: 1449968397 heartbeat IPC: 0.5299 cumulative IPC: 0.5434 (Simulation time: 13 hr 15 min 01 sec)
Heartbeat CPU 2 instructions: 1350000001 cycles: 1459093290 heartbeat IPC: 0.6633 cumulative IPC: 0.8898 (Simulation time: 13 hr 18 min 53 sec)
Heartbeat CPU 2 instructions: 1360000002 cycles: 1469021098 heartbeat IPC: 1.007 cumulative IPC: 0.8907 (Simulation time: 13 hr 23 min 22 sec)
Heartbeat CPU 1 instructions: 870000003 cycles: 1470020475 heartbeat IPC: 0.4987 cumulative IPC: 0.5427 (Simulation time: 13 hr 23 min 46 sec)
Heartbeat CPU 2 instructions: 1370000001 cycles: 1479353142 heartbeat IPC: 0.9679 cumulative IPC: 0.8912 (Simulation time: 13 hr 27 min 43 sec)
Heartbeat CPU 3 instructions: 1170000000 cycles: 1483490951 heartbeat IPC: 0.291 cumulative IPC: 0.7429 (Simulation time: 13 hr 29 min 26 sec)
Heartbeat CPU 2 instructions: 1380000000 cycles: 1488578743 heartbeat IPC: 1.084 cumulative IPC: 0.8924 (Simulation time: 13 hr 31 min 38 sec)
Heartbeat CPU 1 instructions: 880000002 cycles: 1490632929 heartbeat IPC: 0.4851 cumulative IPC: 0.5419 (Simulation time: 13 hr 32 min 33 sec)
Heartbeat CPU 2 instructions: 1390000000 cycles: 1498158364 heartbeat IPC: 1.044 cumulative IPC: 0.8934 (Simulation time: 13 hr 35 min 52 sec)
Heartbeat CPU 1 instructions: 890000004 cycles: 1511511147 heartbeat IPC: 0.479 cumulative IPC: 0.5411 (Simulation time: 13 hr 40 min 58 sec)
Heartbeat CPU 2 instructions: 1400000002 cycles: 1517907196 heartbeat IPC: 0.5064 cumulative IPC: 0.8883 (Simulation time: 13 hr 43 min 32 sec)
Heartbeat CPU 3 instructions: 1180000002 cycles: 1522285892 heartbeat IPC: 0.2578 cumulative IPC: 0.7304 (Simulation time: 13 hr 45 min 14 sec)
Heartbeat CPU 2 instructions: 1410000000 cycles: 1531279662 heartbeat IPC: 0.7478 cumulative IPC: 0.887 (Simulation time: 13 hr 48 min 43 sec)
Heartbeat CPU 1 instructions: 900000000 cycles: 1536101234 heartbeat IPC: 0.4067 cumulative IPC: 0.5389 (Simulation time: 13 hr 50 min 34 sec)
Heartbeat CPU 0 instructions: 200000001 cycles: 1536701196 heartbeat IPC: 0.08341 cumulative IPC: 0.09896 (Simulation time: 13 hr 50 min 48 sec)
Simulation finished CPU 0 instructions: 150000003 cycles: 1515830199 cumulative IPC: 0.09896 (Simulation time: 13 hr 50 min 48 sec)
Simulation complete CPU 0 instructions: 150000003 cycles: 1515830199 cumulative IPC: 0.09896 (Simulation time: 13 hr 50 min 48 sec)
Simulation complete CPU 1 instructions: 816710799 cycles: 1515830199 cumulative IPC: 0.5388 (Simulation time: 13 hr 50 min 48 sec)
Simulation complete CPU 2 instructions: 1343364203 cycles: 1515830199 cumulative IPC: 0.8862 (Simulation time: 13 hr 50 min 48 sec)
Simulation complete CPU 3 instructions: 1099386851 cycles: 1515830199 cumulative IPC: 0.7253 (Simulation time: 13 hr 50 min 48 sec)

ChampSim completed all CPUs

=== Simulation ===
CPU 0 runs /home/das/dpc3_traces/620.omnetpp_s-874B.champsimtrace.xzCPU 1 runs /home/das/dpc3_traces/649.fotonik3d_s-1176B.champsimtrace.xzCPU 2 runs /home/das/dpc3_traces/623.xalancbmk_s-700B.champsimtrace.xzCPU 3 runs /home/das/dpc3_traces/621.wrf_s-575B.champsimtrace.xz
Total Simulation Statistics (not including warmup)

CPU 0 cumulative IPC: 0.09896 instructions: 150000003 cycles: 1515830199
CPU 0 Branch Prediction Accuracy: 94.9% MPKI: 10.6 Average ROB Occupancy at Mispredict: 85.35
Branch type MPKI
BRANCH_DIRECT_JUMP: 0.923
BRANCH_INDIRECT: 0.128
BRANCH_CONDITIONAL: 8.42
BRANCH_DIRECT_CALL: 0.00016
BRANCH_INDIRECT_CALL: 0.734
BRANCH_RETURN: 0.399


CPU 1 cumulative IPC: 0.5388 instructions: 816710799 cycles: 1515830199
CPU 1 Branch Prediction Accuracy: 99.76% MPKI: 0.04338 Average ROB Occupancy at Mispredict: 91.02
Branch type MPKI
BRANCH_DIRECT_JUMP: 0.000109
BRANCH_INDIRECT: 0
BRANCH_CONDITIONAL: 0.0334
BRANCH_DIRECT_CALL: 1.96e-05
BRANCH_INDIRECT_CALL: 0
BRANCH_RETURN: 0.00982


CPU 2 cumulative IPC: 0.8862 instructions: 1343364203 cycles: 1515830199
CPU 2 Branch Prediction Accuracy: 97.2% MPKI: 7.99 Average ROB Occupancy at Mispredict: 41.91
Branch type MPKI
BRANCH_DIRECT_JUMP: 0.11
BRANCH_INDIRECT: 0.344
BRANCH_CONDITIONAL: 5.72
BRANCH_DIRECT_CALL: 0.000236
BRANCH_INDIRECT_CALL: 0.374
BRANCH_RETURN: 1.45


CPU 3 cumulative IPC: 0.7253 instructions: 1099386851 cycles: 1515830199
CPU 3 Branch Prediction Accuracy: 95.94% MPKI: 3.838 Average ROB Occupancy at Mispredict: 124.1
Branch type MPKI
BRANCH_DIRECT_JUMP: 0.000358
BRANCH_INDIRECT: 1.64e-05
BRANCH_CONDITIONAL: 3.58
BRANCH_DIRECT_CALL: 0.00225
BRANCH_INDIRECT_CALL: 0
BRANCH_RETURN: 0.255

LLC TOTAL        ACCESS:    3518274 HIT:    1195814 MISS:    2322460
LLC LOAD         ACCESS:    1687301 HIT:     252404 MISS:    1434897
LLC RFO          ACCESS:     257829 HIT:      65191 MISS:     192638
LLC PREFETCH     ACCESS:       8607 HIT:        650 MISS:       7957
LLC WRITE        ACCESS:     968640 HIT:     844263 MISS:     124377
LLC TRANSLATION  ACCESS:     595897 HIT:      33306 MISS:     562591
LLC PREFETCH REQUESTED:          0 ISSUED:          0 USEFUL:          0 USELESS:          0
LLC AVERAGE MISS LATENCY: 2329 cycles
LLC TOTAL        ACCESS:   15584168 HIT:    8225038 MISS:    7359130
LLC LOAD         ACCESS:    1629676 HIT:     190447 MISS:    1439229
LLC RFO          ACCESS:       4518 HIT:       4510 MISS:          8
LLC PREFETCH     ACCESS:    6811763 HIT:     894144 MISS:    5917619
LLC WRITE        ACCESS:    7135207 HIT:    7133642 MISS:       1565
LLC TRANSLATION  ACCESS:       3004 HIT:       2295 MISS:        709
LLC PREFETCH REQUESTED:          0 ISSUED:          0 USEFUL:          0 USELESS:          0
LLC AVERAGE MISS LATENCY: 2329 cycles
LLC TOTAL        ACCESS:    8072354 HIT:    5493560 MISS:    2578794
LLC LOAD         ACCESS:    3487557 HIT:    2987876 MISS:     499681
LLC RFO          ACCESS:    1567922 HIT:      86118 MISS:    1481804
LLC PREFETCH     ACCESS:     689611 HIT:     254842 MISS:     434769
LLC WRITE        ACCESS:    2024241 HIT:    1969425 MISS:      54816
LLC TRANSLATION  ACCESS:     303023 HIT:     195299 MISS:     107724
LLC PREFETCH REQUESTED:          0 ISSUED:          0 USEFUL:          0 USELESS:          0
LLC AVERAGE MISS LATENCY: 2329 cycles
LLC TOTAL        ACCESS:   13882802 HIT:    6529163 MISS:    7353639
LLC LOAD         ACCESS:    2381198 HIT:     959409 MISS:    1421789
LLC RFO          ACCESS:    1777039 HIT:     386449 MISS:    1390590
LLC PREFETCH     ACCESS:    5929266 HIT:    1416059 MISS:    4513207
LLC WRITE        ACCESS:    3782430 HIT:    3763488 MISS:      18942
LLC TRANSLATION  ACCESS:      12869 HIT:       3758 MISS:       9111
LLC PREFETCH REQUESTED:          0 ISSUED:          0 USEFUL:          0 USELESS:          0
LLC AVERAGE MISS LATENCY: 2329 cycles
cpu0_DTLB TOTAL        ACCESS:   38310983 HIT:   35008596 MISS:    3302387
cpu0_DTLB LOAD         ACCESS:   38310983 HIT:   35008596 MISS:    3302387
cpu0_DTLB RFO          ACCESS:          0 HIT:          0 MISS:          0
cpu0_DTLB PREFETCH     ACCESS:          0 HIT:          0 MISS:          0
cpu0_DTLB WRITE        ACCESS:          0 HIT:          0 MISS:          0
cpu0_DTLB TRANSLATION  ACCESS:          0 HIT:          0 MISS:          0
cpu0_DTLB PREFETCH REQUESTED:          0 ISSUED:          0 USEFUL:          0 USELESS:          0
cpu0_DTLB AVERAGE MISS LATENCY: 324.2 cycles
cpu0_DTLB TOTAL        ACCESS:          0 HIT:          0 MISS:          0
cpu0_DTLB LOAD         ACCESS:          0 HIT:          0 MISS:          0
cpu0_DTLB RFO          ACCESS:          0 HIT:          0 MISS:          0
cpu0_DTLB PREFETCH     ACCESS:          0 HIT:          0 MISS:          0
cpu0_DTLB WRITE        ACCESS:          0 HIT:          0 MISS:          0
cpu0_DTLB TRANSLATION  ACCESS:          0 HIT:          0 MISS:          0
cpu0_DTLB PREFETCH REQUESTED:          0 ISSUED:          0 USEFUL:          0 USELESS:          0
cpu0_DTLB AVERAGE MISS LATENCY: 324.2 cycles
cpu0_DTLB TOTAL        ACCESS:          0 HIT:          0 MISS:          0
cpu0_DTLB LOAD         ACCESS:          0 HIT:          0 MISS:          0
cpu0_DTLB RFO          ACCESS:          0 HIT:          0 MISS:          0
cpu0_DTLB PREFETCH     ACCESS:          0 HIT:          0 MISS:          0
cpu0_DTLB WRITE        ACCESS:          0 HIT:          0 MISS:          0
cpu0_DTLB TRANSLATION  ACCESS:          0 HIT:          0 MISS:          0
cpu0_DTLB PREFETCH REQUESTED:          0 ISSUED:          0 USEFUL:          0 USELESS:          0
cpu0_DTLB AVERAGE MISS LATENCY: 324.2 cycles
cpu0_DTLB TOTAL        ACCESS:          0 HIT:          0 MISS:          0
cpu0_DTLB LOAD         ACCESS:          0 HIT:          0 MISS:          0
cpu0_DTLB RFO          ACCESS:          0 HIT:          0 MISS:          0
cpu0_DTLB PREFETCH     ACCESS:          0 HIT:          0 MISS:          0
cpu0_DTLB WRITE        ACCESS:          0 HIT:          0 MISS:          0
cpu0_DTLB TRANSLATION  ACCESS:          0 HIT:          0 MISS:          0
cpu0_DTLB PREFETCH REQUESTED:          0 ISSUED:          0 USEFUL:          0 USELESS:          0
cpu0_DTLB AVERAGE MISS LATENCY: 324.2 cycles
cpu0_ITLB TOTAL        ACCESS:   10772720 HIT:   10501535 MISS:     271185
cpu0_ITLB LOAD         ACCESS:   10772720 HIT:   10501535 MISS:     271185
cpu0_ITLB RFO          ACCESS:          0 HIT:          0 MISS:          0
cpu0_ITLB PREFETCH     ACCESS:          0 HIT:          0 MISS:          0
cpu0_ITLB WRITE        ACCESS:          0 HIT:          0 MISS:          0
cpu0_ITLB TRANSLATION  ACCESS:          0 HIT:          0 MISS:          0
cpu0_ITLB PREFETCH REQUESTED:          0 ISSUED:          0 USEFUL:          0 USELESS:          0
cpu0_ITLB AVERAGE MISS LATENCY: 23.46 cycles
cpu0_ITLB TOTAL        ACCESS:          0 HIT:          0 MISS:          0
cpu0_ITLB LOAD         ACCESS:          0 HIT:          0 MISS:          0
cpu0_ITLB RFO          ACCESS:          0 HIT:          0 MISS:          0
cpu0_ITLB PREFETCH     ACCESS:          0 HIT:          0 MISS:          0
cpu0_ITLB WRITE        ACCESS:          0 HIT:          0 MISS:          0
cpu0_ITLB TRANSLATION  ACCESS:          0 HIT:          0 MISS:          0
cpu0_ITLB PREFETCH REQUESTED:          0 ISSUED:          0 USEFUL:          0 USELESS:          0
cpu0_ITLB AVERAGE MISS LATENCY: 23.46 cycles
cpu0_ITLB TOTAL        ACCESS:          0 HIT:          0 MISS:          0
cpu0_ITLB LOAD         ACCESS:          0 HIT:          0 MISS:          0
cpu0_ITLB RFO          ACCESS:          0 HIT:          0 MISS:          0
cpu0_ITLB PREFETCH     ACCESS:          0 HIT:          0 MISS:          0
cpu0_ITLB WRITE        ACCESS:          0 HIT:          0 MISS:          0
cpu0_ITLB TRANSLATION  ACCESS:          0 HIT:          0 MISS:          0
cpu0_ITLB PREFETCH REQUESTED:          0 ISSUED:          0 USEFUL:          0 USELESS:          0
cpu0_ITLB AVERAGE MISS LATENCY: 23.46 cycles
cpu0_ITLB TOTAL        ACCESS:          0 HIT:          0 MISS:          0
cpu0_ITLB LOAD         ACCESS:          0 HIT:          0 MISS:          0
cpu0_ITLB RFO          ACCESS:          0 HIT:          0 MISS:          0
cpu0_ITLB PREFETCH     ACCESS:          0 HIT:          0 MISS:          0
cpu0_ITLB WRITE        ACCESS:          0 HIT:          0 MISS:          0
cpu0_ITLB TRANSLATION  ACCESS:          0 HIT:          0 MISS:          0
cpu0_ITLB PREFETCH REQUESTED:          0 ISSUED:          0 USEFUL:          0 USELESS:          0
cpu0_ITLB AVERAGE MISS LATENCY: 23.46 cycles
cpu0_L1D TOTAL        ACCESS:   49879403 HIT:   44891335 MISS:    4988068
cpu0_L1D LOAD         ACCESS:   23009393 HIT:   19909033 MISS:    3100360
cpu0_L1D RFO          ACCESS:          0 HIT:          0 MISS:          0
cpu0_L1D PREFETCH     ACCESS:      15529 HIT:       1571 MISS:      13958
cpu0_L1D WRITE        ACCESS:   25963236 HIT:   24835500 MISS:    1127736
cpu0_L1D TRANSLATION  ACCESS:     891245 HIT:     145231 MISS:     746014
cpu0_L1D PREFETCH REQUESTED:      15522 ISSUED:      15522 USEFUL:        834 USELESS:        545
cpu0_L1D AVERAGE MISS LATENCY: 832.6 cycles
cpu0_L1D TOTAL        ACCESS:          0 HIT:          0 MISS:          0
cpu0_L1D LOAD         ACCESS:          0 HIT:          0 MISS:          0
cpu0_L1D RFO          ACCESS:          0 HIT:          0 MISS:          0
cpu0_L1D PREFETCH     ACCESS:          0 HIT:          0 MISS:          0
cpu0_L1D WRITE        ACCESS:          0 HIT:          0 MISS:          0
cpu0_L1D TRANSLATION  ACCESS:          0 HIT:          0 MISS:          0
cpu0_L1D PREFETCH REQUESTED:      15522 ISSUED:      15522 USEFUL:        834 USELESS:        545
cpu0_L1D AVERAGE MISS LATENCY: 832.6 cycles
cpu0_L1D TOTAL        ACCESS:          0 HIT:          0 MISS:          0
cpu0_L1D LOAD         ACCESS:          0 HIT:          0 MISS:          0
cpu0_L1D RFO          ACCESS:          0 HIT:          0 MISS:          0
cpu0_L1D PREFETCH     ACCESS:          0 HIT:          0 MISS:          0
cpu0_L1D WRITE        ACCESS:          0 HIT:          0 MISS:          0
cpu0_L1D TRANSLATION  ACCESS:          0 HIT:          0 MISS:          0
cpu0_L1D PREFETCH REQUESTED:      15522 ISSUED:      15522 USEFUL:        834 USELESS:        545
cpu0_L1D AVERAGE MISS LATENCY: 832.6 cycles
cpu0_L1D TOTAL        ACCESS:          0 HIT:          0 MISS:          0
cpu0_L1D LOAD         ACCESS:          0 HIT:          0 MISS:          0
cpu0_L1D RFO          ACCESS:          0 HIT:          0 MISS:          0
cpu0_L1D PREFETCH     ACCESS:          0 HIT:          0 MISS:          0
cpu0_L1D WRITE        ACCESS:          0 HIT:          0 MISS:          0
cpu0_L1D TRANSLATION  ACCESS:          0 HIT:          0 MISS:          0
cpu0_L1D PREFETCH REQUESTED:      15522 ISSUED:      15522 USEFUL:        834 USELESS:        545
cpu0_L1D AVERAGE MISS LATENCY: 832.6 cycles
cpu0_L1I TOTAL        ACCESS:   12876558 HIT:   12802450 MISS:      74108
cpu0_L1I LOAD         ACCESS:   12876558 HIT:   12802450 MISS:      74108
cpu0_L1I RFO          ACCESS:          0 HIT:          0 MISS:          0
cpu0_L1I PREFETCH     ACCESS:          0 HIT:          0 MISS:          0
cpu0_L1I WRITE        ACCESS:          0 HIT:          0 MISS:          0
cpu0_L1I TRANSLATION  ACCESS:          0 HIT:          0 MISS:          0
cpu0_L1I PREFETCH REQUESTED:          0 ISSUED:          0 USEFUL:          0 USELESS:          0
cpu0_L1I AVERAGE MISS LATENCY: 158.2 cycles
cpu0_L1I TOTAL        ACCESS:          0 HIT:          0 MISS:          0
cpu0_L1I LOAD         ACCESS:          0 HIT:          0 MISS:          0
cpu0_L1I RFO          ACCESS:          0 HIT:          0 MISS:          0
cpu0_L1I PREFETCH     ACCESS:          0 HIT:          0 MISS:          0
cpu0_L1I WRITE        ACCESS:          0 HIT:          0 MISS:          0
cpu0_L1I TRANSLATION  ACCESS:          0 HIT:          0 MISS:          0
cpu0_L1I PREFETCH REQUESTED:          0 ISSUED:          0 USEFUL:          0 USELESS:          0
cpu0_L1I AVERAGE MISS LATENCY: 158.2 cycles
cpu0_L1I TOTAL        ACCESS:          0 HIT:          0 MISS:          0
cpu0_L1I LOAD         ACCESS:          0 HIT:          0 MISS:          0
cpu0_L1I RFO          ACCESS:          0 HIT:          0 MISS:          0
cpu0_L1I PREFETCH     ACCESS:          0 HIT:          0 MISS:          0
cpu0_L1I WRITE        ACCESS:          0 HIT:          0 MISS:          0
cpu0_L1I TRANSLATION  ACCESS:          0 HIT:          0 MISS:          0
cpu0_L1I PREFETCH REQUESTED:          0 ISSUED:          0 USEFUL:          0 USELESS:          0
cpu0_L1I AVERAGE MISS LATENCY: 158.2 cycles
cpu0_L1I TOTAL        ACCESS:          0 HIT:          0 MISS:          0
cpu0_L1I LOAD         ACCESS:          0 HIT:          0 MISS:          0
cpu0_L1I RFO          ACCESS:          0 HIT:          0 MISS:          0
cpu0_L1I PREFETCH     ACCESS:          0 HIT:          0 MISS:          0
cpu0_L1I WRITE        ACCESS:          0 HIT:          0 MISS:          0
cpu0_L1I TRANSLATION  ACCESS:          0 HIT:          0 MISS:          0
cpu0_L1I PREFETCH REQUESTED:          0 ISSUED:          0 USEFUL:          0 USELESS:          0
cpu0_L1I AVERAGE MISS LATENCY: 158.2 cycles
cpu0_L2C TOTAL        ACCESS:    5059832 HIT:    2507260 MISS:    2552572
cpu0_L2C LOAD         ACCESS:    2538953 HIT:     851152 MISS:    1687801
cpu0_L2C RFO          ACCESS:     365168 HIT:     107339 MISS:     257829
cpu0_L2C PREFETCH     ACCESS:      13448 HIT:       4647 MISS:       8801
cpu0_L2C WRITE        ACCESS:    1397037 HIT:    1394793 MISS:       2244
cpu0_L2C TRANSLATION  ACCESS:     745226 HIT:     149329 MISS:     595897
cpu0_L2C PREFETCH REQUESTED:          0 ISSUED:          0 USEFUL:          0 USELESS:          0
cpu0_L2C AVERAGE MISS LATENCY: 1654 cycles
cpu0_L2C TOTAL        ACCESS:          0 HIT:          0 MISS:          0
cpu0_L2C LOAD         ACCESS:          0 HIT:          0 MISS:          0
cpu0_L2C RFO          ACCESS:          0 HIT:          0 MISS:          0
cpu0_L2C PREFETCH     ACCESS:          0 HIT:          0 MISS:          0
cpu0_L2C WRITE        ACCESS:          0 HIT:          0 MISS:          0
cpu0_L2C TRANSLATION  ACCESS:          0 HIT:          0 MISS:          0
cpu0_L2C PREFETCH REQUESTED:          0 ISSUED:          0 USEFUL:          0 USELESS:          0
cpu0_L2C AVERAGE MISS LATENCY: 1654 cycles
cpu0_L2C TOTAL        ACCESS:          0 HIT:          0 MISS:          0
cpu0_L2C LOAD         ACCESS:          0 HIT:          0 MISS:          0
cpu0_L2C RFO          ACCESS:          0 HIT:          0 MISS:          0
cpu0_L2C PREFETCH     ACCESS:          0 HIT:          0 MISS:          0
cpu0_L2C WRITE        ACCESS:          0 HIT:          0 MISS:          0
cpu0_L2C TRANSLATION  ACCESS:          0 HIT:          0 MISS:          0
cpu0_L2C PREFETCH REQUESTED:          0 ISSUED:          0 USEFUL:          0 USELESS:          0
cpu0_L2C AVERAGE MISS LATENCY: 1654 cycles
cpu0_L2C TOTAL        ACCESS:          0 HIT:          0 MISS:          0
cpu0_L2C LOAD         ACCESS:          0 HIT:          0 MISS:          0
cpu0_L2C RFO          ACCESS:          0 HIT:          0 MISS:          0
cpu0_L2C PREFETCH     ACCESS:          0 HIT:          0 MISS:          0
cpu0_L2C WRITE        ACCESS:          0 HIT:          0 MISS:          0
cpu0_L2C TRANSLATION  ACCESS:          0 HIT:          0 MISS:          0
cpu0_L2C PREFETCH REQUESTED:          0 ISSUED:          0 USEFUL:          0 USELESS:          0
cpu0_L2C AVERAGE MISS LATENCY: 1654 cycles
cpu0_STLB TOTAL        ACCESS:    3015255 HIT:    2372809 MISS:     642446
cpu0_STLB LOAD         ACCESS:    3015255 HIT:    2372809 MISS:     642446
cpu0_STLB RFO          ACCESS:          0 HIT:          0 MISS:          0
cpu0_STLB PREFETCH     ACCESS:          0 HIT:          0 MISS:          0
cpu0_STLB WRITE        ACCESS:          0 HIT:          0 MISS:          0
cpu0_STLB TRANSLATION  ACCESS:          0 HIT:          0 MISS:          0
cpu0_STLB PREFETCH REQUESTED:          0 ISSUED:          0 USEFUL:          0 USELESS:          0
cpu0_STLB AVERAGE MISS LATENCY: 1674 cycles
cpu0_STLB TOTAL        ACCESS:          0 HIT:          0 MISS:          0
cpu0_STLB LOAD         ACCESS:          0 HIT:          0 MISS:          0
cpu0_STLB RFO          ACCESS:          0 HIT:          0 MISS:          0
cpu0_STLB PREFETCH     ACCESS:          0 HIT:          0 MISS:          0
cpu0_STLB WRITE        ACCESS:          0 HIT:          0 MISS:          0
cpu0_STLB TRANSLATION  ACCESS:          0 HIT:          0 MISS:          0
cpu0_STLB PREFETCH REQUESTED:          0 ISSUED:          0 USEFUL:          0 USELESS:          0
cpu0_STLB AVERAGE MISS LATENCY: 1674 cycles
cpu0_STLB TOTAL        ACCESS:          0 HIT:          0 MISS:          0
cpu0_STLB LOAD         ACCESS:          0 HIT:          0 MISS:          0
cpu0_STLB RFO          ACCESS:          0 HIT:          0 MISS:          0
cpu0_STLB PREFETCH     ACCESS:          0 HIT:          0 MISS:          0
cpu0_STLB WRITE        ACCESS:          0 HIT:          0 MISS:          0
cpu0_STLB TRANSLATION  ACCESS:          0 HIT:          0 MISS:          0
cpu0_STLB PREFETCH REQUESTED:          0 ISSUED:          0 USEFUL:          0 USELESS:          0
cpu0_STLB AVERAGE MISS LATENCY: 1674 cycles
cpu0_STLB TOTAL        ACCESS:          0 HIT:          0 MISS:          0
cpu0_STLB LOAD         ACCESS:          0 HIT:          0 MISS:          0
cpu0_STLB RFO          ACCESS:          0 HIT:          0 MISS:          0
cpu0_STLB PREFETCH     ACCESS:          0 HIT:          0 MISS:          0
cpu0_STLB WRITE        ACCESS:          0 HIT:          0 MISS:          0
cpu0_STLB TRANSLATION  ACCESS:          0 HIT:          0 MISS:          0
cpu0_STLB PREFETCH REQUESTED:          0 ISSUED:          0 USEFUL:          0 USELESS:          0
cpu0_STLB AVERAGE MISS LATENCY: 1674 cycles
cpu1_DTLB TOTAL        ACCESS:          0 HIT:          0 MISS:          0
cpu1_DTLB LOAD         ACCESS:          0 HIT:          0 MISS:          0
cpu1_DTLB RFO          ACCESS:          0 HIT:          0 MISS:          0
cpu1_DTLB PREFETCH     ACCESS:          0 HIT:          0 MISS:          0
cpu1_DTLB WRITE        ACCESS:          0 HIT:          0 MISS:          0
cpu1_DTLB TRANSLATION  ACCESS:          0 HIT:          0 MISS:          0
cpu1_DTLB PREFETCH REQUESTED:          0 ISSUED:          0 USEFUL:          0 USELESS:          0
cpu1_DTLB AVERAGE MISS LATENCY: 25.96 cycles
cpu1_DTLB TOTAL        ACCESS:   89064167 HIT:   88322946 MISS:     741221
cpu1_DTLB LOAD         ACCESS:   89064167 HIT:   88322946 MISS:     741221
cpu1_DTLB RFO          ACCESS:          0 HIT:          0 MISS:          0
cpu1_DTLB PREFETCH     ACCESS:          0 HIT:          0 MISS:          0
cpu1_DTLB WRITE        ACCESS:          0 HIT:          0 MISS:          0
cpu1_DTLB TRANSLATION  ACCESS:          0 HIT:          0 MISS:          0
cpu1_DTLB PREFETCH REQUESTED:          0 ISSUED:          0 USEFUL:          0 USELESS:          0
cpu1_DTLB AVERAGE MISS LATENCY: 25.96 cycles
cpu1_DTLB TOTAL        ACCESS:          0 HIT:          0 MISS:          0
cpu1_DTLB LOAD         ACCESS:          0 HIT:          0 MISS:          0
cpu1_DTLB RFO          ACCESS:          0 HIT:          0 MISS:          0
cpu1_DTLB PREFETCH     ACCESS:          0 HIT:          0 MISS:          0
cpu1_DTLB WRITE        ACCESS:          0 HIT:          0 MISS:          0
cpu1_DTLB TRANSLATION  ACCESS:          0 HIT:          0 MISS:          0
cpu1_DTLB PREFETCH REQUESTED:          0 ISSUED:          0 USEFUL:          0 USELESS:          0
cpu1_DTLB AVERAGE MISS LATENCY: 25.96 cycles
cpu1_DTLB TOTAL        ACCESS:          0 HIT:          0 MISS:          0
cpu1_DTLB LOAD         ACCESS:          0 HIT:          0 MISS:          0
cpu1_DTLB RFO          ACCESS:          0 HIT:          0 MISS:          0
cpu1_DTLB PREFETCH     ACCESS:          0 HIT:          0 MISS:          0
cpu1_DTLB WRITE        ACCESS:          0 HIT:          0 MISS:          0
cpu1_DTLB TRANSLATION  ACCESS:          0 HIT:          0 MISS:          0
cpu1_DTLB PREFETCH REQUESTED:          0 ISSUED:          0 USEFUL:          0 USELESS:          0
cpu1_DTLB AVERAGE MISS LATENCY: 25.96 cycles
cpu1_ITLB TOTAL        ACCESS:          0 HIT:          0 MISS:          0
cpu1_ITLB LOAD         ACCESS:          0 HIT:          0 MISS:          0
cpu1_ITLB RFO          ACCESS:          0 HIT:          0 MISS:          0
cpu1_ITLB PREFETCH     ACCESS:          0 HIT:          0 MISS:          0
cpu1_ITLB WRITE        ACCESS:          0 HIT:          0 MISS:          0
cpu1_ITLB TRANSLATION  ACCESS:          0 HIT:          0 MISS:          0
cpu1_ITLB PREFETCH REQUESTED:          0 ISSUED:          0 USEFUL:          0 USELESS:          0
cpu1_ITLB AVERAGE MISS LATENCY: 581.2 cycles
cpu1_ITLB TOTAL        ACCESS:       2759 HIT:       2740 MISS:         19
cpu1_ITLB LOAD         ACCESS:       2759 HIT:       2740 MISS:         19
cpu1_ITLB RFO          ACCESS:          0 HIT:          0 MISS:          0
cpu1_ITLB PREFETCH     ACCESS:          0 HIT:          0 MISS:          0
cpu1_ITLB WRITE        ACCESS:          0 HIT:          0 MISS:          0
cpu1_ITLB TRANSLATION  ACCESS:          0 HIT:          0 MISS:          0
cpu1_ITLB PREFETCH REQUESTED:          0 ISSUED:          0 USEFUL:          0 USELESS:          0
cpu1_ITLB AVERAGE MISS LATENCY: 581.2 cycles
cpu1_ITLB TOTAL        ACCESS:          0 HIT:          0 MISS:          0
cpu1_ITLB LOAD         ACCESS:          0 HIT:          0 MISS:          0
cpu1_ITLB RFO          ACCESS:          0 HIT:          0 MISS:          0
cpu1_ITLB PREFETCH     ACCESS:          0 HIT:          0 MISS:          0
cpu1_ITLB WRITE        ACCESS:          0 HIT:          0 MISS:          0
cpu1_ITLB TRANSLATION  ACCESS:          0 HIT:          0 MISS:          0
cpu1_ITLB PREFETCH REQUESTED:          0 ISSUED:          0 USEFUL:          0 USELESS:          0
cpu1_ITLB AVERAGE MISS LATENCY: 581.2 cycles
cpu1_ITLB TOTAL        ACCESS:          0 HIT:          0 MISS:          0
cpu1_ITLB LOAD         ACCESS:          0 HIT:          0 MISS:          0
cpu1_ITLB RFO          ACCESS:          0 HIT:          0 MISS:          0
cpu1_ITLB PREFETCH     ACCESS:          0 HIT:          0 MISS:          0
cpu1_ITLB WRITE        ACCESS:          0 HIT:          0 MISS:          0
cpu1_ITLB TRANSLATION  ACCESS:          0 HIT:          0 MISS:          0
cpu1_ITLB PREFETCH REQUESTED:          0 ISSUED:          0 USEFUL:          0 USELESS:          0
cpu1_ITLB AVERAGE MISS LATENCY: 581.2 cycles
cpu1_L1D TOTAL        ACCESS:          0 HIT:          0 MISS:          0
cpu1_L1D LOAD         ACCESS:          0 HIT:          0 MISS:          0
cpu1_L1D RFO          ACCESS:          0 HIT:          0 MISS:          0
cpu1_L1D PREFETCH     ACCESS:          0 HIT:          0 MISS:          0
cpu1_L1D WRITE        ACCESS:          0 HIT:          0 MISS:          0
cpu1_L1D TRANSLATION  ACCESS:          0 HIT:          0 MISS:          0
cpu1_L1D PREFETCH REQUESTED:  214690193 ISSUED:   43708503 USEFUL:    7546553 USELESS:     909503
cpu1_L1D AVERAGE MISS LATENCY: 344.7 cycles
cpu1_L1D TOTAL        ACCESS:  182170419 HIT:  155372495 MISS:   26797924
cpu1_L1D LOAD         ACCESS:   80922601 HIT:   72327960 MISS:    8594641
cpu1_L1D RFO          ACCESS:          0 HIT:          0 MISS:          0
cpu1_L1D PREFETCH     ACCESS:   43708535 HIT:   25559594 MISS:   18148941
cpu1_L1D WRITE        ACCESS:   57427193 HIT:   57377296 MISS:      49897
cpu1_L1D TRANSLATION  ACCESS:     112090 HIT:     107645 MISS:       4445
cpu1_L1D PREFETCH REQUESTED:  214690193 ISSUED:   43708503 USEFUL:    7546553 USELESS:     909503
cpu1_L1D AVERAGE MISS LATENCY: 344.7 cycles
cpu1_L1D TOTAL        ACCESS:          0 HIT:          0 MISS:          0
cpu1_L1D LOAD         ACCESS:          0 HIT:          0 MISS:          0
cpu1_L1D RFO          ACCESS:          0 HIT:          0 MISS:          0
cpu1_L1D PREFETCH     ACCESS:          0 HIT:          0 MISS:          0
cpu1_L1D WRITE        ACCESS:          0 HIT:          0 MISS:          0
cpu1_L1D TRANSLATION  ACCESS:          0 HIT:          0 MISS:          0
cpu1_L1D PREFETCH REQUESTED:  214690193 ISSUED:   43708503 USEFUL:    7546553 USELESS:     909503
cpu1_L1D AVERAGE MISS LATENCY: 344.7 cycles
cpu1_L1D TOTAL        ACCESS:          0 HIT:          0 MISS:          0
cpu1_L1D LOAD         ACCESS:          0 HIT:          0 MISS:          0
cpu1_L1D RFO          ACCESS:          0 HIT:          0 MISS:          0
cpu1_L1D PREFETCH     ACCESS:          0 HIT:          0 MISS:          0
cpu1_L1D WRITE        ACCESS:          0 HIT:          0 MISS:          0
cpu1_L1D TRANSLATION  ACCESS:          0 HIT:          0 MISS:          0
cpu1_L1D PREFETCH REQUESTED:  214690193 ISSUED:   43708503 USEFUL:    7546553 USELESS:     909503
cpu1_L1D AVERAGE MISS LATENCY: 344.7 cycles
cpu1_L1I TOTAL        ACCESS:          0 HIT:          0 MISS:          0
[...]
cpu2_L2C PREFETCH     ACCESS:          0 HIT:          0 MISS:          0
cpu2_L2C WRITE        ACCESS:          0 HIT:          0 MISS:          0
cpu2_L2C TRANSLATION  ACCESS:          0 HIT:          0 MISS:          0
cpu2_L2C PREFETCH REQUESTED:          0 ISSUED:          0 USEFUL:          0 USELESS:          0
cpu2_L2C AVERAGE MISS LATENCY: 1098 cycles
cpu2_L2C TOTAL        ACCESS:          0 HIT:          0 MISS:          0
cpu2_L2C LOAD         ACCESS:          0 HIT:          0 MISS:          0
cpu2_L2C RFO          ACCESS:          0 HIT:          0 MISS:          0
cpu2_L2C PREFETCH     ACCESS:          0 HIT:          0 MISS:          0
cpu2_L2C WRITE        ACCESS:          0 HIT:          0 MISS:          0
cpu2_L2C TRANSLATION  ACCESS:          0 HIT:          0 MISS:          0
cpu2_L2C PREFETCH REQUESTED:          0 ISSUED:          0 USEFUL:          0 USELESS:          0
cpu2_L2C AVERAGE MISS LATENCY: 1098 cycles
cpu2_L2C TOTAL        ACCESS:    9474923 HIT:    8769684 MISS:     705239
cpu2_L2C LOAD         ACCESS:    7725835 HIT:    7322997 MISS:     402838
cpu2_L2C RFO          ACCESS:     204772 HIT:      46871 MISS:     157901
cpu2_L2C PREFETCH     ACCESS:     945334 HIT:     838520 MISS:     106814
cpu2_L2C WRITE        ACCESS:     341472 HIT:     341453 MISS:         19
cpu2_L2C TRANSLATION  ACCESS:     257510 HIT:     219843 MISS:      37667
cpu2_L2C PREFETCH REQUESTED:          0 ISSUED:          0 USEFUL:          0 USELESS:          0
cpu2_L2C AVERAGE MISS LATENCY: 1098 cycles
cpu2_L2C TOTAL        ACCESS:          0 HIT:          0 MISS:          0
cpu2_L2C LOAD         ACCESS:          0 HIT:          0 MISS:          0
cpu2_L2C RFO          ACCESS:          0 HIT:          0 MISS:          0
cpu2_L2C PREFETCH     ACCESS:          0 HIT:          0 MISS:          0
cpu2_L2C WRITE        ACCESS:          0 HIT:          0 MISS:          0
cpu2_L2C TRANSLATION  ACCESS:          0 HIT:          0 MISS:          0
cpu2_L2C PREFETCH REQUESTED:          0 ISSUED:          0 USEFUL:          0 USELESS:          0
cpu2_L2C AVERAGE MISS LATENCY: 1098 cycles
cpu2_STLB TOTAL        ACCESS:          0 HIT:          0 MISS:          0
cpu2_STLB LOAD         ACCESS:          0 HIT:          0 MISS:          0
cpu2_STLB RFO          ACCESS:          0 HIT:          0 MISS:          0
cpu2_STLB PREFETCH     ACCESS:          0 HIT:          0 MISS:          0
cpu2_STLB WRITE        ACCESS:          0 HIT:          0 MISS:          0
cpu2_STLB TRANSLATION  ACCESS:          0 HIT:          0 MISS:          0
cpu2_STLB PREFETCH REQUESTED:          0 ISSUED:          0 USEFUL:          0 USELESS:          0
cpu2_STLB AVERAGE MISS LATENCY: 132.4 cycles
cpu2_STLB TOTAL        ACCESS:          0 HIT:          0 MISS:          0
cpu2_STLB LOAD         ACCESS:          0 HIT:          0 MISS:          0
cpu2_STLB RFO          ACCESS:          0 HIT:          0 MISS:          0
cpu2_STLB PREFETCH     ACCESS:          0 HIT:          0 MISS:          0
cpu2_STLB WRITE        ACCESS:          0 HIT:          0 MISS:          0
cpu2_STLB TRANSLATION  ACCESS:          0 HIT:          0 MISS:          0
cpu2_STLB PREFETCH REQUESTED:          0 ISSUED:          0 USEFUL:          0 USELESS:          0
cpu2_STLB AVERAGE MISS LATENCY: 132.4 cycles
cpu2_STLB TOTAL        ACCESS:    4509989 HIT:    4240916 MISS:     269073
cpu2_STLB LOAD         ACCESS:    4509989 HIT:    4240916 MISS:     269073
cpu2_STLB RFO          ACCESS:          0 HIT:          0 MISS:          0
cpu2_STLB PREFETCH     ACCESS:          0 HIT:          0 MISS:          0
cpu2_STLB WRITE        ACCESS:          0 HIT:          0 MISS:          0
cpu2_STLB TRANSLATION  ACCESS:          0 HIT:          0 MISS:          0
cpu2_STLB PREFETCH REQUESTED:          0 ISSUED:          0 USEFUL:          0 USELESS:          0
cpu2_STLB AVERAGE MISS LATENCY: 132.4 cycles
cpu2_STLB TOTAL        ACCESS:          0 HIT:          0 MISS:          0
cpu2_STLB LOAD         ACCESS:          0 HIT:          0 MISS:          0
cpu2_STLB RFO          ACCESS:          0 HIT:          0 MISS:          0
cpu2_STLB PREFETCH     ACCESS:          0 HIT:          0 MISS:          0
cpu2_STLB WRITE        ACCESS:          0 HIT:          0 MISS:          0
cpu2_STLB TRANSLATION  ACCESS:          0 HIT:          0 MISS:          0
cpu2_STLB PREFETCH REQUESTED:          0 ISSUED:          0 USEFUL:          0 USELESS:          0
cpu2_STLB AVERAGE MISS LATENCY: 132.4 cycles
cpu3_DTLB TOTAL        ACCESS:          0 HIT:          0 MISS:          0
cpu3_DTLB LOAD         ACCESS:          0 HIT:          0 MISS:          0
cpu3_DTLB RFO          ACCESS:          0 HIT:          0 MISS:          0
cpu3_DTLB PREFETCH     ACCESS:          0 HIT:          0 MISS:          0
cpu3_DTLB WRITE        ACCESS:          0 HIT:          0 MISS:          0
cpu3_DTLB TRANSLATION  ACCESS:          0 HIT:          0 MISS:          0
cpu3_DTLB PREFETCH REQUESTED:          0 ISSUED:          0 USEFUL:          0 USELESS:          0
cpu3_DTLB AVERAGE MISS LATENCY: 15.76 cycles
cpu3_DTLB TOTAL        ACCESS:          0 HIT:          0 MISS:          0
cpu3_DTLB LOAD         ACCESS:          0 HIT:          0 MISS:          0
cpu3_DTLB RFO          ACCESS:          0 HIT:          0 MISS:          0
cpu3_DTLB PREFETCH     ACCESS:          0 HIT:          0 MISS:          0
cpu3_DTLB WRITE        ACCESS:          0 HIT:          0 MISS:          0
cpu3_DTLB TRANSLATION  ACCESS:          0 HIT:          0 MISS:          0
cpu3_DTLB PREFETCH REQUESTED:          0 ISSUED:          0 USEFUL:          0 USELESS:          0
cpu3_DTLB AVERAGE MISS LATENCY: 15.76 cycles
cpu3_DTLB TOTAL        ACCESS:          0 HIT:          0 MISS:          0
cpu3_DTLB LOAD         ACCESS:          0 HIT:          0 MISS:          0
cpu3_DTLB RFO          ACCESS:          0 HIT:          0 MISS:          0
cpu3_DTLB PREFETCH     ACCESS:          0 HIT:          0 MISS:          0
cpu3_DTLB WRITE        ACCESS:          0 HIT:          0 MISS:          0
cpu3_DTLB TRANSLATION  ACCESS:          0 HIT:          0 MISS:          0
cpu3_DTLB PREFETCH REQUESTED:          0 ISSUED:          0 USEFUL:          0 USELESS:          0
cpu3_DTLB AVERAGE MISS LATENCY: 15.76 cycles
cpu3_DTLB TOTAL        ACCESS:   17700764 HIT:   17690278 MISS:      10486
cpu3_DTLB LOAD         ACCESS:   17700764 HIT:   17690278 MISS:      10486
cpu3_DTLB RFO          ACCESS:          0 HIT:          0 MISS:          0
cpu3_DTLB PREFETCH     ACCESS:          0 HIT:          0 MISS:          0
cpu3_DTLB WRITE        ACCESS:          0 HIT:          0 MISS:          0
cpu3_DTLB TRANSLATION  ACCESS:          0 HIT:          0 MISS:          0
cpu3_DTLB PREFETCH REQUESTED:          0 ISSUED:          0 USEFUL:          0 USELESS:          0
cpu3_DTLB AVERAGE MISS LATENCY: 15.76 cycles
cpu3_ITLB TOTAL        ACCESS:          0 HIT:          0 MISS:          0
cpu3_ITLB LOAD         ACCESS:          0 HIT:          0 MISS:          0
cpu3_ITLB RFO          ACCESS:          0 HIT:          0 MISS:          0
cpu3_ITLB PREFETCH     ACCESS:          0 HIT:          0 MISS:          0
cpu3_ITLB WRITE        ACCESS:          0 HIT:          0 MISS:          0
cpu3_ITLB TRANSLATION  ACCESS:          0 HIT:          0 MISS:          0
cpu3_ITLB PREFETCH REQUESTED:          0 ISSUED:          0 USEFUL:          0 USELESS:          0
cpu3_ITLB AVERAGE MISS LATENCY: 398.3 cycles
cpu3_ITLB TOTAL        ACCESS:          0 HIT:          0 MISS:          0
cpu3_ITLB LOAD         ACCESS:          0 HIT:          0 MISS:          0
cpu3_ITLB RFO          ACCESS:          0 HIT:          0 MISS:          0
cpu3_ITLB PREFETCH     ACCESS:          0 HIT:          0 MISS:          0
cpu3_ITLB WRITE        ACCESS:          0 HIT:          0 MISS:          0
cpu3_ITLB TRANSLATION  ACCESS:          0 HIT:          0 MISS:          0
cpu3_ITLB PREFETCH REQUESTED:          0 ISSUED:          0 USEFUL:          0 USELESS:          0
cpu3_ITLB AVERAGE MISS LATENCY: 398.3 cycles
cpu3_ITLB TOTAL        ACCESS:          0 HIT:          0 MISS:          0
cpu3_ITLB LOAD         ACCESS:          0 HIT:          0 MISS:          0
cpu3_ITLB RFO          ACCESS:          0 HIT:          0 MISS:          0
cpu3_ITLB PREFETCH     ACCESS:          0 HIT:          0 MISS:          0
cpu3_ITLB WRITE        ACCESS:          0 HIT:          0 MISS:          0
cpu3_ITLB TRANSLATION  ACCESS:          0 HIT:          0 MISS:          0
cpu3_ITLB PREFETCH REQUESTED:          0 ISSUED:          0 USEFUL:          0 USELESS:          0
cpu3_ITLB AVERAGE MISS LATENCY: 398.3 cycles
cpu3_ITLB TOTAL        ACCESS:     512663 HIT:     512663 MISS:          0
cpu3_ITLB LOAD         ACCESS:     512663 HIT:     512663 MISS:          0
cpu3_ITLB RFO          ACCESS:          0 HIT:          0 MISS:          0
cpu3_ITLB PREFETCH     ACCESS:          0 HIT:          0 MISS:          0
cpu3_ITLB WRITE        ACCESS:          0 HIT:          0 MISS:          0
cpu3_ITLB TRANSLATION  ACCESS:          0 HIT:          0 MISS:          0
cpu3_ITLB PREFETCH REQUESTED:          0 ISSUED:          0 USEFUL:          0 USELESS:          0
cpu3_ITLB AVERAGE MISS LATENCY: 398.3 cycles
cpu3_L1D TOTAL        ACCESS:          0 HIT:          0 MISS:          0
cpu3_L1D LOAD         ACCESS:          0 HIT:          0 MISS:          0
cpu3_L1D RFO          ACCESS:          0 HIT:          0 MISS:          0
cpu3_L1D PREFETCH     ACCESS:          0 HIT:          0 MISS:          0
cpu3_L1D WRITE        ACCESS:          0 HIT:          0 MISS:          0
cpu3_L1D TRANSLATION  ACCESS:          0 HIT:          0 MISS:          0
cpu3_L1D PREFETCH REQUESTED:  322364862 ISSUED:   34483920 USEFUL:    4719311 USELESS:     952080
cpu3_L1D AVERAGE MISS LATENCY: 342.8 cycles
cpu3_L1D TOTAL        ACCESS:          0 HIT:          0 MISS:          0
cpu3_L1D LOAD         ACCESS:          0 HIT:          0 MISS:          0
cpu3_L1D RFO          ACCESS:          0 HIT:          0 MISS:          0
cpu3_L1D PREFETCH     ACCESS:          0 HIT:          0 MISS:          0
cpu3_L1D WRITE        ACCESS:          0 HIT:          0 MISS:          0
cpu3_L1D TRANSLATION  ACCESS:          0 HIT:          0 MISS:          0
cpu3_L1D PREFETCH REQUESTED:  322364862 ISSUED:   34483920 USEFUL:    4719311 USELESS:     952080
cpu3_L1D AVERAGE MISS LATENCY: 342.8 cycles
cpu3_L1D TOTAL        ACCESS:          0 HIT:          0 MISS:          0
cpu3_L1D LOAD         ACCESS:          0 HIT:          0 MISS:          0
cpu3_L1D RFO          ACCESS:          0 HIT:          0 MISS:          0
cpu3_L1D PREFETCH     ACCESS:          0 HIT:          0 MISS:          0
cpu3_L1D WRITE        ACCESS:          0 HIT:          0 MISS:          0
cpu3_L1D TRANSLATION  ACCESS:          0 HIT:          0 MISS:          0
cpu3_L1D PREFETCH REQUESTED:  322364862 ISSUED:   34483920 USEFUL:    4719311 USELESS:     952080
cpu3_L1D AVERAGE MISS LATENCY: 342.8 cycles
cpu3_L1D TOTAL        ACCESS:   22039314 HIT:   22013176 MISS:      26138
cpu3_L1D LOAD         ACCESS:   16453110 HIT:   16451107 MISS:       2003
cpu3_L1D RFO          ACCESS:          0 HIT:          0 MISS:          0
cpu3_L1D PREFETCH     ACCESS:      23618 HIT:      12187 MISS:      11431
cpu3_L1D WRITE        ACCESS:    5562415 HIT:    5549865 MISS:      12550
cpu3_L1D TRANSLATION  ACCESS:        171 HIT:         17 MISS:        154
cpu3_L1D PREFETCH REQUESTED:  322364862 ISSUED:   34483920 USEFUL:    4719311 USELESS:     952080
cpu3_L1D AVERAGE MISS LATENCY: 342.8 cycles
cpu3_L1I TOTAL        ACCESS:          0 HIT:          0 MISS:          0
cpu3_L1I LOAD         ACCESS:          0 HIT:          0 MISS:          0
cpu3_L1I RFO          ACCESS:          0 HIT:          0 MISS:          0
cpu3_L1I PREFETCH     ACCESS:          0 HIT:          0 MISS:          0
cpu3_L1I WRITE        ACCESS:          0 HIT:          0 MISS:          0
cpu3_L1I TRANSLATION  ACCESS:          0 HIT:          0 MISS:          0
cpu3_L1I PREFETCH REQUESTED:          0 ISSUED:          0 USEFUL:          0 USELESS:          0
cpu3_L1I AVERAGE MISS LATENCY: 39.91 cycles
cpu3_L1I TOTAL        ACCESS:          0 HIT:          0 MISS:          0
cpu3_L1I LOAD         ACCESS:          0 HIT:          0 MISS:          0
cpu3_L1I RFO          ACCESS:          0 HIT:          0 MISS:          0
cpu3_L1I PREFETCH     ACCESS:          0 HIT:          0 MISS:          0
cpu3_L1I WRITE        ACCESS:          0 HIT:          0 MISS:          0
cpu3_L1I TRANSLATION  ACCESS:          0 HIT:          0 MISS:          0
cpu3_L1I PREFETCH REQUESTED:          0 ISSUED:          0 USEFUL:          0 USELESS:          0
cpu3_L1I AVERAGE MISS LATENCY: 39.91 cycles
cpu3_L1I TOTAL        ACCESS:          0 HIT:          0 MISS:          0
cpu3_L1I LOAD         ACCESS:          0 HIT:          0 MISS:          0
cpu3_L1I RFO          ACCESS:          0 HIT:          0 MISS:          0
cpu3_L1I PREFETCH     ACCESS:          0 HIT:          0 MISS:          0
cpu3_L1I WRITE        ACCESS:          0 HIT:          0 MISS:          0
cpu3_L1I TRANSLATION  ACCESS:          0 HIT:          0 MISS:          0
cpu3_L1I PREFETCH REQUESTED:          0 ISSUED:          0 USEFUL:          0 USELESS:          0
cpu3_L1I AVERAGE MISS LATENCY: 39.91 cycles
cpu3_L1I TOTAL        ACCESS:     550965 HIT:     549530 MISS:       1435
cpu3_L1I LOAD         ACCESS:     550965 HIT:     549530 MISS:       1435
cpu3_L1I RFO          ACCESS:          0 HIT:          0 MISS:          0
cpu3_L1I PREFETCH     ACCESS:          0 HIT:          0 MISS:          0
cpu3_L1I WRITE        ACCESS:          0 HIT:          0 MISS:          0
cpu3_L1I TRANSLATION  ACCESS:          0 HIT:          0 MISS:          0
cpu3_L1I PREFETCH REQUESTED:          0 ISSUED:          0 USEFUL:          0 USELESS:          0
cpu3_L1I AVERAGE MISS LATENCY: 39.91 cycles
cpu3_L2C TOTAL        ACCESS:          0 HIT:          0 MISS:          0
cpu3_L2C LOAD         ACCESS:          0 HIT:          0 MISS:          0
cpu3_L2C RFO          ACCESS:          0 HIT:          0 MISS:          0
cpu3_L2C PREFETCH     ACCESS:          0 HIT:          0 MISS:          0
cpu3_L2C WRITE        ACCESS:          0 HIT:          0 MISS:          0
cpu3_L2C TRANSLATION  ACCESS:          0 HIT:          0 MISS:          0
cpu3_L2C PREFETCH REQUESTED:          0 ISSUED:          0 USEFUL:          0 USELESS:          0
cpu3_L2C AVERAGE MISS LATENCY: 1453 cycles
cpu3_L2C TOTAL        ACCESS:          0 HIT:          0 MISS:          0
cpu3_L2C LOAD         ACCESS:          0 HIT:          0 MISS:          0
cpu3_L2C RFO          ACCESS:          0 HIT:          0 MISS:          0
cpu3_L2C PREFETCH     ACCESS:          0 HIT:          0 MISS:          0
cpu3_L2C WRITE        ACCESS:          0 HIT:          0 MISS:          0
cpu3_L2C TRANSLATION  ACCESS:          0 HIT:          0 MISS:          0
cpu3_L2C PREFETCH REQUESTED:          0 ISSUED:          0 USEFUL:          0 USELESS:          0
cpu3_L2C AVERAGE MISS LATENCY: 1453 cycles
cpu3_L2C TOTAL        ACCESS:          0 HIT:          0 MISS:          0
cpu3_L2C LOAD         ACCESS:          0 HIT:          0 MISS:          0
cpu3_L2C RFO          ACCESS:          0 HIT:          0 MISS:          0
cpu3_L2C PREFETCH     ACCESS:          0 HIT:          0 MISS:          0
cpu3_L2C WRITE        ACCESS:          0 HIT:          0 MISS:          0
cpu3_L2C TRANSLATION  ACCESS:          0 HIT:          0 MISS:          0
cpu3_L2C PREFETCH REQUESTED:          0 ISSUED:          0 USEFUL:          0 USELESS:          0
cpu3_L2C AVERAGE MISS LATENCY: 1453 cycles
cpu3_L2C TOTAL        ACCESS:      19240 HIT:      10429 MISS:       8811
cpu3_L2C LOAD         ACCESS:       2130 HIT:       1332 MISS:        798
cpu3_L2C RFO          ACCESS:       2519 HIT:        103 MISS:       2416
cpu3_L2C PREFETCH     ACCESS:      11362 HIT:       5865 MISS:       5497
cpu3_L2C WRITE        ACCESS:       3075 HIT:       3070 MISS:          5
cpu3_L2C TRANSLATION  ACCESS:        154 HIT:         59 MISS:         95
cpu3_L2C PREFETCH REQUESTED:          0 ISSUED:          0 USEFUL:          0 USELESS:          0
cpu3_L2C AVERAGE MISS LATENCY: 1453 cycles
cpu3_STLB TOTAL        ACCESS:          0 HIT:          0 MISS:          0
cpu3_STLB LOAD         ACCESS:          0 HIT:          0 MISS:          0
cpu3_STLB RFO          ACCESS:          0 HIT:          0 MISS:          0
cpu3_STLB PREFETCH     ACCESS:          0 HIT:          0 MISS:          0
cpu3_STLB WRITE        ACCESS:          0 HIT:          0 MISS:          0
cpu3_STLB TRANSLATION  ACCESS:          0 HIT:          0 MISS:          0
cpu3_STLB PREFETCH REQUESTED:          0 ISSUED:          0 USEFUL:          0 USELESS:          0
cpu3_STLB AVERAGE MISS LATENCY: 312.2 cycles
cpu3_STLB TOTAL        ACCESS:          0 HIT:          0 MISS:          0
cpu3_STLB LOAD         ACCESS:          0 HIT:          0 MISS:          0
cpu3_STLB RFO          ACCESS:          0 HIT:          0 MISS:          0
cpu3_STLB PREFETCH     ACCESS:          0 HIT:          0 MISS:          0
cpu3_STLB WRITE        ACCESS:          0 HIT:          0 MISS:          0
cpu3_STLB TRANSLATION  ACCESS:          0 HIT:          0 MISS:          0
cpu3_STLB PREFETCH REQUESTED:          0 ISSUED:          0 USEFUL:          0 USELESS:          0
cpu3_STLB AVERAGE MISS LATENCY: 312.2 cycles
cpu3_STLB TOTAL        ACCESS:          0 HIT:          0 MISS:          0
cpu3_STLB LOAD         ACCESS:          0 HIT:          0 MISS:          0
cpu3_STLB RFO          ACCESS:          0 HIT:          0 MISS:          0
cpu3_STLB PREFETCH     ACCESS:          0 HIT:          0 MISS:          0
cpu3_STLB WRITE        ACCESS:          0 HIT:          0 MISS:          0
cpu3_STLB TRANSLATION  ACCESS:          0 HIT:          0 MISS:          0
cpu3_STLB PREFETCH REQUESTED:          0 ISSUED:          0 USEFUL:          0 USELESS:          0
cpu3_STLB AVERAGE MISS LATENCY: 312.2 cycles
cpu3_STLB TOTAL        ACCESS:       9221 HIT:       9051 MISS:        170
cpu3_STLB LOAD         ACCESS:       9221 HIT:       9051 MISS:        170
cpu3_STLB RFO          ACCESS:          0 HIT:          0 MISS:          0
cpu3_STLB PREFETCH     ACCESS:          0 HIT:          0 MISS:          0
cpu3_STLB WRITE        ACCESS:          0 HIT:          0 MISS:          0
cpu3_STLB TRANSLATION  ACCESS:          0 HIT:          0 MISS:          0
cpu3_STLB PREFETCH REQUESTED:          0 ISSUED:          0 USEFUL:          0 USELESS:          0
cpu3_STLB AVERAGE MISS LATENCY: 312.2 cycles

DRAM Statistics

Channel 0 RQ ROW_BUFFER_HIT:    3764676
  ROW_BUFFER_MISS:   15626751
 AVG DBUS CONGESTED CYCLE: 3.991
WQ ROW_BUFFER_HIT: Channel 0 
  ROW_BUFFER_MISS:     336876
  FULL:   12199812
BERTI TO_L1: 410515892 TO_L2: 462956260 TO_L2_BC_MSHR: 79590903
BERTI AVG_LAT: 662.699 NUM_TRACK_LATENCY: 93668148 NUM_CANT_TRACK_LATENCY: 1013263
BERTI CROSS_PAGE 157054457 NO_CROSS_PAGE: 716417695
BERTI FOUND_BERTI: 285234901 NO_FOUND_BERTI: 234081589
BERTI AVERAGE_ISSUED: 2.37516
BERTI TO_L1: 410515892 TO_L2: 462956260 TO_L2_BC_MSHR: 79590903
BERTI AVG_LAT: 662.699 NUM_TRACK_LATENCY: 93668148 NUM_CANT_TRACK_LATENCY: 1013263
BERTI CROSS_PAGE 157054457 NO_CROSS_PAGE: 716417695
BERTI FOUND_BERTI: 285234901 NO_FOUND_BERTI: 234081589
BERTI AVERAGE_ISSUED: 2.37516
BERTI TO_L1: 410515892 TO_L2: 462956260 TO_L2_BC_MSHR: 79590903
BERTI AVG_LAT: 662.699 NUM_TRACK_LATENCY: 93668148 NUM_CANT_TRACK_LATENCY: 1013263
BERTI CROSS_PAGE 157054457 NO_CROSS_PAGE: 716417695
BERTI FOUND_BERTI: 285234901 NO_FOUND_BERTI: 234081589
BERTI AVERAGE_ISSUED: 2.37516
BERTI TO_L1: 410515892 TO_L2: 462956260 TO_L2_BC_MSHR: 79590903
BERTI AVG_LAT: 662.699 NUM_TRACK_LATENCY: 93668148 NUM_CANT_TRACK_LATENCY: 1013263
BERTI CROSS_PAGE 157054457 NO_CROSS_PAGE: 716417695
BERTI FOUND_BERTI: 285234901 NO_FOUND_BERTI: 234081589
BERTI AVERAGE_ISSUED: 2.37516
