WARNING: physical memory size is smaller than virtual memory size.
WARNING: option --warmup_instructions is deprecated. Use --warmup-instructions instead.
WARNING: option --simulation_instructions is deprecated. Use --simulation-instructions instead.

*** ChampSim Multicore Out-of-Order Simulator ***
Warmup Instructions: 50000000
Simulation Instructions: 150000000
Number of CPUs: 4
Page size: 4096

Berti Prefetcher
BERTI HASH ORIGINAL
BERTI IP MASK ffff
Berti Prefetcher
BERTI HASH ORIGINAL
BERTI IP MASK ffff
Berti Prefetcher
BERTI HASH ORIGINAL
BERTI IP MASK ffff
Berti Prefetcher
BERTI HASH ORIGINAL
BERTI IP MASK ffff
Off-chip DRAM Size: 4 GiB Channels: 1 Width: 64-bit Data Race: 3200 MT/s
Heartbeat CPU 3 instructions: 10000001 cycles: 2502909 heartbeat IPC: 3.995 cumulative IPC: 3.995 (Simulation time: 00 hr 02 min 35 sec)
Heartbeat CPU 1 instructions: 10000001 cycles: 2991508 heartbeat IPC: 3.343 cumulative IPC: 3.343 (Simulation time: 00 hr 03 min 06 sec)
Heartbeat CPU 2 instructions: 10000004 cycles: 3062717 heartbeat IPC: 3.265 cumulative IPC: 3.265 (Simulation time: 00 hr 03 min 11 sec)
Heartbeat CPU 0 instructions: 10000002 cycles: 4173914 heartbeat IPC: 2.396 cumulative IPC: 2.396 (Simulation time: 00 hr 04 min 22 sec)
Heartbeat CPU 3 instructions: 20000001 cycles: 5005630 heartbeat IPC: 3.996 cumulative IPC: 3.996 (Simulation time: 00 hr 05 min 15 sec)
Heartbeat CPU 2 instructions: 20000003 cycles: 5747630 heartbeat IPC: 3.725 cumulative IPC: 3.48 (Simulation time: 00 hr 06 min 06 sec)
Heartbeat CPU 1 instructions: 20000003 cycles: 5982012 heartbeat IPC: 3.344 cumulative IPC: 3.343 (Simulation time: 00 hr 06 min 21 sec)
Heartbeat CPU 3 instructions: 30000003 cycles: 7507965 heartbeat IPC: 3.996 cumulative IPC: 3.996 (Simulation time: 00 hr 08 min 03 sec)
Heartbeat CPU 0 instructions: 20000003 cycles: 8344224 heartbeat IPC: 2.398 cumulative IPC: 2.397 (Simulation time: 00 hr 08 min 58 sec)
Heartbeat CPU 2 instructions: 30000000 cycles: 8965816 heartbeat IPC: 3.107 cumulative IPC: 3.346 (Simulation time: 00 hr 09 min 39 sec)
Heartbeat CPU 1 instructions: 30000001 cycles: 8968999 heartbeat IPC: 3.348 cumulative IPC: 3.345 (Simulation time: 00 hr 09 min 39 sec)
Heartbeat CPU 3 instructions: 40000002 cycles: 10010596 heartbeat IPC: 3.996 cumulative IPC: 3.996 (Simulation time: 00 hr 10 min 44 sec)
Heartbeat CPU 1 instructions: 40000001 cycles: 11938830 heartbeat IPC: 3.367 cumulative IPC: 3.35 (Simulation time: 00 hr 12 min 53 sec)
Heartbeat CPU 2 instructions: 40000004 cycles: 12219382 heartbeat IPC: 3.074 cumulative IPC: 3.273 (Simulation time: 00 hr 13 min 12 sec)
Heartbeat CPU 3 instructions: 50000003 cycles: 12513280 heartbeat IPC: 3.996 cumulative IPC: 3.996 (Simulation time: 00 hr 13 min 31 sec)
Warmup finished CPU 3 instructions: 50000003 cycles: 12513281 cumulative IPC: 3.996 (Simulation time: 00 hr 13 min 31 sec)
Heartbeat CPU 0 instructions: 30000001 cycles: 12519005 heartbeat IPC: 2.395 cumulative IPC: 2.396 (Simulation time: 00 hr 13 min 31 sec)
Heartbeat CPU 1 instructions: 50000002 cycles: 14911156 heartbeat IPC: 3.364 cumulative IPC: 3.353 (Simulation time: 00 hr 16 min 09 sec)
Warmup finished CPU 1 instructions: 50000002 cycles: 14911157 cumulative IPC: 3.353 (Simulation time: 00 hr 16 min 09 sec)
Heartbeat CPU 3 instructions: 60000001 cycles: 15015994 heartbeat IPC: 3.996 cumulative IPC: 3.996 (Simulation time: 00 hr 16 min 16 sec)
Heartbeat CPU 2 instructions: 50000002 cycles: 15372091 heartbeat IPC: 3.172 cumulative IPC: 3.253 (Simulation time: 00 hr 16 min 39 sec)
Warmup finished CPU 2 instructions: 50000002 cycles: 15372092 cumulative IPC: 3.253 (Simulation time: 00 hr 16 min 39 sec)
Heartbeat CPU 0 instructions: 40000000 cycles: 16705029 heartbeat IPC: 2.389 cumulative IPC: 2.394 (Simulation time: 00 hr 18 min 07 sec)
Heartbeat CPU 3 instructions: 70000003 cycles: 17520811 heartbeat IPC: 3.992 cumulative IPC: 3.995 (Simulation time: 00 hr 19 min 00 sec)
Heartbeat CPU 1 instructions: 60000001 cycles: 17889929 heartbeat IPC: 3.357 cumulative IPC: 3.354 (Simulation time: 00 hr 19 min 24 sec)
Heartbeat CPU 2 instructions: 60000001 cycles: 18080367 heartbeat IPC: 3.692 cumulative IPC: 3.319 (Simulation time: 00 hr 19 min 36 sec)
Heartbeat CPU 3 instructions: 80000000 cycles: 20023022 heartbeat IPC: 3.996 cumulative IPC: 3.995 (Simulation time: 00 hr 21 min 42 sec)
Heartbeat CPU 2 instructions: 70000000 cycles: 20807854 heartbeat IPC: 3.666 cumulative IPC: 3.364 (Simulation time: 00 hr 22 min 32 sec)
Heartbeat CPU 0 instructions: 50000003 cycles: 20870812 heartbeat IPC: 2.401 cumulative IPC: 2.396 (Simulation time: 00 hr 22 min 36 sec)
Warmup finished CPU 0 instructions: 50000003 cycles: 20870813 cumulative IPC: 2.396 (Simulation time: 00 hr 22 min 36 sec)
Warmup complete CPU 0 instructions: 50000003 cycles: 20870813 cumulative IPC: 2.396 (Simulation time: 00 hr 22 min 36 sec)
Warmup complete CPU 1 instructions: 69987915 cycles: 20870813 cumulative IPC: 3.353 (Simulation time: 00 hr 22 min 36 sec)
Warmup complete CPU 2 instructions: 70214710 cycles: 20870813 cumulative IPC: 3.364 (Simulation time: 00 hr 22 min 36 sec)
Warmup complete CPU 3 instructions: 83391160 cycles: 20870813 cumulative IPC: 3.996 (Simulation time: 00 hr 22 min 36 sec)
Heartbeat CPU 1 instructions: 70000000 cycles: 20875042 heartbeat IPC: 3.35 cumulative IPC: 2.858 (Simulation time: 00 hr 22 min 36 sec)
Heartbeat CPU 3 instructions: 90000004 cycles: 23969304 heartbeat IPC: 2.534 cumulative IPC: 2.133 (Simulation time: 00 hr 24 min 47 sec)
Heartbeat CPU 1 instructions: 80000000 cycles: 25284363 heartbeat IPC: 2.268 cumulative IPC: 2.268 (Simulation time: 00 hr 25 min 44 sec)
Heartbeat CPU 2 instructions: 80000001 cycles: 28211424 heartbeat IPC: 1.351 cumulative IPC: 1.333 (Simulation time: 00 hr 27 min 51 sec)
Heartbeat CPU 3 instructions: 100000000 cycles: 28679053 heartbeat IPC: 2.123 cumulative IPC: 2.127 (Simulation time: 00 hr 28 min 12 sec)
Heartbeat CPU 1 instructions: 90000002 cycles: 29931203 heartbeat IPC: 2.152 cumulative IPC: 2.209 (Simulation time: 00 hr 29 min 05 sec)
Heartbeat CPU 3 instructions: 110000001 cycles: 33373841 heartbeat IPC: 2.13 cumulative IPC: 2.128 (Simulation time: 00 hr 31 min 29 sec)
Heartbeat CPU 2 instructions: 90000001 cycles: 34101758 heartbeat IPC: 1.698 cumulative IPC: 1.495 (Simulation time: 00 hr 32 min 00 sec)
Heartbeat CPU 1 instructions: 100000000 cycles: 34985076 heartbeat IPC: 1.979 cumulative IPC: 2.126 (Simulation time: 00 hr 32 min 35 sec)
Heartbeat CPU 0 instructions: 60000000 cycles: 37363187 heartbeat IPC: 0.6063 cumulative IPC: 0.6063 (Simulation time: 00 hr 34 min 11 sec)
Heartbeat CPU 3 instructions: 120000000 cycles: 37993706 heartbeat IPC: 2.165 cumulative IPC: 2.138 (Simulation time: 00 hr 34 min 38 sec)
Heartbeat CPU 1 instructions: 110000001 cycles: 39876333 heartbeat IPC: 2.044 cumulative IPC: 2.105 (Simulation time: 00 hr 35 min 55 sec)
Heartbeat CPU 2 instructions: 100000002 cycles: 40939043 heartbeat IPC: 1.463 cumulative IPC: 1.484 (Simulation time: 00 hr 36 min 38 sec)
Heartbeat CPU 3 instructions: 130000002 cycles: 42647544 heartbeat IPC: 2.149 cumulative IPC: 2.14 (Simulation time: 00 hr 37 min 48 sec)
Heartbeat CPU 1 instructions: 120000003 cycles: 44373868 heartbeat IPC: 2.223 cumulative IPC: 2.128 (Simulation time: 00 hr 38 min 59 sec)
Heartbeat CPU 3 instructions: 140000000 cycles: 47308952 heartbeat IPC: 2.145 cumulative IPC: 2.141 (Simulation time: 00 hr 41 min 01 sec)
Heartbeat CPU 2 instructions: 110000004 cycles: 47525429 heartbeat IPC: 1.518 cumulative IPC: 1.493 (Simulation time: 00 hr 41 min 10 sec)
Heartbeat CPU 1 instructions: 130000003 cycles: 48877664 heartbeat IPC: 2.22 cumulative IPC: 2.143 (Simulation time: 00 hr 42 min 06 sec)
Heartbeat CPU 3 instructions: 150000004 cycles: 51921005 heartbeat IPC: 2.168 cumulative IPC: 2.145 (Simulation time: 00 hr 44 min 11 sec)
Heartbeat CPU 1 instructions: 140000000 cycles: 53496591 heartbeat IPC: 2.165 cumulative IPC: 2.146 (Simulation time: 00 hr 45 min 15 sec)
Heartbeat CPU 2 instructions: 120000000 cycles: 54027755 heartbeat IPC: 1.538 cumulative IPC: 1.502 (Simulation time: 00 hr 45 min 37 sec)
Heartbeat CPU 0 instructions: 70000002 cycles: 55031894 heartbeat IPC: 0.566 cumulative IPC: 0.5855 (Simulation time: 00 hr 46 min 17 sec)
Heartbeat CPU 3 instructions: 160000003 cycles: 56525188 heartbeat IPC: 2.172 cumulative IPC: 2.149 (Simulation time: 00 hr 47 min 23 sec)
Heartbeat CPU 1 instructions: 150000003 cycles: 58132174 heartbeat IPC: 2.157 cumulative IPC: 2.147 (Simulation time: 00 hr 48 min 31 sec)
Heartbeat CPU 2 instructions: 130000001 cycles: 59439461 heartbeat IPC: 1.848 cumulative IPC: 1.55 (Simulation time: 00 hr 49 min 29 sec)
Heartbeat CPU 3 instructions: 170000003 cycles: 61113826 heartbeat IPC: 2.179 cumulative IPC: 2.152 (Simulation time: 00 hr 50 min 42 sec)
Heartbeat CPU 1 instructions: 160000000 cycles: 62743005 heartbeat IPC: 2.169 cumulative IPC: 2.15 (Simulation time: 00 hr 51 min 55 sec)
Heartbeat CPU 2 instructions: 140000000 cycles: 64877320 heartbeat IPC: 1.839 cumulative IPC: 1.586 (Simulation time: 00 hr 53 min 26 sec)
Heartbeat CPU 3 instructions: 180000004 cycles: 65712143 heartbeat IPC: 2.175 cumulative IPC: 2.154 (Simulation time: 00 hr 54 min 02 sec)
Heartbeat CPU 1 instructions: 170000003 cycles: 67369971 heartbeat IPC: 2.161 cumulative IPC: 2.151 (Simulation time: 00 hr 55 min 05 sec)
Heartbeat CPU 3 instructions: 190000002 cycles: 70326605 heartbeat IPC: 2.167 cumulative IPC: 2.156 (Simulation time: 00 hr 57 min 04 sec)
Heartbeat CPU 1 instructions: 180000002 cycles: 71975355 heartbeat IPC: 2.171 cumulative IPC: 2.153 (Simulation time: 00 hr 58 min 12 sec)
Heartbeat CPU 2 instructions: 150000004 cycles: 72216464 heartbeat IPC: 1.363 cumulative IPC: 1.554 (Simulation time: 00 hr 58 min 22 sec)
Heartbeat CPU 0 instructions: 80000002 cycles: 73015581 heartbeat IPC: 0.5561 cumulative IPC: 0.5753 (Simulation time: 00 hr 58 min 56 sec)
Heartbeat CPU 3 instructions: 200000000 cycles: 74935768 heartbeat IPC: 2.17 cumulative IPC: 2.157 (Simulation time: 01 hr 00 min 18 sec)
Heartbeat CPU 1 instructions: 190000000 cycles: 76583082 heartbeat IPC: 2.17 cumulative IPC: 2.154 (Simulation time: 01 hr 01 min 32 sec)
Heartbeat CPU 2 instructions: 160000002 cycles: 78217802 heartbeat IPC: 1.666 cumulative IPC: 1.566 (Simulation time: 01 hr 02 min 40 sec)
Heartbeat CPU 3 instructions: 210000000 cycles: 79512240 heartbeat IPC: 2.185 cumulative IPC: 2.159 (Simulation time: 01 hr 03 min 32 sec)
Heartbeat CPU 1 instructions: 200000004 cycles: 81189639 heartbeat IPC: 2.171 cumulative IPC: 2.155 (Simulation time: 01 hr 04 min 41 sec)
Heartbeat CPU 3 instructions: 220000000 cycles: 84075962 heartbeat IPC: 2.191 cumulative IPC: 2.161 (Simulation time: 01 hr 07 min 02 sec)
Heartbeat CPU 2 instructions: 170000004 cycles: 84498704 heartbeat IPC: 1.592 cumulative IPC: 1.568 (Simulation time: 01 hr 07 min 23 sec)
Heartbeat CPU 1 instructions: 210000003 cycles: 85790634 heartbeat IPC: 2.173 cumulative IPC: 2.157 (Simulation time: 01 hr 08 min 22 sec)
Heartbeat CPU 3 instructions: 230000001 cycles: 88659579 heartbeat IPC: 2.182 cumulative IPC: 2.163 (Simulation time: 01 hr 10 min 38 sec)
Heartbeat CPU 0 instructions: 90000001 cycles: 89291012 heartbeat IPC: 0.6144 cumulative IPC: 0.5846 (Simulation time: 01 hr 11 min 07 sec)
Simulation finished CPU 3 instructions: 150000000 cycles: 69369060 cumulative IPC: 2.162 (Simulation time: 01 hr 11 min 51 sec)
Simulation finished CPU 1 instructions: 150000001 cycles: 69428889 cumulative IPC: 2.16 (Simulation time: 01 hr 11 min 54 sec)
Heartbeat CPU 1 instructions: 220000004 cycles: 90304062 heartbeat IPC: 2.216 cumulative IPC: 2.161 (Simulation time: 01 hr 11 min 54 sec)
Heartbeat CPU 2 instructions: 180000002 cycles: 91108286 heartbeat IPC: 1.513 cumulative IPC: 1.563 (Simulation time: 01 hr 12 min 31 sec)
Heartbeat CPU 3 instructions: 240000000 cycles: 93266472 heartbeat IPC: 2.171 cumulative IPC: 2.163 (Simulation time: 01 hr 14 min 15 sec)
Heartbeat CPU 1 instructions: 230000002 cycles: 94804649 heartbeat IPC: 2.222 cumulative IPC: 2.164 (Simulation time: 01 hr 15 min 32 sec)
Heartbeat CPU 2 instructions: 190000001 cycles: 97644635 heartbeat IPC: 1.53 cumulative IPC: 1.56 (Simulation time: 01 hr 18 min 03 sec)
Heartbeat CPU 3 instructions: 250000002 cycles: 97886943 heartbeat IPC: 2.164 cumulative IPC: 2.163 (Simulation time: 01 hr 18 min 17 sec)
Heartbeat CPU 1 instructions: 240000002 cycles: 99377990 heartbeat IPC: 2.187 cumulative IPC: 2.166 (Simulation time: 01 hr 19 min 48 sec)
Heartbeat CPU 3 instructions: 260000000 cycles: 102532245 heartbeat IPC: 2.153 cumulative IPC: 2.163 (Simulation time: 01 hr 23 min 10 sec)
Heartbeat CPU 2 instructions: 200000002 cycles: 103628161 heartbeat IPC: 1.671 cumulative IPC: 1.568 (Simulation time: 01 hr 24 min 30 sec)
Heartbeat CPU 1 instructions: 250000003 cycles: 103873908 heartbeat IPC: 2.224 cumulative IPC: 2.169 (Simulation time: 01 hr 24 min 46 sec)
Heartbeat CPU 3 instructions: 270000000 cycles: 107157689 heartbeat IPC: 2.162 cumulative IPC: 2.163 (Simulation time: 01 hr 28 min 35 sec)
Heartbeat CPU 0 instructions: 100000000 cycles: 108099192 heartbeat IPC: 0.5317 cumulative IPC: 0.5732 (Simulation time: 01 hr 29 min 39 sec)
Heartbeat CPU 1 instructions: 260000001 cycles: 108364618 heartbeat IPC: 2.227 cumulative IPC: 2.172 (Simulation time: 01 hr 29 min 56 sec)
Heartbeat CPU 2 instructions: 210000001 cycles: 108458489 heartbeat IPC: 2.07 cumulative IPC: 1.596 (Simulation time: 01 hr 30 min 02 sec)
Heartbeat CPU 3 instructions: 280000001 cycles: 111788650 heartbeat IPC: 2.159 cumulative IPC: 2.162 (Simulation time: 01 hr 33 min 08 sec)
Heartbeat CPU 1 instructions: 270000001 cycles: 112922414 heartbeat IPC: 2.194 cumulative IPC: 2.173 (Simulation time: 01 hr 34 min 01 sec)
Heartbeat CPU 2 instructions: 220000000 cycles: 115788145 heartbeat IPC: 1.364 cumulative IPC: 1.578 (Simulation time: 01 hr 36 min 08 sec)
Simulation finished CPU 2 instructions: 150000002 cycles: 95069495 cumulative IPC: 1.578 (Simulation time: 01 hr 36 min 14 sec)
Heartbeat CPU 3 instructions: 290000004 cycles: 116427049 heartbeat IPC: 2.156 cumulative IPC: 2.162 (Simulation time: 01 hr 36 min 34 sec)
Heartbeat CPU 1 instructions: 280000001 cycles: 117391295 heartbeat IPC: 2.238 cumulative IPC: 2.176 (Simulation time: 01 hr 37 min 18 sec)
Heartbeat CPU 3 instructions: 300000000 cycles: 121044259 heartbeat IPC: 2.166 cumulative IPC: 2.162 (Simulation time: 01 hr 39 min 50 sec)
Heartbeat CPU 1 instructions: 290000000 cycles: 121798388 heartbeat IPC: 2.269 cumulative IPC: 2.18 (Simulation time: 01 hr 40 min 22 sec)
Heartbeat CPU 2 instructions: 230000000 cycles: 122519876 heartbeat IPC: 1.486 cumulative IPC: 1.572 (Simulation time: 01 hr 40 min 56 sec)
Heartbeat CPU 1 instructions: 300000004 cycles: 125307739 heartbeat IPC: 2.85 cumulative IPC: 2.202 (Simulation time: 01 hr 43 min 11 sec)
Heartbeat CPU 3 instructions: 310000001 cycles: 125662293 heartbeat IPC: 2.165 cumulative IPC: 2.162 (Simulation time: 01 hr 43 min 28 sec)
Heartbeat CPU 0 instructions: 110000004 cycles: 127331301 heartbeat IPC: 0.52 cumulative IPC: 0.5636 (Simulation time: 01 hr 44 min 45 sec)
Heartbeat CPU 1 instructions: 310000000 cycles: 128939989 heartbeat IPC: 2.753 cumulative IPC: 2.221 (Simulation time: 01 hr 46 min 22 sec)
Heartbeat CPU 2 instructions: 240000001 cycles: 129038465 heartbeat IPC: 1.534 cumulative IPC: 1.57 (Simulation time: 01 hr 46 min 29 sec)
Heartbeat CPU 3 instructions: 320000001 cycles: 130276465 heartbeat IPC: 2.167 cumulative IPC: 2.163 (Simulation time: 01 hr 47 min 28 sec)
Heartbeat CPU 1 instructions: 320000000 cycles: 133623694 heartbeat IPC: 2.135 cumulative IPC: 2.217 (Simulation time: 01 hr 50 min 27 sec)
Heartbeat CPU 3 instructions: 330000001 cycles: 134880041 heartbeat IPC: 2.172 cumulative IPC: 2.163 (Simulation time: 01 hr 51 min 24 sec)
Heartbeat CPU 2 instructions: 250000001 cycles: 135766950 heartbeat IPC: 1.486 cumulative IPC: 1.565 (Simulation time: 01 hr 52 min 01 sec)
Heartbeat CPU 1 instructions: 330000004 cycles: 138639486 heartbeat IPC: 1.994 cumulative IPC: 2.208 (Simulation time: 01 hr 54 min 29 sec)
Heartbeat CPU 3 instructions: 340000000 cycles: 140733247 heartbeat IPC: 1.708 cumulative IPC: 2.141 (Simulation time: 01 hr 56 min 27 sec)
Heartbeat CPU 2 instructions: 260000002 cycles: 142438693 heartbeat IPC: 1.499 cumulative IPC: 1.561 (Simulation time: 01 hr 58 min 02 sec)
Heartbeat CPU 1 instructions: 340000002 cycles: 143346247 heartbeat IPC: 2.125 cumulative IPC: 2.205 (Simulation time: 01 hr 58 min 47 sec)
Heartbeat CPU 3 instructions: 350000002 cycles: 145996732 heartbeat IPC: 1.9 cumulative IPC: 2.131 (Simulation time: 02 hr 01 min 24 sec)
Heartbeat CPU 1 instructions: 350000002 cycles: 147094142 heartbeat IPC: 2.668 cumulative IPC: 2.218 (Simulation time: 02 hr 02 min 31 sec)
Heartbeat CPU 2 instructions: 270000000 cycles: 147416973 heartbeat IPC: 2.009 cumulative IPC: 1.579 (Simulation time: 02 hr 02 min 51 sec)
Heartbeat CPU 0 instructions: 120000004 cycles: 149449114 heartbeat IPC: 0.4521 cumulative IPC: 0.5444 (Simulation time: 02 hr 05 min 00 sec)
Heartbeat CPU 1 instructions: 360000002 cycles: 150578606 heartbeat IPC: 2.87 cumulative IPC: 2.236 (Simulation time: 02 hr 05 min 58 sec)
Heartbeat CPU 3 instructions: 360000003 cycles: 151082205 heartbeat IPC: 1.966 cumulative IPC: 2.124 (Simulation time: 02 hr 06 min 23 sec)
Heartbeat CPU 2 instructions: 280000000 cycles: 152398435 heartbeat IPC: 2.007 cumulative IPC: 1.595 (Simulation time: 02 hr 07 min 33 sec)
Heartbeat CPU 1 instructions: 370000000 cycles: 154083257 heartbeat IPC: 2.853 cumulative IPC: 2.252 (Simulation time: 02 hr 08 min 57 sec)
Heartbeat CPU 3 instructions: 370000000 cycles: 156059056 heartbeat IPC: 2.009 cumulative IPC: 2.12 (Simulation time: 02 hr 10 min 27 sec)
Heartbeat CPU 1 instructions: 380000004 cycles: 157578037 heartbeat IPC: 2.861 cumulative IPC: 2.268 (Simulation time: 02 hr 11 min 39 sec)
Heartbeat CPU 2 instructions: 290000003 cycles: 158014912 heartbeat IPC: 1.78 cumulative IPC: 1.603 (Simulation time: 02 hr 11 min 59 sec)
Heartbeat CPU 3 instructions: 380000002 cycles: 161005636 heartbeat IPC: 2.022 cumulative IPC: 2.117 (Simulation time: 02 hr 14 min 13 sec)
Heartbeat CPU 1 instructions: 390000000 cycles: 161064032 heartbeat IPC: 2.869 cumulative IPC: 2.283 (Simulation time: 02 hr 14 min 15 sec)
Heartbeat CPU 1 instructions: 400000004 cycles: 164732971 heartbeat IPC: 2.726 cumulative IPC: 2.294 (Simulation time: 02 hr 16 min 44 sec)
Heartbeat CPU 2 instructions: 300000004 cycles: 166844797 heartbeat IPC: 1.133 cumulative IPC: 1.574 (Simulation time: 02 hr 18 min 01 sec)
Heartbeat CPU 1 instructions: 410000002 cycles: 168934560 heartbeat IPC: 2.38 cumulative IPC: 2.296 (Simulation time: 02 hr 19 min 22 sec)
Heartbeat CPU 1 instructions: 420000004 cycles: 173399466 heartbeat IPC: 2.24 cumulative IPC: 2.295 (Simulation time: 02 hr 22 min 02 sec)
Heartbeat CPU 3 instructions: 390000001 cycles: 175206279 heartbeat IPC: 0.7042 cumulative IPC: 1.987 (Simulation time: 02 hr 23 min 16 sec)
Heartbeat CPU 2 instructions: 310000001 cycles: 176722050 heartbeat IPC: 1.012 cumulative IPC: 1.539 (Simulation time: 02 hr 24 min 20 sec)
Heartbeat CPU 1 instructions: 430000001 cycles: 177113707 heartbeat IPC: 2.692 cumulative IPC: 2.304 (Simulation time: 02 hr 24 min 39 sec)
Heartbeat CPU 0 instructions: 130000002 cycles: 179074794 heartbeat IPC: 0.3375 cumulative IPC: 0.5057 (Simulation time: 02 hr 26 min 14 sec)
Heartbeat CPU 3 instructions: 400000003 cycles: 179821549 heartbeat IPC: 2.167 cumulative IPC: 1.992 (Simulation time: 02 hr 26 min 47 sec)
Heartbeat CPU 1 instructions: 440000003 cycles: 180703794 heartbeat IPC: 2.785 cumulative IPC: 2.315 (Simulation time: 02 hr 27 min 23 sec)
Heartbeat CPU 1 instructions: 450000003 cycles: 184410110 heartbeat IPC: 2.698 cumulative IPC: 2.324 (Simulation time: 02 hr 29 min 56 sec)
Heartbeat CPU 2 instructions: 320000001 cycles: 184609436 heartbeat IPC: 1.268 cumulative IPC: 1.526 (Simulation time: 02 hr 30 min 03 sec)
Heartbeat CPU 3 instructions: 410000003 cycles: 184970188 heartbeat IPC: 1.942 cumulative IPC: 1.99 (Simulation time: 02 hr 30 min 19 sec)
Heartbeat CPU 1 instructions: 460000003 cycles: 188095769 heartbeat IPC: 2.713 cumulative IPC: 2.332 (Simulation time: 02 hr 32 min 33 sec)
Heartbeat CPU 3 instructions: 420000001 cycles: 189895433 heartbeat IPC: 2.03 cumulative IPC: 1.991 (Simulation time: 02 hr 33 min 52 sec)
Heartbeat CPU 1 instructions: 470000002 cycles: 191694925 heartbeat IPC: 2.778 cumulative IPC: 2.342 (Simulation time: 02 hr 35 min 08 sec)
Heartbeat CPU 2 instructions: 330000000 cycles: 192320880 heartbeat IPC: 1.297 cumulative IPC: 1.515 (Simulation time: 02 hr 35 min 36 sec)
Heartbeat CPU 3 instructions: 430000004 cycles: 194952106 heartbeat IPC: 1.978 cumulative IPC: 1.991 (Simulation time: 02 hr 37 min 24 sec)
Heartbeat CPU 1 instructions: 480000001 cycles: 195355287 heartbeat IPC: 2.732 cumulative IPC: 2.35 (Simulation time: 02 hr 37 min 40 sec)
Heartbeat CPU 1 instructions: 490000002 cycles: 198973156 heartbeat IPC: 2.764 cumulative IPC: 2.358 (Simulation time: 02 hr 40 min 27 sec)
Heartbeat CPU 2 instructions: 340000000 cycles: 199746180 heartbeat IPC: 1.347 cumulative IPC: 1.508 (Simulation time: 02 hr 41 min 07 sec)
Heartbeat CPU 3 instructions: 440000003 cycles: 199942155 heartbeat IPC: 2.004 cumulative IPC: 1.991 (Simulation time: 02 hr 41 min 16 sec)
Heartbeat CPU 1 instructions: 500000004 cycles: 202616480 heartbeat IPC: 2.745 cumulative IPC: 2.366 (Simulation time: 02 hr 43 min 15 sec)
Heartbeat CPU 3 instructions: 450000000 cycles: 205257345 heartbeat IPC: 1.881 cumulative IPC: 1.988 (Simulation time: 02 hr 45 min 13 sec)
Heartbeat CPU 1 instructions: 510000004 cycles: 206270096 heartbeat IPC: 2.737 cumulative IPC: 2.373 (Simulation time: 02 hr 45 min 58 sec)
Heartbeat CPU 2 instructions: 350000003 cycles: 206905064 heartbeat IPC: 1.397 cumulative IPC: 1.504 (Simulation time: 02 hr 46 min 26 sec)
Heartbeat CPU 0 instructions: 140000001 cycles: 208861960 heartbeat IPC: 0.3357 cumulative IPC: 0.4787 (Simulation time: 02 hr 47 min 55 sec)
Heartbeat CPU 1 instructions: 520000004 cycles: 209954642 heartbeat IPC: 2.714 cumulative IPC: 2.38 (Simulation time: 02 hr 48 min 43 sec)
Heartbeat CPU 3 instructions: 460000001 cycles: 210145072 heartbeat IPC: 2.046 cumulative IPC: 1.99 (Simulation time: 02 hr 48 min 52 sec)
Heartbeat CPU 1 instructions: 530000002 cycles: 213653923 heartbeat IPC: 2.703 cumulative IPC: 2.386 (Simulation time: 02 hr 51 min 32 sec)
Heartbeat CPU 2 instructions: 360000001 cycles: 213997029 heartbeat IPC: 1.41 cumulative IPC: 1.5 (Simulation time: 02 hr 51 min 49 sec)
Heartbeat CPU 3 instructions: 470000001 cycles: 214886125 heartbeat IPC: 2.109 cumulative IPC: 1.993 (Simulation time: 02 hr 52 min 31 sec)
Heartbeat CPU 1 instructions: 540000002 cycles: 217375611 heartbeat IPC: 2.687 cumulative IPC: 2.392 (Simulation time: 02 hr 54 min 20 sec)
Heartbeat CPU 3 instructions: 480000000 cycles: 219934990 heartbeat IPC: 1.981 cumulative IPC: 1.992 (Simulation time: 02 hr 56 min 10 sec)
Heartbeat CPU 1 instructions: 550000002 cycles: 221119556 heartbeat IPC: 2.671 cumulative IPC: 2.397 (Simulation time: 02 hr 57 min 04 sec)
Heartbeat CPU 2 instructions: 370000000 cycles: 221379581 heartbeat IPC: 1.355 cumulative IPC: 1.495 (Simulation time: 02 hr 57 min 15 sec)
Heartbeat CPU 1 instructions: 560000002 cycles: 224941861 heartbeat IPC: 2.616 cumulative IPC: 2.401 (Simulation time: 02 hr 59 min 33 sec)
Heartbeat CPU 3 instructions: 490000002 cycles: 227073276 heartbeat IPC: 1.401 cumulative IPC: 1.972 (Simulation time: 03 hr 01 min 16 sec)
Heartbeat CPU 2 instructions: 380000003 cycles: 227909891 heartbeat IPC: 1.531 cumulative IPC: 1.496 (Simulation time: 03 hr 01 min 55 sec)
Heartbeat CPU 1 instructions: 570000001 cycles: 228530196 heartbeat IPC: 2.787 cumulative IPC: 2.408 (Simulation time: 03 hr 02 min 23 sec)
Heartbeat CPU 1 instructions: 580000004 cycles: 232121743 heartbeat IPC: 2.784 cumulative IPC: 2.414 (Simulation time: 03 hr 05 min 13 sec)
Heartbeat CPU 2 instructions: 390000000 cycles: 233001730 heartbeat IPC: 1.964 cumulative IPC: 1.507 (Simulation time: 03 hr 05 min 53 sec)
Heartbeat CPU 3 instructions: 500000000 cycles: 233296301 heartbeat IPC: 1.607 cumulative IPC: 1.961 (Simulation time: 03 hr 06 min 07 sec)
Heartbeat CPU 1 instructions: 590000000 cycles: 235739681 heartbeat IPC: 2.764 cumulative IPC: 2.42 (Simulation time: 03 hr 08 min 02 sec)
Heartbeat CPU 0 instructions: 150000003 cycles: 235739701 heartbeat IPC: 0.3721 cumulative IPC: 0.4654 (Simulation time: 03 hr 08 min 02 sec)
Heartbeat CPU 2 instructions: 400000000 cycles: 238520382 heartbeat IPC: 1.812 cumulative IPC: 1.515 (Simulation time: 03 hr 10 min 11 sec)
Heartbeat CPU 1 instructions: 600000002 cycles: 239334797 heartbeat IPC: 2.782 cumulative IPC: 2.426 (Simulation time: 03 hr 10 min 49 sec)
Heartbeat CPU 3 instructions: 510000002 cycles: 239381524 heartbeat IPC: 1.643 cumulative IPC: 1.952 (Simulation time: 03 hr 10 min 52 sec)
Heartbeat CPU 1 instructions: 610000000 cycles: 242923885 heartbeat IPC: 2.786 cumulative IPC: 2.432 (Simulation time: 03 hr 13 min 39 sec)
Heartbeat CPU 2 instructions: 410000001 cycles: 244468298 heartbeat IPC: 1.681 cumulative IPC: 1.52 (Simulation time: 03 hr 14 min 54 sec)
Heartbeat CPU 3 instructions: 520000000 cycles: 245482972 heartbeat IPC: 1.639 cumulative IPC: 1.944 (Simulation time: 03 hr 15 min 40 sec)
Heartbeat CPU 1 instructions: 620000003 cycles: 246484257 heartbeat IPC: 2.809 cumulative IPC: 2.438 (Simulation time: 03 hr 16 min 23 sec)
Heartbeat CPU 1 instructions: 630000003 cycles: 250089596 heartbeat IPC: 2.774 cumulative IPC: 2.443 (Simulation time: 03 hr 19 min 36 sec)
Heartbeat CPU 3 instructions: 530000003 cycles: 251468716 heartbeat IPC: 1.671 cumulative IPC: 1.937 (Simulation time: 03 hr 20 min 54 sec)
Heartbeat CPU 2 instructions: 420000002 cycles: 252991838 heartbeat IPC: 1.173 cumulative IPC: 1.507 (Simulation time: 03 hr 22 min 03 sec)
Heartbeat CPU 1 instructions: 640000004 cycles: 253680322 heartbeat IPC: 2.785 cumulative IPC: 2.448 (Simulation time: 03 hr 22 min 31 sec)
Heartbeat CPU 1 instructions: 650000002 cycles: 257301734 heartbeat IPC: 2.761 cumulative IPC: 2.453 (Simulation time: 03 hr 25 min 35 sec)
Heartbeat CPU 3 instructions: 540000000 cycles: 257605497 heartbeat IPC: 1.63 cumulative IPC: 1.929 (Simulation time: 03 hr 25 min 55 sec)
Heartbeat CPU 0 instructions: 160000002 cycles: 258160701 heartbeat IPC: 0.446 cumulative IPC: 0.4636 (Simulation time: 03 hr 26 min 29 sec)
Heartbeat CPU 2 instructions: 430000002 cycles: 260436160 heartbeat IPC: 1.343 cumulative IPC: 1.502 (Simulation time: 03 hr 28 min 48 sec)
Heartbeat CPU 1 instructions: 660000000 cycles: 260964317 heartbeat IPC: 2.73 cumulative IPC: 2.457 (Simulation time: 03 hr 29 min 15 sec)
Heartbeat CPU 3 instructions: 550000002 cycles: 263729193 heartbeat IPC: 1.633 cumulative IPC: 1.921 (Simulation time: 03 hr 31 min 50 sec)
Heartbeat CPU 1 instructions: 670000003 cycles: 264598122 heartbeat IPC: 2.752 cumulative IPC: 2.462 (Simulation time: 03 hr 32 min 40 sec)
Heartbeat CPU 2 instructions: 440000000 cycles: 267584760 heartbeat IPC: 1.399 cumulative IPC: 1.499 (Simulation time: 03 hr 35 min 36 sec)
Heartbeat CPU 1 instructions: 680000002 cycles: 268234634 heartbeat IPC: 2.75 cumulative IPC: 2.466 (Simulation time: 03 hr 36 min 12 sec)
Heartbeat CPU 3 instructions: 560000004 cycles: 270016266 heartbeat IPC: 1.591 cumulative IPC: 1.913 (Simulation time: 03 hr 37 min 51 sec)
Heartbeat CPU 1 instructions: 690000002 cycles: 271890554 heartbeat IPC: 2.735 cumulative IPC: 2.47 (Simulation time: 03 hr 39 min 25 sec)
Heartbeat CPU 2 instructions: 450000001 cycles: 275022403 heartbeat IPC: 1.345 cumulative IPC: 1.494 (Simulation time: 03 hr 42 min 02 sec)
Heartbeat CPU 1 instructions: 700000004 cycles: 275602132 heartbeat IPC: 2.694 cumulative IPC: 2.473 (Simulation time: 03 hr 42 min 38 sec)
Heartbeat CPU 3 instructions: 570000004 cycles: 276422516 heartbeat IPC: 1.561 cumulative IPC: 1.904 (Simulation time: 03 hr 43 min 30 sec)
Heartbeat CPU 1 instructions: 710000001 cycles: 279586827 heartbeat IPC: 2.51 cumulative IPC: 2.474 (Simulation time: 03 hr 46 min 01 sec)
Heartbeat CPU 2 instructions: 460000002 cycles: 280098871 heartbeat IPC: 1.97 cumulative IPC: 1.504 (Simulation time: 03 hr 46 min 31 sec)
Heartbeat CPU 0 instructions: 170000001 cycles: 282554961 heartbeat IPC: 0.4099 cumulative IPC: 0.4586 (Simulation time: 03 hr 48 min 59 sec)
Heartbeat CPU 3 instructions: 580000000 cycles: 282691824 heartbeat IPC: 1.595 cumulative IPC: 1.897 (Simulation time: 03 hr 49 min 07 sec)
Heartbeat CPU 1 instructions: 720000003 cycles: 283255886 heartbeat IPC: 2.725 cumulative IPC: 2.477 (Simulation time: 03 hr 49 min 41 sec)
Heartbeat CPU 1 instructions: 730000000 cycles: 286895415 heartbeat IPC: 2.748 cumulative IPC: 2.481 (Simulation time: 03 hr 53 min 15 sec)
Heartbeat CPU 2 instructions: 470000003 cycles: 288415498 heartbeat IPC: 1.202 cumulative IPC: 1.494 (Simulation time: 03 hr 54 min 49 sec)
Heartbeat CPU 3 instructions: 590000001 cycles: 288857755 heartbeat IPC: 1.622 cumulative IPC: 1.89 (Simulation time: 03 hr 55 min 16 sec)
Heartbeat CPU 1 instructions: 740000001 cycles: 290498577 heartbeat IPC: 2.775 cumulative IPC: 2.485 (Simulation time: 03 hr 56 min 59 sec)
Heartbeat CPU 1 instructions: 750000002 cycles: 294082071 heartbeat IPC: 2.791 cumulative IPC: 2.489 (Simulation time: 04 hr 00 min 38 sec)
Heartbeat CPU 3 instructions: 600000000 cycles: 294869915 heartbeat IPC: 1.663 cumulative IPC: 1.885 (Simulation time: 04 hr 01 min 19 sec)
Heartbeat CPU 2 instructions: 480000002 cycles: 295299867 heartbeat IPC: 1.453 cumulative IPC: 1.493 (Simulation time: 04 hr 01 min 37 sec)
Heartbeat CPU 1 instructions: 760000002 cycles: 297659712 heartbeat IPC: 2.795 cumulative IPC: 2.493 (Simulation time: 04 hr 03 min 23 sec)
Heartbeat CPU 3 instructions: 610000000 cycles: 301066583 heartbeat IPC: 1.614 cumulative IPC: 1.879 (Simulation time: 04 hr 05 min 59 sec)
Heartbeat CPU 1 instructions: 770000000 cycles: 301323380 heartbeat IPC: 2.73 cumulative IPC: 2.496 (Simulation time: 04 hr 06 min 15 sec)
Heartbeat CPU 2 instructions: 490000002 cycles: 301995157 heartbeat IPC: 1.494 cumulative IPC: 1.493 (Simulation time: 04 hr 06 min 52 sec)
Heartbeat CPU 1 instructions: 780000002 cycles: 304943936 heartbeat IPC: 2.762 cumulative IPC: 2.499 (Simulation time: 04 hr 09 min 38 sec)
Heartbeat CPU 1 instructions: 790000000 cycles: 308827132 heartbeat IPC: 2.575 cumulative IPC: 2.5 (Simulation time: 04 hr 12 min 04 sec)
Heartbeat CPU 0 instructions: 180000001 cycles: 309683771 heartbeat IPC: 0.3686 cumulative IPC: 0.4501 (Simulation time: 04 hr 12 min 33 sec)
Heartbeat CPU 2 instructions: 500000000 cycles: 312240224 heartbeat IPC: 0.9761 cumulative IPC: 1.475 (Simulation time: 04 hr 14 min 22 sec)
Heartbeat CPU 1 instructions: 800000000 cycles: 312584719 heartbeat IPC: 2.661 cumulative IPC: 2.502 (Simulation time: 04 hr 14 min 37 sec)
Heartbeat CPU 1 instructions: 810000003 cycles: 316808937 heartbeat IPC: 2.367 cumulative IPC: 2.501 (Simulation time: 04 hr 17 min 10 sec)
Heartbeat CPU 3 instructions: 620000003 cycles: 320780569 heartbeat IPC: 0.5073 cumulative IPC: 1.789 (Simulation time: 04 hr 19 min 49 sec)
Heartbeat CPU 1 instructions: 820000003 cycles: 320817349 heartbeat IPC: 2.495 cumulative IPC: 2.5 (Simulation time: 04 hr 19 min 50 sec)
Heartbeat CPU 2 instructions: 510000001 cycles: 325324125 heartbeat IPC: 0.7643 cumulative IPC: 1.445 (Simulation time: 04 hr 22 min 53 sec)
Heartbeat CPU 1 instructions: 830000001 cycles: 325447246 heartbeat IPC: 2.16 cumulative IPC: 2.495 (Simulation time: 04 hr 22 min 59 sec)
Heartbeat CPU 1 instructions: 840000000 cycles: 329970209 heartbeat IPC: 2.211 cumulative IPC: 2.491 (Simulation time: 04 hr 26 min 08 sec)
Heartbeat CPU 1 instructions: 850000002 cycles: 334133112 heartbeat IPC: 2.402 cumulative IPC: 2.49 (Simulation time: 04 hr 28 min 59 sec)
Heartbeat CPU 2 instructions: 520000000 cycles: 337259591 heartbeat IPC: 0.8378 cumulative IPC: 1.422 (Simulation time: 04 hr 31 min 03 sec)
Heartbeat CPU 1 instructions: 860000004 cycles: 338227198 heartbeat IPC: 2.443 cumulative IPC: 2.489 (Simulation time: 04 hr 31 min 43 sec)
Heartbeat CPU 3 instructions: 630000003 cycles: 338493385 heartbeat IPC: 0.5646 cumulative IPC: 1.721 (Simulation time: 04 hr 31 min 54 sec)
Heartbeat CPU 1 instructions: 870000002 cycles: 342141146 heartbeat IPC: 2.555 cumulative IPC: 2.49 (Simulation time: 04 hr 34 min 24 sec)
Heartbeat CPU 1 instructions: 880000003 cycles: 346068112 heartbeat IPC: 2.546 cumulative IPC: 2.491 (Simulation time: 04 hr 36 min 59 sec)
Heartbeat CPU 2 instructions: 530000001 cycles: 346954622 heartbeat IPC: 1.031 cumulative IPC: 1.41 (Simulation time: 04 hr 37 min 37 sec)
Heartbeat CPU 3 instructions: 640000004 cycles: 348909452 heartbeat IPC: 0.9601 cumulative IPC: 1.697 (Simulation time: 04 hr 38 min 59 sec)
Heartbeat CPU 1 instructions: 890000003 cycles: 349870444 heartbeat IPC: 2.63 cumulative IPC: 2.492 (Simulation time: 04 hr 39 min 42 sec)
Heartbeat CPU 1 instructions: 900000001 cycles: 353696389 heartbeat IPC: 2.614 cumulative IPC: 2.494 (Simulation time: 04 hr 42 min 23 sec)
Heartbeat CPU 2 instructions: 540000002 cycles: 355180401 heartbeat IPC: 1.216 cumulative IPC: 1.405 (Simulation time: 04 hr 43 min 30 sec)
Heartbeat CPU 1 instructions: 910000000 cycles: 357688169 heartbeat IPC: 2.505 cumulative IPC: 2.494 (Simulation time: 04 hr 45 min 09 sec)
Heartbeat CPU 3 instructions: 650000002 cycles: 359807705 heartbeat IPC: 0.9176 cumulative IPC: 1.672 (Simulation time: 04 hr 46 min 31 sec)
Heartbeat CPU 1 instructions: 920000004 cycles: 361831620 heartbeat IPC: 2.413 cumulative IPC: 2.493 (Simulation time: 04 hr 47 min 54 sec)
Heartbeat CPU 2 instructions: 550000004 cycles: 363470314 heartbeat IPC: 1.206 cumulative IPC: 1.4 (Simulation time: 04 hr 49 min 03 sec)
Heartbeat CPU 3 instructions: 660000003 cycles: 366009695 heartbeat IPC: 1.612 cumulative IPC: 1.671 (Simulation time: 04 hr 50 min 58 sec)
Heartbeat CPU 1 instructions: 930000000 cycles: 366042884 heartbeat IPC: 2.375 cumulative IPC: 2.492 (Simulation time: 04 hr 51 min 00 sec)
Heartbeat CPU 1 instructions: 940000001 cycles: 369933814 heartbeat IPC: 2.57 cumulative IPC: 2.492 (Simulation time: 04 hr 54 min 10 sec)
Heartbeat CPU 2 instructions: 560000001 cycles: 371551177 heartbeat IPC: 1.237 cumulative IPC: 1.397 (Simulation time: 04 hr 55 min 18 sec)
Heartbeat CPU 1 instructions: 950000000 cycles: 373963997 heartbeat IPC: 2.481 cumulative IPC: 2.492 (Simulation time: 04 hr 56 min 58 sec)
Heartbeat CPU 3 instructions: 670000001 cycles: 375823282 heartbeat IPC: 1.019 cumulative IPC: 1.653 (Simulation time: 04 hr 58 min 15 sec)
Heartbeat CPU 1 instructions: 960000003 cycles: 378068822 heartbeat IPC: 2.436 cumulative IPC: 2.492 (Simulation time: 04 hr 59 min 45 sec)
Heartbeat CPU 2 instructions: 570000004 cycles: 379094779 heartbeat IPC: 1.326 cumulative IPC: 1.395 (Simulation time: 05 hr 00 min 27 sec)
Heartbeat CPU 1 instructions: 970000002 cycles: 381946399 heartbeat IPC: 2.579 cumulative IPC: 2.493 (Simulation time: 05 hr 02 min 27 sec)
Heartbeat CPU 1 instructions: 980000001 cycles: 385980000 heartbeat IPC: 2.479 cumulative IPC: 2.492 (Simulation time: 05 hr 05 min 07 sec)
Heartbeat CPU 0 instructions: 190000003 cycles: 386252338 heartbeat IPC: 0.1306 cumulative IPC: 0.3832 (Simulation time: 05 hr 05 min 18 sec)
Heartbeat CPU 2 instructions: 580000000 cycles: 386318193 heartbeat IPC: 1.384 cumulative IPC: 1.395 (Simulation time: 05 hr 05 min 21 sec)
Heartbeat CPU 1 instructions: 990000002 cycles: 389865638 heartbeat IPC: 2.574 cumulative IPC: 2.493 (Simulation time: 05 hr 07 min 48 sec)
Heartbeat CPU 1 instructions: 1000000002 cycles: 393716944 heartbeat IPC: 2.597 cumulative IPC: 2.494 (Simulation time: 05 hr 10 min 21 sec)
Heartbeat CPU 2 instructions: 590000001 cycles: 393730241 heartbeat IPC: 1.349 cumulative IPC: 1.394 (Simulation time: 05 hr 10 min 22 sec)
Heartbeat CPU 1 instructions: 1010000001 cycles: 397793223 heartbeat IPC: 2.453 cumulative IPC: 2.494 (Simulation time: 05 hr 12 min 46 sec)
Heartbeat CPU 3 instructions: 680000002 cycles: 400948890 heartbeat IPC: 0.398 cumulative IPC: 1.57 (Simulation time: 05 hr 15 min 07 sec)
Heartbeat CPU 2 instructions: 600000000 cycles: 401177961 heartbeat IPC: 1.343 cumulative IPC: 1.393 (Simulation time: 05 hr 15 min 17 sec)
Heartbeat CPU 1 instructions: 1020000003 cycles: 401487855 heartbeat IPC: 2.707 cumulative IPC: 2.496 (Simulation time: 05 hr 15 min 30 sec)
Heartbeat CPU 3 instructions: 690000001 cycles: 405125015 heartbeat IPC: 2.395 cumulative IPC: 1.579 (Simulation time: 05 hr 18 min 14 sec)
Heartbeat CPU 1 instructions: 1030000001 cycles: 405179946 heartbeat IPC: 2.708 cumulative IPC: 2.498 (Simulation time: 05 hr 18 min 17 sec)
Heartbeat CPU 2 instructions: 610000000 cycles: 408391752 heartbeat IPC: 1.386 cumulative IPC: 1.393 (Simulation time: 05 hr 20 min 37 sec)
Heartbeat CPU 1 instructions: 1040000001 cycles: 408865669 heartbeat IPC: 2.713 cumulative IPC: 2.5 (Simulation time: 05 hr 20 min 59 sec)
Heartbeat CPU 3 instructions: 700000003 cycles: 409997250 heartbeat IPC: 2.052 cumulative IPC: 1.585 (Simulation time: 05 hr 21 min 55 sec)
Heartbeat CPU 1 instructions: 1050000000 cycles: 412501428 heartbeat IPC: 2.75 cumulative IPC: 2.502 (Simulation time: 05 hr 23 min 57 sec)
Heartbeat CPU 3 instructions: 710000000 cycles: 413742599 heartbeat IPC: 2.67 cumulative IPC: 1.595 (Simulation time: 05 hr 24 min 50 sec)
Heartbeat CPU 1 instructions: 1060000001 cycles: 416148398 heartbeat IPC: 2.742 cumulative IPC: 2.505 (Simulation time: 05 hr 26 min 37 sec)
Heartbeat CPU 2 instructions: 620000000 cycles: 417090433 heartbeat IPC: 1.15 cumulative IPC: 1.388 (Simulation time: 05 hr 27 min 22 sec)
Heartbeat CPU 3 instructions: 720000003 cycles: 417192407 heartbeat IPC: 2.899 cumulative IPC: 1.606 (Simulation time: 05 hr 27 min 27 sec)
Heartbeat CPU 1 instructions: 1070000001 cycles: 419752736 heartbeat IPC: 2.774 cumulative IPC: 2.507 (Simulation time: 05 hr 29 min 26 sec)
Heartbeat CPU 3 instructions: 730000001 cycles: 421724783 heartbeat IPC: 2.206 cumulative IPC: 1.613 (Simulation time: 05 hr 30 min 57 sec)
Heartbeat CPU 0 instructions: 200000001 cycles: 422538155 heartbeat IPC: 0.2756 cumulative IPC: 0.3734 (Simulation time: 05 hr 31 min 34 sec)
Simulation finished CPU 0 instructions: 150000003 cycles: 401667344 cumulative IPC: 0.3734 (Simulation time: 05 hr 31 min 34 sec)
Simulation complete CPU 0 instructions: 150000003 cycles: 401667344 cumulative IPC: 0.3734 (Simulation time: 05 hr 31 min 34 sec)
Simulation complete CPU 1 instructions: 1007662264 cycles: 401667344 cumulative IPC: 2.509 (Simulation time: 05 hr 31 min 34 sec)
Simulation complete CPU 2 instructions: 557480743 cycles: 401667344 cumulative IPC: 1.388 (Simulation time: 05 hr 31 min 34 sec)
Simulation complete CPU 3 instructions: 649616265 cycles: 401667344 cumulative IPC: 1.617 (Simulation time: 05 hr 31 min 34 sec)

ChampSim completed all CPUs

=== Simulation ===
CPU 0 runs /home/das/dpc3_traces/620.omnetpp_s-874B.champsimtrace.xzCPU 1 runs /home/das/dpc3_traces/644.nab_s-5853B.champsimtrace.xzCPU 2 runs /home/das/dpc3_traces/623.xalancbmk_s-700B.champsimtrace.xzCPU 3 runs /home/das/dpc3_traces/621.wrf_s-575B.champsimtrace.xz
Total Simulation Statistics (not including warmup)

CPU 0 cumulative IPC: 0.3734 instructions: 150000003 cycles: 401667344
CPU 0 Branch Prediction Accuracy: 94.9% MPKI: 10.6 Average ROB Occupancy at Mispredict: 81.14
Branch type MPKI
BRANCH_DIRECT_JUMP: 0.923
BRANCH_INDIRECT: 0.128
BRANCH_CONDITIONAL: 8.42
BRANCH_DIRECT_CALL: 0.00016
BRANCH_INDIRECT_CALL: 0.734
BRANCH_RETURN: 0.399


CPU 1 cumulative IPC: 2.509 instructions: 1007662264 cycles: 401667344
CPU 1 Branch Prediction Accuracy: 87.81% MPKI: 11.8 Average ROB Occupancy at Mispredict: 183
Branch type MPKI
BRANCH_DIRECT_JUMP: 0.000109
BRANCH_INDIRECT: 0
BRANCH_CONDITIONAL: 6.27
BRANCH_DIRECT_CALL: 9.92e-07
BRANCH_INDIRECT_CALL: 0
BRANCH_RETURN: 5.53


CPU 2 cumulative IPC: 1.388 instructions: 557480743 cycles: 401667344
CPU 2 Branch Prediction Accuracy: 97.37% MPKI: 7.609 Average ROB Occupancy at Mispredict: 41.52
Branch type MPKI
BRANCH_DIRECT_JUMP: 0.103
BRANCH_INDIRECT: 0.323
BRANCH_CONDITIONAL: 5.48
BRANCH_DIRECT_CALL: 0.000393
BRANCH_INDIRECT_CALL: 0.352
BRANCH_RETURN: 1.35


CPU 3 cumulative IPC: 1.617 instructions: 649616265 cycles: 401667344
CPU 3 Branch Prediction Accuracy: 95.44% MPKI: 5.72 Average ROB Occupancy at Mispredict: 102.8
Branch type MPKI
BRANCH_DIRECT_JUMP: 0.00047
BRANCH_INDIRECT: 2.46e-05
BRANCH_CONDITIONAL: 5.29
BRANCH_DIRECT_CALL: 0.0028
BRANCH_INDIRECT_CALL: 0
BRANCH_RETURN: 0.431

LLC TOTAL        ACCESS:    3524503 HIT:    1737019 MISS:    1787484
LLC LOAD         ACCESS:    1681518 HIT:     521551 MISS:    1159967
LLC RFO          ACCESS:     257890 HIT:     148021 MISS:     109869
LLC PREFETCH     ACCESS:      18698 HIT:       2720 MISS:      15978
LLC WRITE        ACCESS:     970222 HIT:     958665 MISS:      11557
LLC TRANSLATION  ACCESS:     596175 HIT:     106062 MISS:     490113
LLC PREFETCH REQUESTED:          0 ISSUED:          0 USEFUL:          0 USELESS:          0
LLC AVERAGE MISS LATENCY: 1135 cycles
LLC TOTAL        ACCESS:     264053 HIT:      11104 MISS:     252949
LLC LOAD         ACCESS:      28505 HIT:       2065 MISS:      26440
LLC RFO          ACCESS:        578 HIT:        236 MISS:        342
LLC PREFETCH     ACCESS:     224257 HIT:       7548 MISS:     216709
LLC WRITE        ACCESS:       7594 HIT:       1036 MISS:       6558
LLC TRANSLATION  ACCESS:       3119 HIT:        219 MISS:       2900
LLC PREFETCH REQUESTED:          0 ISSUED:          0 USEFUL:          0 USELESS:          0
LLC AVERAGE MISS LATENCY: 1135 cycles
LLC TOTAL        ACCESS:    3407398 HIT:    2406449 MISS:    1000949
LLC LOAD         ACCESS:    1385280 HIT:    1235117 MISS:     150163
LLC RFO          ACCESS:     711824 HIT:      61070 MISS:     650754
LLC PREFETCH     ACCESS:     313227 HIT:     155728 MISS:     157499
LLC WRITE        ACCESS:     879802 HIT:     869861 MISS:       9941
LLC TRANSLATION  ACCESS:     117265 HIT:      84673 MISS:      32592
LLC PREFETCH REQUESTED:          0 ISSUED:          0 USEFUL:          0 USELESS:          0
LLC AVERAGE MISS LATENCY: 1135 cycles
LLC TOTAL        ACCESS:    4055168 HIT:    2534736 MISS:    1520432
LLC LOAD         ACCESS:     735757 HIT:     458866 MISS:     276891
LLC RFO          ACCESS:     803355 HIT:     285836 MISS:     517519
LLC PREFETCH     ACCESS:    1209517 HIT:     497805 MISS:     711712
LLC WRITE        ACCESS:    1302076 HIT:    1290139 MISS:      11937
LLC TRANSLATION  ACCESS:       4463 HIT:       2090 MISS:       2373
LLC PREFETCH REQUESTED:          0 ISSUED:          0 USEFUL:          0 USELESS:          0
LLC AVERAGE MISS LATENCY: 1135 cycles
cpu0_DTLB TOTAL        ACCESS:   38300946 HIT:   35008511 MISS:    3292435
cpu0_DTLB LOAD         ACCESS:   38300946 HIT:   35008511 MISS:    3292435
cpu0_DTLB RFO          ACCESS:          0 HIT:          0 MISS:          0
cpu0_DTLB PREFETCH     ACCESS:          0 HIT:          0 MISS:          0
cpu0_DTLB WRITE        ACCESS:          0 HIT:          0 MISS:          0
cpu0_DTLB TRANSLATION  ACCESS:          0 HIT:          0 MISS:          0
cpu0_DTLB PREFETCH REQUESTED:          0 ISSUED:          0 USEFUL:          0 USELESS:          0
cpu0_DTLB AVERAGE MISS LATENCY: 81.88 cycles
cpu0_DTLB TOTAL        ACCESS:          0 HIT:          0 MISS:          0
cpu0_DTLB LOAD         ACCESS:          0 HIT:          0 MISS:          0
cpu0_DTLB RFO          ACCESS:          0 HIT:          0 MISS:          0
cpu0_DTLB PREFETCH     ACCESS:          0 HIT:          0 MISS:          0
cpu0_DTLB WRITE        ACCESS:          0 HIT:          0 MISS:          0
cpu0_DTLB TRANSLATION  ACCESS:          0 HIT:          0 MISS:          0
cpu0_DTLB PREFETCH REQUESTED:          0 ISSUED:          0 USEFUL:          0 USELESS:          0
cpu0_DTLB AVERAGE MISS LATENCY: 81.88 cycles
cpu0_DTLB TOTAL        ACCESS:          0 HIT:          0 MISS:          0
cpu0_DTLB LOAD         ACCESS:          0 HIT:          0 MISS:          0
cpu0_DTLB RFO          ACCESS:          0 HIT:          0 MISS:          0
cpu0_DTLB PREFETCH     ACCESS:          0 HIT:          0 MISS:          0
cpu0_DTLB WRITE        ACCESS:          0 HIT:          0 MISS:          0
cpu0_DTLB TRANSLATION  ACCESS:          0 HIT:          0 MISS:          0
cpu0_DTLB PREFETCH REQUESTED:          0 ISSUED:          0 USEFUL:          0 USELESS:          0
cpu0_DTLB AVERAGE MISS LATENCY: 81.88 cycles
cpu0_DTLB TOTAL        ACCESS:          0 HIT:          0 MISS:          0
cpu0_DTLB LOAD         ACCESS:          0 HIT:          0 MISS:          0
cpu0_DTLB RFO          ACCESS:          0 HIT:          0 MISS:          0
cpu0_DTLB PREFETCH     ACCESS:          0 HIT:          0 MISS:          0
cpu0_DTLB WRITE        ACCESS:          0 HIT:          0 MISS:          0
cpu0_DTLB TRANSLATION  ACCESS:          0 HIT:          0 MISS:          0
cpu0_DTLB PREFETCH REQUESTED:          0 ISSUED:          0 USEFUL:          0 USELESS:          0
cpu0_DTLB AVERAGE MISS LATENCY: 81.88 cycles
cpu0_ITLB TOTAL        ACCESS:   10783609 HIT:   10511689 MISS:     271920
cpu0_ITLB LOAD         ACCESS:   10783609 HIT:   10511689 MISS:     271920
cpu0_ITLB RFO          ACCESS:          0 HIT:          0 MISS:          0
cpu0_ITLB PREFETCH     ACCESS:          0 HIT:          0 MISS:          0
cpu0_ITLB WRITE        ACCESS:          0 HIT:          0 MISS:          0
cpu0_ITLB TRANSLATION  ACCESS:          0 HIT:          0 MISS:          0
cpu0_ITLB PREFETCH REQUESTED:          0 ISSUED:          0 USEFUL:          0 USELESS:          0
cpu0_ITLB AVERAGE MISS LATENCY: 6.75 cycles
cpu0_ITLB TOTAL        ACCESS:          0 HIT:          0 MISS:          0
cpu0_ITLB LOAD         ACCESS:          0 HIT:          0 MISS:          0
cpu0_ITLB RFO          ACCESS:          0 HIT:          0 MISS:          0
cpu0_ITLB PREFETCH     ACCESS:          0 HIT:          0 MISS:          0
cpu0_ITLB WRITE        ACCESS:          0 HIT:          0 MISS:          0
cpu0_ITLB TRANSLATION  ACCESS:          0 HIT:          0 MISS:          0
cpu0_ITLB PREFETCH REQUESTED:          0 ISSUED:          0 USEFUL:          0 USELESS:          0
cpu0_ITLB AVERAGE MISS LATENCY: 6.75 cycles
cpu0_ITLB TOTAL        ACCESS:          0 HIT:          0 MISS:          0
cpu0_ITLB LOAD         ACCESS:          0 HIT:          0 MISS:          0
cpu0_ITLB RFO          ACCESS:          0 HIT:          0 MISS:          0
cpu0_ITLB PREFETCH     ACCESS:          0 HIT:          0 MISS:          0
cpu0_ITLB WRITE        ACCESS:          0 HIT:          0 MISS:          0
cpu0_ITLB TRANSLATION  ACCESS:          0 HIT:          0 MISS:          0
cpu0_ITLB PREFETCH REQUESTED:          0 ISSUED:          0 USEFUL:          0 USELESS:          0
cpu0_ITLB AVERAGE MISS LATENCY: 6.75 cycles
cpu0_ITLB TOTAL        ACCESS:          0 HIT:          0 MISS:          0
cpu0_ITLB LOAD         ACCESS:          0 HIT:          0 MISS:          0
cpu0_ITLB RFO          ACCESS:          0 HIT:          0 MISS:          0
cpu0_ITLB PREFETCH     ACCESS:          0 HIT:          0 MISS:          0
cpu0_ITLB WRITE        ACCESS:          0 HIT:          0 MISS:          0
cpu0_ITLB TRANSLATION  ACCESS:          0 HIT:          0 MISS:          0
cpu0_ITLB PREFETCH REQUESTED:          0 ISSUED:          0 USEFUL:          0 USELESS:          0
cpu0_ITLB AVERAGE MISS LATENCY: 6.75 cycles
cpu0_L1D TOTAL        ACCESS:   49863953 HIT:   44976201 MISS:    4887752
cpu0_L1D LOAD         ACCESS:   22946624 HIT:   19902816 MISS:    3043808
cpu0_L1D RFO          ACCESS:          0 HIT:          0 MISS:          0
cpu0_L1D PREFETCH     ACCESS:      32883 HIT:       4624 MISS:      28259
cpu0_L1D WRITE        ACCESS:   25993313 HIT:   24923644 MISS:    1069669
cpu0_L1D TRANSLATION  ACCESS:     891133 HIT:     145117 MISS:     746016
cpu0_L1D PREFETCH REQUESTED:      32883 ISSUED:      32883 USEFUL:       1690 USELESS:       1403
cpu0_L1D AVERAGE MISS LATENCY: 190.5 cycles
cpu0_L1D TOTAL        ACCESS:          0 HIT:          0 MISS:          0
cpu0_L1D LOAD         ACCESS:          0 HIT:          0 MISS:          0
cpu0_L1D RFO          ACCESS:          0 HIT:          0 MISS:          0
cpu0_L1D PREFETCH     ACCESS:          0 HIT:          0 MISS:          0
cpu0_L1D WRITE        ACCESS:          0 HIT:          0 MISS:          0
cpu0_L1D TRANSLATION  ACCESS:          0 HIT:          0 MISS:          0
cpu0_L1D PREFETCH REQUESTED:      32883 ISSUED:      32883 USEFUL:       1690 USELESS:       1403
cpu0_L1D AVERAGE MISS LATENCY: 190.5 cycles
cpu0_L1D TOTAL        ACCESS:          0 HIT:          0 MISS:          0
cpu0_L1D LOAD         ACCESS:          0 HIT:          0 MISS:          0
cpu0_L1D RFO          ACCESS:          0 HIT:          0 MISS:          0
cpu0_L1D PREFETCH     ACCESS:          0 HIT:          0 MISS:          0
cpu0_L1D WRITE        ACCESS:          0 HIT:          0 MISS:          0
cpu0_L1D TRANSLATION  ACCESS:          0 HIT:          0 MISS:          0
cpu0_L1D PREFETCH REQUESTED:      32883 ISSUED:      32883 USEFUL:       1690 USELESS:       1403
cpu0_L1D AVERAGE MISS LATENCY: 190.5 cycles
cpu0_L1D TOTAL        ACCESS:          0 HIT:          0 MISS:          0
cpu0_L1D LOAD         ACCESS:          0 HIT:          0 MISS:          0
cpu0_L1D RFO          ACCESS:          0 HIT:          0 MISS:          0
cpu0_L1D PREFETCH     ACCESS:          0 HIT:          0 MISS:          0
cpu0_L1D WRITE        ACCESS:          0 HIT:          0 MISS:          0
cpu0_L1D TRANSLATION  ACCESS:          0 HIT:          0 MISS:          0
cpu0_L1D PREFETCH REQUESTED:      32883 ISSUED:      32883 USEFUL:       1690 USELESS:       1403
cpu0_L1D AVERAGE MISS LATENCY: 190.5 cycles
cpu0_L1I TOTAL        ACCESS:   12866825 HIT:   12792838 MISS:      73987
cpu0_L1I LOAD         ACCESS:   12866825 HIT:   12792838 MISS:      73987
cpu0_L1I RFO          ACCESS:          0 HIT:          0 MISS:          0
cpu0_L1I PREFETCH     ACCESS:          0 HIT:          0 MISS:          0
cpu0_L1I WRITE        ACCESS:          0 HIT:          0 MISS:          0
cpu0_L1I TRANSLATION  ACCESS:          0 HIT:          0 MISS:          0
cpu0_L1I PREFETCH REQUESTED:          0 ISSUED:          0 USEFUL:          0 USELESS:          0
cpu0_L1I AVERAGE MISS LATENCY: 25.84 cycles
cpu0_L1I TOTAL        ACCESS:          0 HIT:          0 MISS:          0
cpu0_L1I LOAD         ACCESS:          0 HIT:          0 MISS:          0
cpu0_L1I RFO          ACCESS:          0 HIT:          0 MISS:          0
cpu0_L1I PREFETCH     ACCESS:          0 HIT:          0 MISS:          0
cpu0_L1I WRITE        ACCESS:          0 HIT:          0 MISS:          0
cpu0_L1I TRANSLATION  ACCESS:          0 HIT:          0 MISS:          0
cpu0_L1I PREFETCH REQUESTED:          0 ISSUED:          0 USEFUL:          0 USELESS:          0
cpu0_L1I AVERAGE MISS LATENCY: 25.84 cycles
cpu0_L1I TOTAL        ACCESS:          0 HIT:          0 MISS:          0
cpu0_L1I LOAD         ACCESS:          0 HIT:          0 MISS:          0
cpu0_L1I RFO          ACCESS:          0 HIT:          0 MISS:          0
cpu0_L1I PREFETCH     ACCESS:          0 HIT:          0 MISS:          0
cpu0_L1I WRITE        ACCESS:          0 HIT:          0 MISS:          0
cpu0_L1I TRANSLATION  ACCESS:          0 HIT:          0 MISS:          0
cpu0_L1I PREFETCH REQUESTED:          0 ISSUED:          0 USEFUL:          0 USELESS:          0
cpu0_L1I AVERAGE MISS LATENCY: 25.84 cycles
cpu0_L1I TOTAL        ACCESS:          0 HIT:          0 MISS:          0
cpu0_L1I LOAD         ACCESS:          0 HIT:          0 MISS:          0
cpu0_L1I RFO          ACCESS:          0 HIT:          0 MISS:          0
cpu0_L1I PREFETCH     ACCESS:          0 HIT:          0 MISS:          0
cpu0_L1I WRITE        ACCESS:          0 HIT:          0 MISS:          0
cpu0_L1I TRANSLATION  ACCESS:          0 HIT:          0 MISS:          0
cpu0_L1I PREFETCH REQUESTED:          0 ISSUED:          0 USEFUL:          0 USELESS:          0
cpu0_L1I AVERAGE MISS LATENCY: 25.84 cycles
cpu0_L2C TOTAL        ACCESS:    5077548 HIT:    2519956 MISS:    2557592
cpu0_L2C LOAD         ACCESS:    2538041 HIT:     855856 MISS:    1682185
cpu0_L2C RFO          ACCESS:     365385 HIT:     107495 MISS:     257890
cpu0_L2C PREFETCH     ACCESS:      27311 HIT:       8255 MISS:      19056
cpu0_L2C WRITE        ACCESS:    1401552 HIT:    1399266 MISS:       2286
cpu0_L2C TRANSLATION  ACCESS:     745259 HIT:     149084 MISS:     596175
cpu0_L2C PREFETCH REQUESTED:          0 ISSUED:          0 USEFUL:          0 USELESS:          0
cpu0_L2C AVERAGE MISS LATENCY: 361.6 cycles
cpu0_L2C TOTAL        ACCESS:          0 HIT:          0 MISS:          0
cpu0_L2C LOAD         ACCESS:          0 HIT:          0 MISS:          0
cpu0_L2C RFO          ACCESS:          0 HIT:          0 MISS:          0
cpu0_L2C PREFETCH     ACCESS:          0 HIT:          0 MISS:          0
cpu0_L2C WRITE        ACCESS:          0 HIT:          0 MISS:          0
cpu0_L2C TRANSLATION  ACCESS:          0 HIT:          0 MISS:          0
cpu0_L2C PREFETCH REQUESTED:          0 ISSUED:          0 USEFUL:          0 USELESS:          0
cpu0_L2C AVERAGE MISS LATENCY: 361.6 cycles
cpu0_L2C TOTAL        ACCESS:          0 HIT:          0 MISS:          0
cpu0_L2C LOAD         ACCESS:          0 HIT:          0 MISS:          0
cpu0_L2C RFO          ACCESS:          0 HIT:          0 MISS:          0
cpu0_L2C PREFETCH     ACCESS:          0 HIT:          0 MISS:          0
cpu0_L2C WRITE        ACCESS:          0 HIT:          0 MISS:          0
cpu0_L2C TRANSLATION  ACCESS:          0 HIT:          0 MISS:          0
cpu0_L2C PREFETCH REQUESTED:          0 ISSUED:          0 USEFUL:          0 USELESS:          0
cpu0_L2C AVERAGE MISS LATENCY: 361.6 cycles
cpu0_L2C TOTAL        ACCESS:          0 HIT:          0 MISS:          0
cpu0_L2C LOAD         ACCESS:          0 HIT:          0 MISS:          0
cpu0_L2C RFO          ACCESS:          0 HIT:          0 MISS:          0
cpu0_L2C PREFETCH     ACCESS:          0 HIT:          0 MISS:          0
cpu0_L2C WRITE        ACCESS:          0 HIT:          0 MISS:          0
cpu0_L2C TRANSLATION  ACCESS:          0 HIT:          0 MISS:          0
cpu0_L2C PREFETCH REQUESTED:          0 ISSUED:          0 USEFUL:          0 USELESS:          0
cpu0_L2C AVERAGE MISS LATENCY: 361.6 cycles
cpu0_STLB TOTAL        ACCESS:    3014524 HIT:    2372099 MISS:     642425
cpu0_STLB LOAD         ACCESS:    3014524 HIT:    2372099 MISS:     642425
cpu0_STLB RFO          ACCESS:          0 HIT:          0 MISS:          0
cpu0_STLB PREFETCH     ACCESS:          0 HIT:          0 MISS:          0
cpu0_STLB WRITE        ACCESS:          0 HIT:          0 MISS:          0
cpu0_STLB TRANSLATION  ACCESS:          0 HIT:          0 MISS:          0
cpu0_STLB PREFETCH REQUESTED:          0 ISSUED:          0 USEFUL:          0 USELESS:          0
cpu0_STLB AVERAGE MISS LATENCY: 397.7 cycles
cpu0_STLB TOTAL        ACCESS:          0 HIT:          0 MISS:          0
cpu0_STLB LOAD         ACCESS:          0 HIT:          0 MISS:          0
cpu0_STLB RFO          ACCESS:          0 HIT:          0 MISS:          0
cpu0_STLB PREFETCH     ACCESS:          0 HIT:          0 MISS:          0
cpu0_STLB WRITE        ACCESS:          0 HIT:          0 MISS:          0
cpu0_STLB TRANSLATION  ACCESS:          0 HIT:          0 MISS:          0
cpu0_STLB PREFETCH REQUESTED:          0 ISSUED:          0 USEFUL:          0 USELESS:          0
cpu0_STLB AVERAGE MISS LATENCY: 397.7 cycles
cpu0_STLB TOTAL        ACCESS:          0 HIT:          0 MISS:          0
cpu0_STLB LOAD         ACCESS:          0 HIT:          0 MISS:          0
cpu0_STLB RFO          ACCESS:          0 HIT:          0 MISS:          0
cpu0_STLB PREFETCH     ACCESS:          0 HIT:          0 MISS:          0
cpu0_STLB WRITE        ACCESS:          0 HIT:          0 MISS:          0
cpu0_STLB TRANSLATION  ACCESS:          0 HIT:          0 MISS:          0
cpu0_STLB PREFETCH REQUESTED:          0 ISSUED:          0 USEFUL:          0 USELESS:          0
cpu0_STLB AVERAGE MISS LATENCY: 397.7 cycles
cpu0_STLB TOTAL        ACCESS:          0 HIT:          0 MISS:          0
cpu0_STLB LOAD         ACCESS:          0 HIT:          0 MISS:          0
cpu0_STLB RFO          ACCESS:          0 HIT:          0 MISS:          0
cpu0_STLB PREFETCH     ACCESS:          0 HIT:          0 MISS:          0
cpu0_STLB WRITE        ACCESS:          0 HIT:          0 MISS:          0
cpu0_STLB TRANSLATION  ACCESS:          0 HIT:          0 MISS:          0
cpu0_STLB PREFETCH REQUESTED:          0 ISSUED:          0 USEFUL:          0 USELESS:          0
cpu0_STLB AVERAGE MISS LATENCY: 397.7 cycles
cpu1_DTLB TOTAL        ACCESS:          0 HIT:          0 MISS:          0
cpu1_DTLB LOAD         ACCESS:          0 HIT:          0 MISS:          0
cpu1_DTLB RFO          ACCESS:          0 HIT:          0 MISS:          0
cpu1_DTLB PREFETCH     ACCESS:          0 HIT:          0 MISS:          0
cpu1_DTLB WRITE        ACCESS:          0 HIT:          0 MISS:          0
cpu1_DTLB TRANSLATION  ACCESS:          0 HIT:          0 MISS:          0
cpu1_DTLB PREFETCH REQUESTED:          0 ISSUED:          0 USEFUL:          0 USELESS:          0
cpu1_DTLB AVERAGE MISS LATENCY: 10.09 cycles
cpu1_DTLB TOTAL        ACCESS:  178881791 HIT:  177279523 MISS:    1602268
cpu1_DTLB LOAD         ACCESS:  178881791 HIT:  177279523 MISS:    1602268
cpu1_DTLB RFO          ACCESS:          0 HIT:          0 MISS:          0
cpu1_DTLB PREFETCH     ACCESS:          0 HIT:          0 MISS:          0
cpu1_DTLB WRITE        ACCESS:          0 HIT:          0 MISS:          0
cpu1_DTLB TRANSLATION  ACCESS:          0 HIT:          0 MISS:          0
cpu1_DTLB PREFETCH REQUESTED:          0 ISSUED:          0 USEFUL:          0 USELESS:          0
cpu1_DTLB AVERAGE MISS LATENCY: 10.09 cycles
cpu1_DTLB TOTAL        ACCESS:          0 HIT:          0 MISS:          0
cpu1_DTLB LOAD         ACCESS:          0 HIT:          0 MISS:          0
cpu1_DTLB RFO          ACCESS:          0 HIT:          0 MISS:          0
cpu1_DTLB PREFETCH     ACCESS:          0 HIT:          0 MISS:          0
cpu1_DTLB WRITE        ACCESS:          0 HIT:          0 MISS:          0
cpu1_DTLB TRANSLATION  ACCESS:          0 HIT:          0 MISS:          0
cpu1_DTLB PREFETCH REQUESTED:          0 ISSUED:          0 USEFUL:          0 USELESS:          0
cpu1_DTLB AVERAGE MISS LATENCY: 10.09 cycles
cpu1_DTLB TOTAL        ACCESS:          0 HIT:          0 MISS:          0
cpu1_DTLB LOAD         ACCESS:          0 HIT:          0 MISS:          0
cpu1_DTLB RFO          ACCESS:          0 HIT:          0 MISS:          0
cpu1_DTLB PREFETCH     ACCESS:          0 HIT:          0 MISS:          0
cpu1_DTLB WRITE        ACCESS:          0 HIT:          0 MISS:          0
cpu1_DTLB TRANSLATION  ACCESS:          0 HIT:          0 MISS:          0
cpu1_DTLB PREFETCH REQUESTED:          0 ISSUED:          0 USEFUL:          0 USELESS:          0
cpu1_DTLB AVERAGE MISS LATENCY: 10.09 cycles
cpu1_ITLB TOTAL        ACCESS:          0 HIT:          0 MISS:          0
cpu1_ITLB LOAD         ACCESS:          0 HIT:          0 MISS:          0
cpu1_ITLB RFO          ACCESS:          0 HIT:          0 MISS:          0
cpu1_ITLB PREFETCH     ACCESS:          0 HIT:          0 MISS:          0
cpu1_ITLB WRITE        ACCESS:          0 HIT:          0 MISS:          0
cpu1_ITLB TRANSLATION  ACCESS:          0 HIT:          0 MISS:          0
cpu1_ITLB PREFETCH REQUESTED:          0 ISSUED:          0 USEFUL:          0 USELESS:          0
cpu1_ITLB AVERAGE MISS LATENCY: -nan cycles
cpu1_ITLB TOTAL        ACCESS:       8397 HIT:       8397 MISS:          0
cpu1_ITLB LOAD         ACCESS:       8397 HIT:       8397 MISS:          0
cpu1_ITLB RFO          ACCESS:          0 HIT:          0 MISS:          0
cpu1_ITLB PREFETCH     ACCESS:          0 HIT:          0 MISS:          0
cpu1_ITLB WRITE        ACCESS:          0 HIT:          0 MISS:          0
cpu1_ITLB TRANSLATION  ACCESS:          0 HIT:          0 MISS:          0
cpu1_ITLB PREFETCH REQUESTED:          0 ISSUED:          0 USEFUL:          0 USELESS:          0
cpu1_ITLB AVERAGE MISS LATENCY: -nan cycles
cpu1_ITLB TOTAL        ACCESS:          0 HIT:          0 MISS:          0
cpu1_ITLB LOAD         ACCESS:          0 HIT:          0 MISS:          0
cpu1_ITLB RFO          ACCESS:          0 HIT:          0 MISS:          0
cpu1_ITLB PREFETCH     ACCESS:          0 HIT:          0 MISS:          0
cpu1_ITLB WRITE        ACCESS:          0 HIT:          0 MISS:          0
cpu1_ITLB TRANSLATION  ACCESS:          0 HIT:          0 MISS:          0
cpu1_ITLB PREFETCH REQUESTED:          0 ISSUED:          0 USEFUL:          0 USELESS:          0
cpu1_ITLB AVERAGE MISS LATENCY: -nan cycles
cpu1_ITLB TOTAL        ACCESS:          0 HIT:          0 MISS:          0
cpu1_ITLB LOAD         ACCESS:          0 HIT:          0 MISS:          0
cpu1_ITLB RFO          ACCESS:          0 HIT:          0 MISS:          0
cpu1_ITLB PREFETCH     ACCESS:          0 HIT:          0 MISS:          0
cpu1_ITLB WRITE        ACCESS:          0 HIT:          0 MISS:          0
cpu1_ITLB TRANSLATION  ACCESS:          0 HIT:          0 MISS:          0
cpu1_ITLB PREFETCH REQUESTED:          0 ISSUED:          0 USEFUL:          0 USELESS:          0
cpu1_ITLB AVERAGE MISS LATENCY: -nan cycles
cpu1_L1D TOTAL        ACCESS:          0 HIT:          0 MISS:          0
cpu1_L1D LOAD         ACCESS:          0 HIT:          0 MISS:          0
cpu1_L1D RFO          ACCESS:          0 HIT:          0 MISS:          0
cpu1_L1D PREFETCH     ACCESS:          0 HIT:          0 MISS:          0
cpu1_L1D WRITE        ACCESS:          0 HIT:          0 MISS:          0
cpu1_L1D TRANSLATION  ACCESS:          0 HIT:          0 MISS:          0
cpu1_L1D PREFETCH REQUESTED:  128912420 ISSUED:   12926859 USEFUL:     608644 USELESS:     217099
cpu1_L1D AVERAGE MISS LATENCY: 24.65 cycles
cpu1_L1D TOTAL        ACCESS:  254137130 HIT:  245691069 MISS:    8446061
cpu1_L1D LOAD         ACCESS:  132352134 HIT:  128760721 MISS:    3591413
cpu1_L1D RFO          ACCESS:          0 HIT:          0 MISS:          0
cpu1_L1D PREFETCH     ACCESS:   12926859 HIT:    8131450 MISS:    4795409
cpu1_L1D WRITE        ACCESS:  108850619 HIT:  108798767 MISS:      51852
cpu1_L1D TRANSLATION  ACCESS:       7518 HIT:        131 MISS:       7387
cpu1_L1D PREFETCH REQUESTED:  128912420 ISSUED:   12926859 USEFUL:     608644 USELESS:     217099
cpu1_L1D AVERAGE MISS LATENCY: 24.65 cycles
cpu1_L1D TOTAL        ACCESS:          0 HIT:          0 MISS:          0
cpu1_L1D LOAD         ACCESS:          0 HIT:          0 MISS:          0
cpu1_L1D RFO          ACCESS:          0 HIT:          0 MISS:          0
cpu1_L1D PREFETCH     ACCESS:          0 HIT:          0 MISS:          0
cpu1_L1D WRITE        ACCESS:          0 HIT:          0 MISS:          0
cpu1_L1D TRANSLATION  ACCESS:          0 HIT:          0 MISS:          0
cpu1_L1D PREFETCH REQUESTED:  128912420 ISSUED:   12926859 USEFUL:     608644 USELESS:     217099
cpu1_L1D AVERAGE MISS LATENCY: 24.65 cycles
cpu1_L1D TOTAL        ACCESS:          0 HIT:          0 MISS:          0
cpu1_L1D LOAD         ACCESS:          0 HIT:          0 MISS:          0
cpu1_L1D RFO          ACCESS:          0 HIT:          0 MISS:          0
cpu1_L1D PREFETCH     ACCESS:          0 HIT:          0 MISS:          0
cpu1_L1D WRITE        ACCESS:          0 HIT:          0 MISS:          0
cpu1_L1D TRANSLATION  ACCESS:          0 HIT:          0 MISS:          0
cpu1_L1D PREFETCH REQUESTED:  128912420 ISSUED:   12926859 USEFUL:     608644 USELESS:     217099
cpu1_L1D AVERAGE MISS LATENCY: 24.65 cycles
cpu1_L1I TOTAL        ACCESS:          0 HIT:          0 MISS:          0
cpu1_L1I LOAD         ACCESS:          0 HIT:          0 MISS:          0
cpu1_L1I RFO          ACCESS:          0 HIT:          0 MISS:          0
cpu1_L1I PREFETCH     ACCESS:          0 HIT:          0 MISS:          0
cpu1_L1I WRITE        ACCESS:          0 HIT:          0 MISS:          0
cpu1_L1I TRANSLATION  ACCESS:          0 HIT:          0 MISS:          0
cpu1_L1I PREFETCH REQUESTED:          0 ISSUED:          0 USEFUL:          0 USELESS:          0
cpu1_L1I AVERAGE MISS LATENCY: 862 cycles
cpu1_L1I TOTAL        ACCESS:      10451 HIT:      10449 MISS:          2
cpu1_L1I LOAD         ACCESS:      10451 HIT:      10449 MISS:          2
cpu1_L1I RFO          ACCESS:          0 HIT:          0 MISS:          0
cpu1_L1I PREFETCH     ACCESS:          0 HIT:          0 MISS:          0
cpu1_L1I WRITE        ACCESS:          0 HIT:          0 MISS:          0
cpu1_L1I TRANSLATION  ACCESS:          0 HIT:          0 MISS:          0
cpu1_L1I PREFETCH REQUESTED:          0 ISSUED:          0 USEFUL:          0 USELESS:          0
cpu1_L1I AVERAGE MISS LATENCY: 862 cycles
cpu1_L1I TOTAL        ACCESS:          0 HIT:          0 MISS:          0
cpu1_L1I LOAD         ACCESS:          0 HIT:          0 MISS:          0
cpu1_L1I RFO          ACCESS:          0 HIT:          0 MISS:          0
cpu1_L1I PREFETCH     ACCESS:          0 HIT:          0 MISS:          0
cpu1_L1I WRITE        ACCESS:          0 HIT:          0 MISS:          0
cpu1_L1I TRANSLATION  ACCESS:          0 HIT:          0 MISS:          0
cpu1_L1I PREFETCH REQUESTED:          0 ISSUED:          0 USEFUL:          0 USELESS:          0
cpu1_L1I AVERAGE MISS LATENCY: 862 cycles
cpu1_L1I TOTAL        ACCESS:          0 HIT:          0 MISS:          0
cpu1_L1I LOAD         ACCESS:          0 HIT:          0 MISS:          0
cpu1_L1I RFO          ACCESS:          0 HIT:          0 MISS:          0
cpu1_L1I PREFETCH     ACCESS:          0 HIT:          0 MISS:          0
cpu1_L1I WRITE        ACCESS:          0 HIT:          0 MISS:          0
cpu1_L1I TRANSLATION  ACCESS:          0 HIT:          0 MISS:          0
cpu1_L1I PREFETCH REQUESTED:          0 ISSUED:          0 USEFUL:          0 USELESS:          0
cpu1_L1I AVERAGE MISS LATENCY: 862 cycles
cpu1_L2C TOTAL        ACCESS:          0 HIT:          0 MISS:          0
cpu1_L2C LOAD         ACCESS:          0 HIT:          0 MISS:          0
cpu1_L2C RFO          ACCESS:          0 HIT:          0 MISS:          0
cpu1_L2C PREFETCH     ACCESS:          0 HIT:          0 MISS:          0
cpu1_L2C WRITE        ACCESS:          0 HIT:          0 MISS:          0
cpu1_L2C TRANSLATION  ACCESS:          0 HIT:          0 MISS:          0
cpu1_L2C PREFETCH REQUESTED:          0 ISSUED:          0 USEFUL:          0 USELESS:          0
cpu1_L2C AVERAGE MISS LATENCY: 925.5 cycles
cpu1_L2C TOTAL        ACCESS:    9811118 HIT:    9522407 MISS:     288711
cpu1_L2C LOAD         ACCESS:    3578657 HIT:    3549611 MISS:      29046
cpu1_L2C RFO          ACCESS:      13277 HIT:      12699 MISS:        578
cpu1_L2C PREFETCH     ACCESS:    4790845 HIT:    4534903 MISS:     255942
cpu1_L2C WRITE        ACCESS:    1420952 HIT:    1420926 MISS:         26
cpu1_L2C TRANSLATION  ACCESS:       7387 HIT:       4268 MISS:       3119
cpu1_L2C PREFETCH REQUESTED:          0 ISSUED:          0 USEFUL:          0 USELESS:          0
cpu1_L2C AVERAGE MISS LATENCY: 925.5 cycles
cpu1_L2C TOTAL        ACCESS:          0 HIT:          0 MISS:          0
cpu1_L2C LOAD         ACCESS:          0 HIT:          0 MISS:          0
cpu1_L2C RFO          ACCESS:          0 HIT:          0 MISS:          0
cpu1_L2C PREFETCH     ACCESS:          0 HIT:          0 MISS:          0
cpu1_L2C WRITE        ACCESS:          0 HIT:          0 MISS:          0
cpu1_L2C TRANSLATION  ACCESS:          0 HIT:          0 MISS:          0
cpu1_L2C PREFETCH REQUESTED:          0 ISSUED:          0 USEFUL:          0 USELESS:          0
cpu1_L2C AVERAGE MISS LATENCY: 925.5 cycles
cpu1_L2C TOTAL        ACCESS:          0 HIT:          0 MISS:          0
cpu1_L2C LOAD         ACCESS:          0 HIT:          0 MISS:          0
cpu1_L2C RFO          ACCESS:          0 HIT:          0 MISS:          0
cpu1_L2C PREFETCH     ACCESS:          0 HIT:          0 MISS:          0
cpu1_L2C WRITE        ACCESS:          0 HIT:          0 MISS:          0
cpu1_L2C TRANSLATION  ACCESS:          0 HIT:          0 MISS:          0
cpu1_L2C PREFETCH REQUESTED:          0 ISSUED:          0 USEFUL:          0 USELESS:          0
cpu1_L2C AVERAGE MISS LATENCY: 925.5 cycles
cpu1_STLB TOTAL        ACCESS:          0 HIT:          0 MISS:          0
cpu1_STLB LOAD         ACCESS:          0 HIT:          0 MISS:          0
cpu1_STLB RFO          ACCESS:          0 HIT:          0 MISS:          0
cpu1_STLB PREFETCH     ACCESS:          0 HIT:          0 MISS:          0
cpu1_STLB WRITE        ACCESS:          0 HIT:          0 MISS:          0
cpu1_STLB TRANSLATION  ACCESS:          0 HIT:          0 MISS:          0
cpu1_STLB PREFETCH REQUESTED:          0 ISSUED:          0 USEFUL:          0 USELESS:          0
cpu1_STLB AVERAGE MISS LATENCY: 619.2 cycles
cpu1_STLB TOTAL        ACCESS:    1547004 HIT:    1539598 MISS:       7406
cpu1_STLB LOAD         ACCESS:    1547004 HIT:    1539598 MISS:       7406
cpu1_STLB RFO          ACCESS:          0 HIT:          0 MISS:          0
cpu1_STLB PREFETCH     ACCESS:          0 HIT:          0 MISS:          0
cpu1_STLB WRITE        ACCESS:          0 HIT:          0 MISS:          0
cpu1_STLB TRANSLATION  ACCESS:          0 HIT:          0 MISS:          0
cpu1_STLB PREFETCH REQUESTED:          0 ISSUED:          0 USEFUL:          0 USELESS:          0
cpu1_STLB AVERAGE MISS LATENCY: 619.2 cycles
cpu1_STLB TOTAL        ACCESS:          0 HIT:          0 MISS:          0
cpu1_STLB LOAD         ACCESS:          0 HIT:          0 MISS:          0
cpu1_STLB RFO          ACCESS:          0 HIT:          0 MISS:          0
cpu1_STLB PREFETCH     ACCESS:          0 HIT:          0 MISS:          0
cpu1_STLB WRITE        ACCESS:          0 HIT:          0 MISS:          0
cpu1_STLB TRANSLATION  ACCESS:          0 HIT:          0 MISS:          0
cpu1_STLB PREFETCH REQUESTED:          0 ISSUED:          0 USEFUL:          0 USELESS:          0
cpu1_STLB AVERAGE MISS LATENCY: 619.2 cycles
cpu1_STLB TOTAL        ACCESS:          0 HIT:          0 MISS:          0
cpu1_STLB LOAD         ACCESS:          0 HIT:          0 MISS:          0
cpu1_STLB RFO          ACCESS:          0 HIT:          0 MISS:          0
cpu1_STLB PREFETCH     ACCESS:          0 HIT:          0 MISS:          0
cpu1_STLB WRITE        ACCESS:          0 HIT:          0 MISS:          0
cpu1_STLB TRANSLATION  ACCESS:          0 HIT:          0 MISS:          0
cpu1_STLB PREFETCH REQUESTED:          0 ISSUED:          0 USEFUL:          0 USELESS:          0
cpu1_STLB AVERAGE MISS LATENCY: 619.2 cycles
cpu2_DTLB TOTAL        ACCESS:          0 HIT:          0 MISS:          0
cpu2_DTLB LOAD         ACCESS:          0 HIT:          0 MISS:          0
cpu2_DTLB RFO          ACCESS:          0 HIT:          0 MISS:          0
cpu2_DTLB PREFETCH     ACCESS:          0 HIT:          0 MISS:          0
cpu2_DTLB WRITE        ACCESS:          0 HIT:          0 MISS:          0
cpu2_DTLB TRANSLATION  ACCESS:          0 HIT:          0 MISS:          0
cpu2_DTLB PREFETCH REQUESTED:          0 ISSUED:          0 USEFUL:          0 USELESS:          0
cpu2_DTLB AVERAGE MISS LATENCY: 6.847 cycles
cpu2_DTLB TOTAL        ACCESS:          0 HIT:          0 MISS:          0
cpu2_DTLB LOAD         ACCESS:          0 HIT:          0 MISS:          0
cpu2_DTLB RFO          ACCESS:          0 HIT:          0 MISS:          0
cpu2_DTLB PREFETCH     ACCESS:          0 HIT:          0 MISS:          0
cpu2_DTLB WRITE        ACCESS:          0 HIT:          0 MISS:          0
cpu2_DTLB TRANSLATION  ACCESS:          0 HIT:          0 MISS:          0
cpu2_DTLB PREFETCH REQUESTED:          0 ISSUED:          0 USEFUL:          0 USELESS:          0
cpu2_DTLB AVERAGE MISS LATENCY: 6.847 cycles
cpu2_DTLB TOTAL        ACCESS:  108208517 HIT:   88156614 MISS:   20051903
cpu2_DTLB LOAD         ACCESS:  108208517 HIT:   88156614 MISS:   20051903
cpu2_DTLB RFO          ACCESS:          0 HIT:          0 MISS:          0
cpu2_DTLB PREFETCH     ACCESS:          0 HIT:          0 MISS:          0
cpu2_DTLB WRITE        ACCESS:          0 HIT:          0 MISS:          0
cpu2_DTLB TRANSLATION  ACCESS:          0 HIT:          0 MISS:          0
cpu2_DTLB PREFETCH REQUESTED:          0 ISSUED:          0 USEFUL:          0 USELESS:          0
cpu2_DTLB AVERAGE MISS LATENCY: 6.847 cycles
cpu2_DTLB TOTAL        ACCESS:          0 HIT:          0 MISS:          0
cpu2_DTLB LOAD         ACCESS:          0 HIT:          0 MISS:          0
cpu2_DTLB RFO          ACCESS:          0 HIT:          0 MISS:          0
cpu2_DTLB PREFETCH     ACCESS:          0 HIT:          0 MISS:          0
cpu2_DTLB WRITE        ACCESS:          0 HIT:          0 MISS:          0
cpu2_DTLB TRANSLATION  ACCESS:          0 HIT:          0 MISS:          0
cpu2_DTLB PREFETCH REQUESTED:          0 ISSUED:          0 USEFUL:          0 USELESS:          0
cpu2_DTLB AVERAGE MISS LATENCY: 6.847 cycles
cpu2_ITLB TOTAL        ACCESS:          0 HIT:          0 MISS:          0
cpu2_ITLB LOAD         ACCESS:          0 HIT:          0 MISS:          0
cpu2_ITLB RFO          ACCESS:          0 HIT:          0 MISS:          0
cpu2_ITLB PREFETCH     ACCESS:          0 HIT:          0 MISS:          0
cpu2_ITLB WRITE        ACCESS:          0 HIT:          0 MISS:          0
cpu2_ITLB TRANSLATION  ACCESS:          0 HIT:          0 MISS:          0
cpu2_ITLB PREFETCH REQUESTED:          0 ISSUED:          0 USEFUL:          0 USELESS:          0
cpu2_ITLB AVERAGE MISS LATENCY: 5.049 cycles
cpu2_ITLB TOTAL        ACCESS:          0 HIT:          0 MISS:          0
cpu2_ITLB LOAD         ACCESS:          0 HIT:          0 MISS:          0
cpu2_ITLB RFO          ACCESS:          0 HIT:          0 MISS:          0
cpu2_ITLB PREFETCH     ACCESS:          0 HIT:          0 MISS:          0
cpu2_ITLB WRITE        ACCESS:          0 HIT:          0 MISS:          0
cpu2_ITLB TRANSLATION  ACCESS:          0 HIT:          0 MISS:          0
cpu2_ITLB PREFETCH REQUESTED:          0 ISSUED:          0 USEFUL:          0 USELESS:          0
cpu2_ITLB AVERAGE MISS LATENCY: 5.049 cycles
cpu2_ITLB TOTAL        ACCESS:   16847552 HIT:   16469468 MISS:     378084
cpu2_ITLB LOAD         ACCESS:   16847552 HIT:   16469468 MISS:     378084
cpu2_ITLB RFO          ACCESS:          0 HIT:          0 MISS:          0
cpu2_ITLB PREFETCH     ACCESS:          0 HIT:          0 MISS:          0
cpu2_ITLB WRITE        ACCESS:          0 HIT:          0 MISS:          0
cpu2_ITLB TRANSLATION  ACCESS:          0 HIT:          0 MISS:          0
cpu2_ITLB PREFETCH REQUESTED:          0 ISSUED:          0 USEFUL:          0 USELESS:          0
cpu2_ITLB AVERAGE MISS LATENCY: 5.049 cycles
cpu2_ITLB TOTAL        ACCESS:          0 HIT:          0 MISS:          0
cpu2_ITLB LOAD         ACCESS:          0 HIT:          0 MISS:          0
cpu2_ITLB RFO          ACCESS:          0 HIT:          0 MISS:          0
cpu2_ITLB PREFETCH     ACCESS:          0 HIT:          0 MISS:          0
cpu2_ITLB WRITE        ACCESS:          0 HIT:          0 MISS:          0
cpu2_ITLB TRANSLATION  ACCESS:          0 HIT:          0 MISS:          0
cpu2_ITLB PREFETCH REQUESTED:          0 ISSUED:          0 USEFUL:          0 USELESS:          0
cpu2_ITLB AVERAGE MISS LATENCY: 5.049 cycles
cpu2_L1D TOTAL        ACCESS:          0 HIT:          0 MISS:          0
cpu2_L1D LOAD         ACCESS:          0 HIT:          0 MISS:          0
cpu2_L1D RFO          ACCESS:          0 HIT:          0 MISS:          0
cpu2_L1D PREFETCH     ACCESS:          0 HIT:          0 MISS:          0
cpu2_L1D WRITE        ACCESS:          0 HIT:          0 MISS:          0
cpu2_L1D TRANSLATION  ACCESS:          0 HIT:          0 MISS:          0
cpu2_L1D PREFETCH REQUESTED:  127338838 ISSUED:   22122418 USEFUL:     733602 USELESS:     880756
cpu2_L1D AVERAGE MISS LATENCY: 34.33 cycles
cpu2_L1D TOTAL        ACCESS:          0 HIT:          0 MISS:          0
cpu2_L1D LOAD         ACCESS:          0 HIT:          0 MISS:          0
cpu2_L1D RFO          ACCESS:          0 HIT:          0 MISS:          0
cpu2_L1D PREFETCH     ACCESS:          0 HIT:          0 MISS:          0
cpu2_L1D WRITE        ACCESS:          0 HIT:          0 MISS:          0
cpu2_L1D TRANSLATION  ACCESS:          0 HIT:          0 MISS:          0
cpu2_L1D PREFETCH REQUESTED:  127338838 ISSUED:   22122418 USEFUL:     733602 USELESS:     880756
cpu2_L1D AVERAGE MISS LATENCY: 34.33 cycles
cpu2_L1D TOTAL        ACCESS:  158340605 HIT:  117044009 MISS:   41296596
cpu2_L1D LOAD         ACCESS:   98760767 HIT:   67093320 MISS:   31667447
cpu2_L1D RFO          ACCESS:          0 HIT:          0 MISS:          0
cpu2_L1D PREFETCH     ACCESS:   22122449 HIT:   16755476 MISS:    5366973
cpu2_L1D WRITE        ACCESS:   36610923 HIT:   33157957 MISS:    3452966
cpu2_L1D TRANSLATION  ACCESS:     846466 HIT:      37256 MISS:     809210
cpu2_L1D PREFETCH REQUESTED:  127338838 ISSUED:   22122418 USEFUL:     733602 USELESS:     880756
cpu2_L1D AVERAGE MISS LATENCY: 34.33 cycles
cpu2_L1D TOTAL        ACCESS:          0 HIT:          0 MISS:          0
cpu2_L1D LOAD         ACCESS:          0 HIT:          0 MISS:          0
cpu2_L1D RFO          ACCESS:          0 HIT:          0 MISS:          0
cpu2_L1D PREFETCH     ACCESS:          0 HIT:          0 MISS:          0
cpu2_L1D WRITE        ACCESS:          0 HIT:          0 MISS:          0
cpu2_L1D TRANSLATION  ACCESS:          0 HIT:          0 MISS:          0
cpu2_L1D PREFETCH REQUESTED:  127338838 ISSUED:   22122418 USEFUL:     733602 USELESS:     880756
cpu2_L1D AVERAGE MISS LATENCY: 34.33 cycles
cpu2_L1I TOTAL        ACCESS:          0 HIT:          0 MISS:          0
cpu2_L1I LOAD         ACCESS:          0 HIT:          0 MISS:          0
cpu2_L1I RFO          ACCESS:          0 HIT:          0 MISS:          0
cpu2_L1I PREFETCH     ACCESS:          0 HIT:          0 MISS:          0
cpu2_L1I WRITE        ACCESS:          0 HIT:          0 MISS:          0
cpu2_L1I TRANSLATION  ACCESS:          0 HIT:          0 MISS:          0
cpu2_L1I PREFETCH REQUESTED:          0 ISSUED:          0 USEFUL:          0 USELESS:          0
cpu2_L1I AVERAGE MISS LATENCY: 10.79 cycles
cpu2_L1I TOTAL        ACCESS:          0 HIT:          0 MISS:          0
cpu2_L1I LOAD         ACCESS:          0 HIT:          0 MISS:          0
cpu2_L1I RFO          ACCESS:          0 HIT:          0 MISS:          0
cpu2_L1I PREFETCH     ACCESS:          0 HIT:          0 MISS:          0
cpu2_L1I WRITE        ACCESS:          0 HIT:          0 MISS:          0
cpu2_L1I TRANSLATION  ACCESS:          0 HIT:          0 MISS:          0
cpu2_L1I PREFETCH REQUESTED:          0 ISSUED:          0 USEFUL:          0 USELESS:          0
cpu2_L1I AVERAGE MISS LATENCY: 10.79 cycles
cpu2_L1I TOTAL        ACCESS:   20045666 HIT:   18288108 MISS:    1757558
cpu2_L1I LOAD         ACCESS:   20045666 HIT:   18288108 MISS:    1757558
cpu2_L1I RFO          ACCESS:          0 HIT:          0 MISS:          0
[...]
cpu2_L2C PREFETCH     ACCESS:          0 HIT:          0 MISS:          0
cpu2_L2C WRITE        ACCESS:          0 HIT:          0 MISS:          0
cpu2_L2C TRANSLATION  ACCESS:          0 HIT:          0 MISS:          0
cpu2_L2C PREFETCH REQUESTED:          0 ISSUED:          0 USEFUL:          0 USELESS:          0
cpu2_L2C AVERAGE MISS LATENCY: 499.1 cycles
cpu2_L2C TOTAL        ACCESS:          0 HIT:          0 MISS:          0
cpu2_L2C LOAD         ACCESS:          0 HIT:          0 MISS:          0
cpu2_L2C RFO          ACCESS:          0 HIT:          0 MISS:          0
cpu2_L2C PREFETCH     ACCESS:          0 HIT:          0 MISS:          0
cpu2_L2C WRITE        ACCESS:          0 HIT:          0 MISS:          0
cpu2_L2C TRANSLATION  ACCESS:          0 HIT:          0 MISS:          0
cpu2_L2C PREFETCH REQUESTED:          0 ISSUED:          0 USEFUL:          0 USELESS:          0
cpu2_L2C AVERAGE MISS LATENCY: 499.1 cycles
cpu2_L2C TOTAL        ACCESS:    9458790 HIT:    8813066 MISS:     645724
cpu2_L2C LOAD         ACCESS:    7723998 HIT:    7355921 MISS:     368077
cpu2_L2C RFO          ACCESS:     205622 HIT:      45528 MISS:     160094
cpu2_L2C PREFETCH     ACCESS:     929165 HIT:     843910 MISS:      85255
cpu2_L2C WRITE        ACCESS:     342681 HIT:     342669 MISS:         12
cpu2_L2C TRANSLATION  ACCESS:     257324 HIT:     225038 MISS:      32286
cpu2_L2C PREFETCH REQUESTED:          0 ISSUED:          0 USEFUL:          0 USELESS:          0
cpu2_L2C AVERAGE MISS LATENCY: 499.1 cycles
cpu2_L2C TOTAL        ACCESS:          0 HIT:          0 MISS:          0
cpu2_L2C LOAD         ACCESS:          0 HIT:          0 MISS:          0
cpu2_L2C RFO          ACCESS:          0 HIT:          0 MISS:          0
cpu2_L2C PREFETCH     ACCESS:          0 HIT:          0 MISS:          0
cpu2_L2C WRITE        ACCESS:          0 HIT:          0 MISS:          0
cpu2_L2C TRANSLATION  ACCESS:          0 HIT:          0 MISS:          0
cpu2_L2C PREFETCH REQUESTED:          0 ISSUED:          0 USEFUL:          0 USELESS:          0
cpu2_L2C AVERAGE MISS LATENCY: 499.1 cycles
cpu2_STLB TOTAL        ACCESS:          0 HIT:          0 MISS:          0
cpu2_STLB LOAD         ACCESS:          0 HIT:          0 MISS:          0
cpu2_STLB RFO          ACCESS:          0 HIT:          0 MISS:          0
cpu2_STLB PREFETCH     ACCESS:          0 HIT:          0 MISS:          0
cpu2_STLB WRITE        ACCESS:          0 HIT:          0 MISS:          0
cpu2_STLB TRANSLATION  ACCESS:          0 HIT:          0 MISS:          0
cpu2_STLB PREFETCH REQUESTED:          0 ISSUED:          0 USEFUL:          0 USELESS:          0
cpu2_STLB AVERAGE MISS LATENCY: 54.37 cycles
cpu2_STLB TOTAL        ACCESS:          0 HIT:          0 MISS:          0
cpu2_STLB LOAD         ACCESS:          0 HIT:          0 MISS:          0
cpu2_STLB RFO          ACCESS:          0 HIT:          0 MISS:          0
cpu2_STLB PREFETCH     ACCESS:          0 HIT:          0 MISS:          0
cpu2_STLB WRITE        ACCESS:          0 HIT:          0 MISS:          0
cpu2_STLB TRANSLATION  ACCESS:          0 HIT:          0 MISS:          0
cpu2_STLB PREFETCH REQUESTED:          0 ISSUED:          0 USEFUL:          0 USELESS:          0
cpu2_STLB AVERAGE MISS LATENCY: 54.37 cycles
cpu2_STLB TOTAL        ACCESS:    4511051 HIT:    4242095 MISS:     268956
cpu2_STLB LOAD         ACCESS:    4511051 HIT:    4242095 MISS:     268956
cpu2_STLB RFO          ACCESS:          0 HIT:          0 MISS:          0
cpu2_STLB PREFETCH     ACCESS:          0 HIT:          0 MISS:          0
cpu2_STLB WRITE        ACCESS:          0 HIT:          0 MISS:          0
cpu2_STLB TRANSLATION  ACCESS:          0 HIT:          0 MISS:          0
cpu2_STLB PREFETCH REQUESTED:          0 ISSUED:          0 USEFUL:          0 USELESS:          0
cpu2_STLB AVERAGE MISS LATENCY: 54.37 cycles
cpu2_STLB TOTAL        ACCESS:          0 HIT:          0 MISS:          0
cpu2_STLB LOAD         ACCESS:          0 HIT:          0 MISS:          0
cpu2_STLB RFO          ACCESS:          0 HIT:          0 MISS:          0
cpu2_STLB PREFETCH     ACCESS:          0 HIT:          0 MISS:          0
cpu2_STLB WRITE        ACCESS:          0 HIT:          0 MISS:          0
cpu2_STLB TRANSLATION  ACCESS:          0 HIT:          0 MISS:          0
cpu2_STLB PREFETCH REQUESTED:          0 ISSUED:          0 USEFUL:          0 USELESS:          0
cpu2_STLB AVERAGE MISS LATENCY: 54.37 cycles
cpu3_DTLB TOTAL        ACCESS:          0 HIT:          0 MISS:          0
cpu3_DTLB LOAD         ACCESS:          0 HIT:          0 MISS:          0
cpu3_DTLB RFO          ACCESS:          0 HIT:          0 MISS:          0
cpu3_DTLB PREFETCH     ACCESS:          0 HIT:          0 MISS:          0
cpu3_DTLB WRITE        ACCESS:          0 HIT:          0 MISS:          0
cpu3_DTLB TRANSLATION  ACCESS:          0 HIT:          0 MISS:          0
cpu3_DTLB PREFETCH REQUESTED:          0 ISSUED:          0 USEFUL:          0 USELESS:          0
cpu3_DTLB AVERAGE MISS LATENCY: 8.032 cycles
cpu3_DTLB TOTAL        ACCESS:          0 HIT:          0 MISS:          0
cpu3_DTLB LOAD         ACCESS:          0 HIT:          0 MISS:          0
cpu3_DTLB RFO          ACCESS:          0 HIT:          0 MISS:          0
cpu3_DTLB PREFETCH     ACCESS:          0 HIT:          0 MISS:          0
cpu3_DTLB WRITE        ACCESS:          0 HIT:          0 MISS:          0
cpu3_DTLB TRANSLATION  ACCESS:          0 HIT:          0 MISS:          0
cpu3_DTLB PREFETCH REQUESTED:          0 ISSUED:          0 USEFUL:          0 USELESS:          0
cpu3_DTLB AVERAGE MISS LATENCY: 8.032 cycles
cpu3_DTLB TOTAL        ACCESS:          0 HIT:          0 MISS:          0
cpu3_DTLB LOAD         ACCESS:          0 HIT:          0 MISS:          0
cpu3_DTLB RFO          ACCESS:          0 HIT:          0 MISS:          0
cpu3_DTLB PREFETCH     ACCESS:          0 HIT:          0 MISS:          0
cpu3_DTLB WRITE        ACCESS:          0 HIT:          0 MISS:          0
cpu3_DTLB TRANSLATION  ACCESS:          0 HIT:          0 MISS:          0
cpu3_DTLB PREFETCH REQUESTED:          0 ISSUED:          0 USEFUL:          0 USELESS:          0
cpu3_DTLB AVERAGE MISS LATENCY: 8.032 cycles
cpu3_DTLB TOTAL        ACCESS:   17833916 HIT:   17823515 MISS:      10401
cpu3_DTLB LOAD         ACCESS:   17833916 HIT:   17823515 MISS:      10401
cpu3_DTLB RFO          ACCESS:          0 HIT:          0 MISS:          0
cpu3_DTLB PREFETCH     ACCESS:          0 HIT:          0 MISS:          0
cpu3_DTLB WRITE        ACCESS:          0 HIT:          0 MISS:          0
cpu3_DTLB TRANSLATION  ACCESS:          0 HIT:          0 MISS:          0
cpu3_DTLB PREFETCH REQUESTED:          0 ISSUED:          0 USEFUL:          0 USELESS:          0
cpu3_DTLB AVERAGE MISS LATENCY: 8.032 cycles
cpu3_ITLB TOTAL        ACCESS:          0 HIT:          0 MISS:          0
cpu3_ITLB LOAD         ACCESS:          0 HIT:          0 MISS:          0
cpu3_ITLB RFO          ACCESS:          0 HIT:          0 MISS:          0
cpu3_ITLB PREFETCH     ACCESS:          0 HIT:          0 MISS:          0
cpu3_ITLB WRITE        ACCESS:          0 HIT:          0 MISS:          0
cpu3_ITLB TRANSLATION  ACCESS:          0 HIT:          0 MISS:          0
cpu3_ITLB PREFETCH REQUESTED:          0 ISSUED:          0 USEFUL:          0 USELESS:          0
cpu3_ITLB AVERAGE MISS LATENCY: 281.8 cycles
cpu3_ITLB TOTAL        ACCESS:          0 HIT:          0 MISS:          0
cpu3_ITLB LOAD         ACCESS:          0 HIT:          0 MISS:          0
cpu3_ITLB RFO          ACCESS:          0 HIT:          0 MISS:          0
cpu3_ITLB PREFETCH     ACCESS:          0 HIT:          0 MISS:          0
cpu3_ITLB WRITE        ACCESS:          0 HIT:          0 MISS:          0
cpu3_ITLB TRANSLATION  ACCESS:          0 HIT:          0 MISS:          0
cpu3_ITLB PREFETCH REQUESTED:          0 ISSUED:          0 USEFUL:          0 USELESS:          0
cpu3_ITLB AVERAGE MISS LATENCY: 281.8 cycles
cpu3_ITLB TOTAL        ACCESS:          0 HIT:          0 MISS:          0
cpu3_ITLB LOAD         ACCESS:          0 HIT:          0 MISS:          0
cpu3_ITLB RFO          ACCESS:          0 HIT:          0 MISS:          0
cpu3_ITLB PREFETCH     ACCESS:          0 HIT:          0 MISS:          0
cpu3_ITLB WRITE        ACCESS:          0 HIT:          0 MISS:          0
cpu3_ITLB TRANSLATION  ACCESS:          0 HIT:          0 MISS:          0
cpu3_ITLB PREFETCH REQUESTED:          0 ISSUED:          0 USEFUL:          0 USELESS:          0
cpu3_ITLB AVERAGE MISS LATENCY: 281.8 cycles
cpu3_ITLB TOTAL        ACCESS:     497752 HIT:     497752 MISS:          0
cpu3_ITLB LOAD         ACCESS:     497752 HIT:     497752 MISS:          0
cpu3_ITLB RFO          ACCESS:          0 HIT:          0 MISS:          0
cpu3_ITLB PREFETCH     ACCESS:          0 HIT:          0 MISS:          0
cpu3_ITLB WRITE        ACCESS:          0 HIT:          0 MISS:          0
cpu3_ITLB TRANSLATION  ACCESS:          0 HIT:          0 MISS:          0
cpu3_ITLB PREFETCH REQUESTED:          0 ISSUED:          0 USEFUL:          0 USELESS:          0
cpu3_ITLB AVERAGE MISS LATENCY: 281.8 cycles
cpu3_L1D TOTAL        ACCESS:          0 HIT:          0 MISS:          0
cpu3_L1D LOAD         ACCESS:          0 HIT:          0 MISS:          0
cpu3_L1D RFO          ACCESS:          0 HIT:          0 MISS:          0
cpu3_L1D PREFETCH     ACCESS:          0 HIT:          0 MISS:          0
cpu3_L1D WRITE        ACCESS:          0 HIT:          0 MISS:          0
cpu3_L1D TRANSLATION  ACCESS:          0 HIT:          0 MISS:          0
cpu3_L1D PREFETCH REQUESTED:  102948737 ISSUED:   10107122 USEFUL:     978918 USELESS:     205871
cpu3_L1D AVERAGE MISS LATENCY: 143.9 cycles
cpu3_L1D TOTAL        ACCESS:          0 HIT:          0 MISS:          0
cpu3_L1D LOAD         ACCESS:          0 HIT:          0 MISS:          0
cpu3_L1D RFO          ACCESS:          0 HIT:          0 MISS:          0
cpu3_L1D PREFETCH     ACCESS:          0 HIT:          0 MISS:          0
cpu3_L1D WRITE        ACCESS:          0 HIT:          0 MISS:          0
cpu3_L1D TRANSLATION  ACCESS:          0 HIT:          0 MISS:          0
cpu3_L1D PREFETCH REQUESTED:  102948737 ISSUED:   10107122 USEFUL:     978918 USELESS:     205871
cpu3_L1D AVERAGE MISS LATENCY: 143.9 cycles
cpu3_L1D TOTAL        ACCESS:          0 HIT:          0 MISS:          0
cpu3_L1D LOAD         ACCESS:          0 HIT:          0 MISS:          0
cpu3_L1D RFO          ACCESS:          0 HIT:          0 MISS:          0
cpu3_L1D PREFETCH     ACCESS:          0 HIT:          0 MISS:          0
cpu3_L1D WRITE        ACCESS:          0 HIT:          0 MISS:          0
cpu3_L1D TRANSLATION  ACCESS:          0 HIT:          0 MISS:          0
cpu3_L1D PREFETCH REQUESTED:  102948737 ISSUED:   10107122 USEFUL:     978918 USELESS:     205871
cpu3_L1D AVERAGE MISS LATENCY: 143.9 cycles
cpu3_L1D TOTAL        ACCESS:   21914145 HIT:   21896257 MISS:      17888
cpu3_L1D LOAD         ACCESS:   16328073 HIT:   16326228 MISS:       1845
cpu3_L1D RFO          ACCESS:          0 HIT:          0 MISS:          0
cpu3_L1D PREFETCH     ACCESS:      23576 HIT:      14055 MISS:       9521
cpu3_L1D WRITE        ACCESS:    5562325 HIT:    5555957 MISS:       6368
cpu3_L1D TRANSLATION  ACCESS:        171 HIT:         17 MISS:        154
cpu3_L1D PREFETCH REQUESTED:  102948737 ISSUED:   10107122 USEFUL:     978918 USELESS:     205871
cpu3_L1D AVERAGE MISS LATENCY: 143.9 cycles
cpu3_L1I TOTAL        ACCESS:          0 HIT:          0 MISS:          0
cpu3_L1I LOAD         ACCESS:          0 HIT:          0 MISS:          0
cpu3_L1I RFO          ACCESS:          0 HIT:          0 MISS:          0
cpu3_L1I PREFETCH     ACCESS:          0 HIT:          0 MISS:          0
cpu3_L1I WRITE        ACCESS:          0 HIT:          0 MISS:          0
cpu3_L1I TRANSLATION  ACCESS:          0 HIT:          0 MISS:          0
cpu3_L1I PREFETCH REQUESTED:          0 ISSUED:          0 USEFUL:          0 USELESS:          0
cpu3_L1I AVERAGE MISS LATENCY: 12.41 cycles
cpu3_L1I TOTAL        ACCESS:          0 HIT:          0 MISS:          0
cpu3_L1I LOAD         ACCESS:          0 HIT:          0 MISS:          0
cpu3_L1I RFO          ACCESS:          0 HIT:          0 MISS:          0
cpu3_L1I PREFETCH     ACCESS:          0 HIT:          0 MISS:          0
cpu3_L1I WRITE        ACCESS:          0 HIT:          0 MISS:          0
cpu3_L1I TRANSLATION  ACCESS:          0 HIT:          0 MISS:          0
cpu3_L1I PREFETCH REQUESTED:          0 ISSUED:          0 USEFUL:          0 USELESS:          0
cpu3_L1I AVERAGE MISS LATENCY: 12.41 cycles
cpu3_L1I TOTAL        ACCESS:          0 HIT:          0 MISS:          0
cpu3_L1I LOAD         ACCESS:          0 HIT:          0 MISS:          0
cpu3_L1I RFO          ACCESS:          0 HIT:          0 MISS:          0
cpu3_L1I PREFETCH     ACCESS:          0 HIT:          0 MISS:          0
cpu3_L1I WRITE        ACCESS:          0 HIT:          0 MISS:          0
cpu3_L1I TRANSLATION  ACCESS:          0 HIT:          0 MISS:          0
cpu3_L1I PREFETCH REQUESTED:          0 ISSUED:          0 USEFUL:          0 USELESS:          0
cpu3_L1I AVERAGE MISS LATENCY: 12.41 cycles
cpu3_L1I TOTAL        ACCESS:     551021 HIT:     549595 MISS:       1426
cpu3_L1I LOAD         ACCESS:     551021 HIT:     549595 MISS:       1426
cpu3_L1I RFO          ACCESS:          0 HIT:          0 MISS:          0
cpu3_L1I PREFETCH     ACCESS:          0 HIT:          0 MISS:          0
cpu3_L1I WRITE        ACCESS:          0 HIT:          0 MISS:          0
cpu3_L1I TRANSLATION  ACCESS:          0 HIT:          0 MISS:          0
cpu3_L1I PREFETCH REQUESTED:          0 ISSUED:          0 USEFUL:          0 USELESS:          0
cpu3_L1I AVERAGE MISS LATENCY: 12.41 cycles
cpu3_L2C TOTAL        ACCESS:          0 HIT:          0 MISS:          0
cpu3_L2C LOAD         ACCESS:          0 HIT:          0 MISS:          0
cpu3_L2C RFO          ACCESS:          0 HIT:          0 MISS:          0
cpu3_L2C PREFETCH     ACCESS:          0 HIT:          0 MISS:          0
cpu3_L2C WRITE        ACCESS:          0 HIT:          0 MISS:          0
cpu3_L2C TRANSLATION  ACCESS:          0 HIT:          0 MISS:          0
cpu3_L2C PREFETCH REQUESTED:          0 ISSUED:          0 USEFUL:          0 USELESS:          0
cpu3_L2C AVERAGE MISS LATENCY: 819.8 cycles
cpu3_L2C TOTAL        ACCESS:          0 HIT:          0 MISS:          0
cpu3_L2C LOAD         ACCESS:          0 HIT:          0 MISS:          0
cpu3_L2C RFO          ACCESS:          0 HIT:          0 MISS:          0
cpu3_L2C PREFETCH     ACCESS:          0 HIT:          0 MISS:          0
cpu3_L2C WRITE        ACCESS:          0 HIT:          0 MISS:          0
cpu3_L2C TRANSLATION  ACCESS:          0 HIT:          0 MISS:          0
cpu3_L2C PREFETCH REQUESTED:          0 ISSUED:          0 USEFUL:          0 USELESS:          0
cpu3_L2C AVERAGE MISS LATENCY: 819.8 cycles
cpu3_L2C TOTAL        ACCESS:          0 HIT:          0 MISS:          0
cpu3_L2C LOAD         ACCESS:          0 HIT:          0 MISS:          0
cpu3_L2C RFO          ACCESS:          0 HIT:          0 MISS:          0
cpu3_L2C PREFETCH     ACCESS:          0 HIT:          0 MISS:          0
cpu3_L2C WRITE        ACCESS:          0 HIT:          0 MISS:          0
cpu3_L2C TRANSLATION  ACCESS:          0 HIT:          0 MISS:          0
cpu3_L2C PREFETCH REQUESTED:          0 ISSUED:          0 USEFUL:          0 USELESS:          0
cpu3_L2C AVERAGE MISS LATENCY: 819.8 cycles
cpu3_L2C TOTAL        ACCESS:      17334 HIT:      11445 MISS:       5889
cpu3_L2C LOAD         ACCESS:       2097 HIT:       1299 MISS:        798
cpu3_L2C RFO          ACCESS:       2519 HIT:        106 MISS:       2413
cpu3_L2C PREFETCH     ACCESS:       9483 HIT:       6913 MISS:       2570
cpu3_L2C WRITE        ACCESS:       3081 HIT:       3068 MISS:         13
cpu3_L2C TRANSLATION  ACCESS:        154 HIT:         59 MISS:         95
cpu3_L2C PREFETCH REQUESTED:          0 ISSUED:          0 USEFUL:          0 USELESS:          0
cpu3_L2C AVERAGE MISS LATENCY: 819.8 cycles
cpu3_STLB TOTAL        ACCESS:          0 HIT:          0 MISS:          0
cpu3_STLB LOAD         ACCESS:          0 HIT:          0 MISS:          0
cpu3_STLB RFO          ACCESS:          0 HIT:          0 MISS:          0
cpu3_STLB PREFETCH     ACCESS:          0 HIT:          0 MISS:          0
cpu3_STLB WRITE        ACCESS:          0 HIT:          0 MISS:          0
cpu3_STLB TRANSLATION  ACCESS:          0 HIT:          0 MISS:          0
cpu3_STLB PREFETCH REQUESTED:          0 ISSUED:          0 USEFUL:          0 USELESS:          0
cpu3_STLB AVERAGE MISS LATENCY: 319.6 cycles
cpu3_STLB TOTAL        ACCESS:          0 HIT:          0 MISS:          0
cpu3_STLB LOAD         ACCESS:          0 HIT:          0 MISS:          0
cpu3_STLB RFO          ACCESS:          0 HIT:          0 MISS:          0
cpu3_STLB PREFETCH     ACCESS:          0 HIT:          0 MISS:          0
cpu3_STLB WRITE        ACCESS:          0 HIT:          0 MISS:          0
cpu3_STLB TRANSLATION  ACCESS:          0 HIT:          0 MISS:          0
cpu3_STLB PREFETCH REQUESTED:          0 ISSUED:          0 USEFUL:          0 USELESS:          0
cpu3_STLB AVERAGE MISS LATENCY: 319.6 cycles
cpu3_STLB TOTAL        ACCESS:          0 HIT:          0 MISS:          0
cpu3_STLB LOAD         ACCESS:          0 HIT:          0 MISS:          0
cpu3_STLB RFO          ACCESS:          0 HIT:          0 MISS:          0
cpu3_STLB PREFETCH     ACCESS:          0 HIT:          0 MISS:          0
cpu3_STLB WRITE        ACCESS:          0 HIT:          0 MISS:          0
cpu3_STLB TRANSLATION  ACCESS:          0 HIT:          0 MISS:          0
cpu3_STLB PREFETCH REQUESTED:          0 ISSUED:          0 USEFUL:          0 USELESS:          0
cpu3_STLB AVERAGE MISS LATENCY: 319.6 cycles
cpu3_STLB TOTAL        ACCESS:       9133 HIT:       8963 MISS:        170
cpu3_STLB LOAD         ACCESS:       9133 HIT:       8963 MISS:        170
cpu3_STLB RFO          ACCESS:          0 HIT:          0 MISS:          0
cpu3_STLB PREFETCH     ACCESS:          0 HIT:          0 MISS:          0
cpu3_STLB WRITE        ACCESS:          0 HIT:          0 MISS:          0
cpu3_STLB TRANSLATION  ACCESS:          0 HIT:          0 MISS:          0
cpu3_STLB PREFETCH REQUESTED:          0 ISSUED:          0 USEFUL:          0 USELESS:          0
cpu3_STLB AVERAGE MISS LATENCY: 319.6 cycles

DRAM Statistics

Channel 0 RQ ROW_BUFFER_HIT:     901602
  ROW_BUFFER_MISS:    3618996
 AVG DBUS CONGESTED CYCLE: 3.97
WQ ROW_BUFFER_HIT: Channel 0 
  ROW_BUFFER_MISS:      59064
  FULL:    2118990
BERTI TO_L1: 165585362 TO_L2: 211763664 TO_L2_BC_MSHR: 31767799
BERTI AVG_LAT: 134.703 NUM_TRACK_LATENCY: 40897385 NUM_CANT_TRACK_LATENCY: 136173
BERTI CROSS_PAGE 58999133 NO_CROSS_PAGE: 318349893
BERTI FOUND_BERTI: 150439472 NO_FOUND_BERTI: 212946345
BERTI AVERAGE_ISSUED: 1.87359
BERTI TO_L1: 165585362 TO_L2: 211763664 TO_L2_BC_MSHR: 31767799
BERTI AVG_LAT: 134.703 NUM_TRACK_LATENCY: 40897385 NUM_CANT_TRACK_LATENCY: 136173
BERTI CROSS_PAGE 58999133 NO_CROSS_PAGE: 318349893
BERTI FOUND_BERTI: 150439472 NO_FOUND_BERTI: 212946345
BERTI AVERAGE_ISSUED: 1.87359
BERTI TO_L1: 165585362 TO_L2: 211763664 TO_L2_BC_MSHR: 31767799
BERTI AVG_LAT: 134.703 NUM_TRACK_LATENCY: 40897385 NUM_CANT_TRACK_LATENCY: 136173
BERTI CROSS_PAGE 58999133 NO_CROSS_PAGE: 318349893
BERTI FOUND_BERTI: 150439472 NO_FOUND_BERTI: 212946345
BERTI AVERAGE_ISSUED: 1.87359
BERTI TO_L1: 165585362 TO_L2: 211763664 TO_L2_BC_MSHR: 31767799
BERTI AVG_LAT: 134.703 NUM_TRACK_LATENCY: 40897385 NUM_CANT_TRACK_LATENCY: 136173
BERTI CROSS_PAGE 58999133 NO_CROSS_PAGE: 318349893
BERTI FOUND_BERTI: 150439472 NO_FOUND_BERTI: 212946345
BERTI AVERAGE_ISSUED: 1.87359
