WARNING: physical memory size is smaller than virtual memory size.
WARNING: option --warmup_instructions is deprecated. Use --warmup-instructions instead.
WARNING: option --simulation_instructions is deprecated. Use --simulation-instructions instead.

*** ChampSim Multicore Out-of-Order Simulator ***
Warmup Instructions: 50000000
Simulation Instructions: 150000000
Number of CPUs: 4
Page size: 4096

Berti Prefetcher
BERTI HASH ORIGINAL
BERTI IP MASK ffff
Berti Prefetcher
BERTI HASH ORIGINAL
BERTI IP MASK ffff
Berti Prefetcher
BERTI HASH ORIGINAL
BERTI IP MASK ffff
Berti Prefetcher
BERTI HASH ORIGINAL
BERTI IP MASK ffff
Off-chip DRAM Size: 4 GiB Channels: 1 Width: 64-bit Data Race: 3200 MT/s
Heartbeat CPU 2 instructions: 10000003 cycles: 2500049 heartbeat IPC: 4 cumulative IPC: 4 (Simulation time: 00 hr 02 min 34 sec)
Heartbeat CPU 3 instructions: 10000003 cycles: 3099213 heartbeat IPC: 3.227 cumulative IPC: 3.227 (Simulation time: 00 hr 03 min 13 sec)
Heartbeat CPU 0 instructions: 10000001 cycles: 3455740 heartbeat IPC: 2.894 cumulative IPC: 2.894 (Simulation time: 00 hr 03 min 36 sec)
Heartbeat CPU 1 instructions: 10000004 cycles: 3913336 heartbeat IPC: 2.555 cumulative IPC: 2.555 (Simulation time: 00 hr 04 min 05 sec)
Heartbeat CPU 2 instructions: 20000003 cycles: 5000049 heartbeat IPC: 4 cumulative IPC: 4 (Simulation time: 00 hr 05 min 15 sec)
Heartbeat CPU 3 instructions: 20000001 cycles: 6205377 heartbeat IPC: 3.219 cumulative IPC: 3.223 (Simulation time: 00 hr 06 min 36 sec)
Heartbeat CPU 0 instructions: 20000001 cycles: 6911911 heartbeat IPC: 2.893 cumulative IPC: 2.894 (Simulation time: 00 hr 07 min 22 sec)
Heartbeat CPU 2 instructions: 30000003 cycles: 7500049 heartbeat IPC: 4 cumulative IPC: 4 (Simulation time: 00 hr 08 min 01 sec)
Heartbeat CPU 1 instructions: 20000004 cycles: 7828003 heartbeat IPC: 2.554 cumulative IPC: 2.555 (Simulation time: 00 hr 08 min 22 sec)
Heartbeat CPU 3 instructions: 30000000 cycles: 9303872 heartbeat IPC: 3.227 cumulative IPC: 3.224 (Simulation time: 00 hr 09 min 59 sec)
Heartbeat CPU 2 instructions: 40000003 cycles: 10000049 heartbeat IPC: 4 cumulative IPC: 4 (Simulation time: 00 hr 10 min 43 sec)
Heartbeat CPU 0 instructions: 30000001 cycles: 10362817 heartbeat IPC: 2.898 cumulative IPC: 2.895 (Simulation time: 00 hr 11 min 06 sec)
Heartbeat CPU 1 instructions: 30000001 cycles: 11745088 heartbeat IPC: 2.553 cumulative IPC: 2.554 (Simulation time: 00 hr 12 min 38 sec)
Heartbeat CPU 3 instructions: 40000004 cycles: 12401283 heartbeat IPC: 3.229 cumulative IPC: 3.225 (Simulation time: 00 hr 13 min 20 sec)
Heartbeat CPU 2 instructions: 50000003 cycles: 12500049 heartbeat IPC: 4 cumulative IPC: 4 (Simulation time: 00 hr 13 min 26 sec)
Warmup finished CPU 2 instructions: 50000003 cycles: 12500050 cumulative IPC: 4 (Simulation time: 00 hr 13 min 26 sec)
Heartbeat CPU 0 instructions: 40000004 cycles: 13787257 heartbeat IPC: 2.92 cumulative IPC: 2.901 (Simulation time: 00 hr 14 min 49 sec)
Heartbeat CPU 2 instructions: 60000003 cycles: 15000049 heartbeat IPC: 4 cumulative IPC: 4 (Simulation time: 00 hr 16 min 06 sec)
Heartbeat CPU 3 instructions: 50000001 cycles: 15487356 heartbeat IPC: 3.24 cumulative IPC: 3.228 (Simulation time: 00 hr 16 min 39 sec)
Warmup finished CPU 3 instructions: 50000001 cycles: 15487357 cumulative IPC: 3.228 (Simulation time: 00 hr 16 min 39 sec)
Heartbeat CPU 1 instructions: 40000004 cycles: 15671203 heartbeat IPC: 2.547 cumulative IPC: 2.552 (Simulation time: 00 hr 16 min 51 sec)
Heartbeat CPU 0 instructions: 50000002 cycles: 17212043 heartbeat IPC: 2.92 cumulative IPC: 2.905 (Simulation time: 00 hr 18 min 28 sec)
Warmup finished CPU 0 instructions: 50000002 cycles: 17212044 cumulative IPC: 2.905 (Simulation time: 00 hr 18 min 28 sec)
Heartbeat CPU 2 instructions: 70000003 cycles: 17500049 heartbeat IPC: 4 cumulative IPC: 4 (Simulation time: 00 hr 18 min 47 sec)
Heartbeat CPU 3 instructions: 60000002 cycles: 18585125 heartbeat IPC: 3.228 cumulative IPC: 3.228 (Simulation time: 00 hr 19 min 57 sec)
Heartbeat CPU 1 instructions: 50000002 cycles: 19579600 heartbeat IPC: 2.559 cumulative IPC: 2.554 (Simulation time: 00 hr 21 min 00 sec)
Warmup finished CPU 1 instructions: 50000002 cycles: 19579601 cumulative IPC: 2.554 (Simulation time: 00 hr 21 min 00 sec)
Warmup complete CPU 0 instructions: 56899642 cycles: 19579601 cumulative IPC: 2.906 (Simulation time: 00 hr 21 min 00 sec)
Warmup complete CPU 1 instructions: 50000002 cycles: 19579601 cumulative IPC: 2.554 (Simulation time: 00 hr 21 min 00 sec)
Warmup complete CPU 2 instructions: 78318207 cycles: 19579601 cumulative IPC: 4 (Simulation time: 00 hr 21 min 00 sec)
Warmup complete CPU 3 instructions: 63208391 cycles: 19579601 cumulative IPC: 3.228 (Simulation time: 00 hr 21 min 00 sec)
Heartbeat CPU 0 instructions: 60000001 cycles: 20786614 heartbeat IPC: 2.798 cumulative IPC: 2.569 (Simulation time: 00 hr 21 min 42 sec)
Heartbeat CPU 2 instructions: 80000002 cycles: 21450687 heartbeat IPC: 2.531 cumulative IPC: 0.8988 (Simulation time: 00 hr 22 min 05 sec)
Heartbeat CPU 0 instructions: 70000000 cycles: 24617400 heartbeat IPC: 2.61 cumulative IPC: 2.6 (Simulation time: 00 hr 23 min 56 sec)
Heartbeat CPU 0 instructions: 80000003 cycles: 29249306 heartbeat IPC: 2.159 cumulative IPC: 2.389 (Simulation time: 00 hr 26 min 24 sec)
Heartbeat CPU 2 instructions: 90000004 cycles: 32508279 heartbeat IPC: 0.9044 cumulative IPC: 0.9036 (Simulation time: 00 hr 28 min 05 sec)
Heartbeat CPU 0 instructions: 90000001 cycles: 34115159 heartbeat IPC: 2.055 cumulative IPC: 2.277 (Simulation time: 00 hr 28 min 55 sec)
Heartbeat CPU 0 instructions: 100000000 cycles: 39460352 heartbeat IPC: 1.871 cumulative IPC: 2.168 (Simulation time: 00 hr 31 min 33 sec)
Heartbeat CPU 2 instructions: 100000002 cycles: 44343022 heartbeat IPC: 0.845 cumulative IPC: 0.8756 (Simulation time: 00 hr 34 min 00 sec)
Heartbeat CPU 0 instructions: 110000004 cycles: 44637774 heartbeat IPC: 1.931 cumulative IPC: 2.119 (Simulation time: 00 hr 34 min 11 sec)
Heartbeat CPU 0 instructions: 120000000 cycles: 49438493 heartbeat IPC: 2.083 cumulative IPC: 2.113 (Simulation time: 00 hr 36 min 37 sec)
Heartbeat CPU 3 instructions: 70000000 cycles: 52999037 heartbeat IPC: 0.2906 cumulative IPC: 0.2032 (Simulation time: 00 hr 38 min 28 sec)
Heartbeat CPU 0 instructions: 130000003 cycles: 54252532 heartbeat IPC: 2.077 cumulative IPC: 2.108 (Simulation time: 00 hr 39 min 06 sec)
Heartbeat CPU 2 instructions: 110000002 cycles: 56202361 heartbeat IPC: 0.8432 cumulative IPC: 0.8651 (Simulation time: 00 hr 40 min 06 sec)
Heartbeat CPU 0 instructions: 140000000 cycles: 59149412 heartbeat IPC: 2.042 cumulative IPC: 2.1 (Simulation time: 00 hr 41 min 38 sec)
Heartbeat CPU 0 instructions: 150000003 cycles: 64075351 heartbeat IPC: 2.03 cumulative IPC: 2.092 (Simulation time: 00 hr 44 min 09 sec)
Heartbeat CPU 2 instructions: 120000004 cycles: 67983420 heartbeat IPC: 0.8488 cumulative IPC: 0.8611 (Simulation time: 00 hr 46 min 08 sec)
Heartbeat CPU 0 instructions: 160000000 cycles: 68994527 heartbeat IPC: 2.033 cumulative IPC: 2.086 (Simulation time: 00 hr 46 min 39 sec)
Heartbeat CPU 0 instructions: 170000003 cycles: 73934689 heartbeat IPC: 2.024 cumulative IPC: 2.081 (Simulation time: 00 hr 49 min 09 sec)
Heartbeat CPU 0 instructions: 180000002 cycles: 78867866 heartbeat IPC: 2.027 cumulative IPC: 2.076 (Simulation time: 00 hr 51 min 42 sec)
Heartbeat CPU 1 instructions: 60000000 cycles: 79115929 heartbeat IPC: 0.168 cumulative IPC: 0.168 (Simulation time: 00 hr 51 min 50 sec)
Heartbeat CPU 2 instructions: 130000002 cycles: 79660354 heartbeat IPC: 0.8564 cumulative IPC: 0.8602 (Simulation time: 00 hr 52 min 07 sec)
Heartbeat CPU 0 instructions: 190000000 cycles: 83794017 heartbeat IPC: 2.03 cumulative IPC: 2.073 (Simulation time: 00 hr 54 min 14 sec)
Heartbeat CPU 0 instructions: 200000004 cycles: 88696510 heartbeat IPC: 2.04 cumulative IPC: 2.07 (Simulation time: 00 hr 56 min 45 sec)
Heartbeat CPU 2 instructions: 140000004 cycles: 91423881 heartbeat IPC: 0.8501 cumulative IPC: 0.8585 (Simulation time: 00 hr 58 min 05 sec)
Simulation finished CPU 0 instructions: 150000002 cycles: 72491291 cumulative IPC: 2.069 (Simulation time: 00 hr 58 min 24 sec)
Heartbeat CPU 0 instructions: 210000003 cycles: 93573031 heartbeat IPC: 2.051 cumulative IPC: 2.069 (Simulation time: 00 hr 59 min 11 sec)
Heartbeat CPU 0 instructions: 220000004 cycles: 98421704 heartbeat IPC: 2.062 cumulative IPC: 2.069 (Simulation time: 01 hr 01 min 38 sec)
Heartbeat CPU 2 instructions: 150000004 cycles: 103138335 heartbeat IPC: 0.8536 cumulative IPC: 0.8579 (Simulation time: 01 hr 04 min 00 sec)
Heartbeat CPU 0 instructions: 230000002 cycles: 103200870 heartbeat IPC: 2.092 cumulative IPC: 2.07 (Simulation time: 01 hr 04 min 02 sec)
Heartbeat CPU 3 instructions: 80000000 cycles: 105952854 heartbeat IPC: 0.1888 cumulative IPC: 0.1944 (Simulation time: 01 hr 05 min 26 sec)
Heartbeat CPU 0 instructions: 240000002 cycles: 108061899 heartbeat IPC: 2.057 cumulative IPC: 2.069 (Simulation time: 01 hr 06 min 46 sec)
Heartbeat CPU 0 instructions: 250000004 cycles: 112774932 heartbeat IPC: 2.122 cumulative IPC: 2.072 (Simulation time: 01 hr 09 min 30 sec)
Heartbeat CPU 2 instructions: 160000004 cycles: 114809439 heartbeat IPC: 0.8568 cumulative IPC: 0.8577 (Simulation time: 01 hr 10 min 42 sec)
Heartbeat CPU 0 instructions: 260000001 cycles: 117545559 heartbeat IPC: 2.096 cumulative IPC: 2.073 (Simulation time: 01 hr 12 min 15 sec)
Heartbeat CPU 0 instructions: 270000001 cycles: 122383978 heartbeat IPC: 2.067 cumulative IPC: 2.073 (Simulation time: 01 hr 15 min 02 sec)
Heartbeat CPU 2 instructions: 170000004 cycles: 126695970 heartbeat IPC: 0.8413 cumulative IPC: 0.8559 (Simulation time: 01 hr 17 min 47 sec)
Heartbeat CPU 0 instructions: 280000001 cycles: 127133399 heartbeat IPC: 2.106 cumulative IPC: 2.074 (Simulation time: 01 hr 18 min 09 sec)
Heartbeat CPU 0 instructions: 290000004 cycles: 131832665 heartbeat IPC: 2.128 cumulative IPC: 2.077 (Simulation time: 01 hr 21 min 32 sec)
Heartbeat CPU 0 instructions: 300000004 cycles: 135677880 heartbeat IPC: 2.601 cumulative IPC: 2.094 (Simulation time: 01 hr 24 min 59 sec)
Heartbeat CPU 2 instructions: 180000000 cycles: 138781252 heartbeat IPC: 0.8275 cumulative IPC: 0.853 (Simulation time: 01 hr 27 min 34 sec)
Heartbeat CPU 1 instructions: 70000002 cycles: 139449194 heartbeat IPC: 0.1657 cumulative IPC: 0.1668 (Simulation time: 01 hr 28 min 06 sec)
Heartbeat CPU 0 instructions: 310000000 cycles: 139726031 heartbeat IPC: 2.47 cumulative IPC: 2.107 (Simulation time: 01 hr 28 min 19 sec)
Heartbeat CPU 0 instructions: 320000004 cycles: 144720986 heartbeat IPC: 2.002 cumulative IPC: 2.102 (Simulation time: 01 hr 31 min 49 sec)
Heartbeat CPU 0 instructions: 330000000 cycles: 150349334 heartbeat IPC: 1.777 cumulative IPC: 2.088 (Simulation time: 01 hr 35 min 03 sec)
Heartbeat CPU 2 instructions: 190000001 cycles: 151041832 heartbeat IPC: 0.8156 cumulative IPC: 0.8495 (Simulation time: 01 hr 35 min 27 sec)
Heartbeat CPU 0 instructions: 340000002 cycles: 155297589 heartbeat IPC: 2.021 cumulative IPC: 2.086 (Simulation time: 01 hr 37 min 43 sec)
Heartbeat CPU 3 instructions: 90000004 cycles: 158172379 heartbeat IPC: 0.1915 cumulative IPC: 0.1933 (Simulation time: 01 hr 39 min 18 sec)
Heartbeat CPU 0 instructions: 350000002 cycles: 159357287 heartbeat IPC: 2.463 cumulative IPC: 2.097 (Simulation time: 01 hr 40 min 01 sec)
Heartbeat CPU 2 instructions: 200000000 cycles: 162834445 heartbeat IPC: 0.848 cumulative IPC: 0.8494 (Simulation time: 01 hr 42 min 04 sec)
Heartbeat CPU 0 instructions: 360000002 cycles: 163111249 heartbeat IPC: 2.664 cumulative IPC: 2.112 (Simulation time: 01 hr 42 min 13 sec)
Heartbeat CPU 0 instructions: 370000000 cycles: 166954533 heartbeat IPC: 2.602 cumulative IPC: 2.125 (Simulation time: 01 hr 44 min 35 sec)
Heartbeat CPU 0 instructions: 380000004 cycles: 170715519 heartbeat IPC: 2.659 cumulative IPC: 2.138 (Simulation time: 01 hr 47 min 20 sec)
Heartbeat CPU 0 instructions: 390000000 cycles: 174550114 heartbeat IPC: 2.608 cumulative IPC: 2.149 (Simulation time: 01 hr 50 min 06 sec)
Heartbeat CPU 2 instructions: 210000002 cycles: 174663713 heartbeat IPC: 0.8454 cumulative IPC: 0.8491 (Simulation time: 01 hr 50 min 13 sec)
Heartbeat CPU 0 instructions: 400000004 cycles: 178324444 heartbeat IPC: 2.649 cumulative IPC: 2.161 (Simulation time: 01 hr 52 min 32 sec)
Heartbeat CPU 0 instructions: 410000002 cycles: 182112560 heartbeat IPC: 2.64 cumulative IPC: 2.172 (Simulation time: 01 hr 55 min 29 sec)
Heartbeat CPU 0 instructions: 420000004 cycles: 185953493 heartbeat IPC: 2.604 cumulative IPC: 2.182 (Simulation time: 01 hr 58 min 21 sec)
Heartbeat CPU 2 instructions: 220000000 cycles: 186275803 heartbeat IPC: 0.8612 cumulative IPC: 0.8499 (Simulation time: 01 hr 58 min 34 sec)
Heartbeat CPU 0 instructions: 430000000 cycles: 189758035 heartbeat IPC: 2.628 cumulative IPC: 2.192 (Simulation time: 02 hr 00 min 56 sec)
Heartbeat CPU 0 instructions: 440000001 cycles: 193565598 heartbeat IPC: 2.626 cumulative IPC: 2.202 (Simulation time: 02 hr 03 min 44 sec)
Simulation finished CPU 2 instructions: 150000000 cycles: 176558161 cumulative IPC: 0.8496 (Simulation time: 02 hr 05 min 27 sec)
Heartbeat CPU 0 instructions: 450000003 cycles: 197387432 heartbeat IPC: 2.617 cumulative IPC: 2.211 (Simulation time: 02 hr 06 min 14 sec)
Heartbeat CPU 2 instructions: 230000001 cycles: 198069731 heartbeat IPC: 0.8479 cumulative IPC: 0.8498 (Simulation time: 02 hr 06 min 38 sec)
Heartbeat CPU 3 instructions: 100000000 cycles: 198913757 heartbeat IPC: 0.2455 cumulative IPC: 0.2052 (Simulation time: 02 hr 07 min 08 sec)
Heartbeat CPU 0 instructions: 460000003 cycles: 201251987 heartbeat IPC: 2.588 cumulative IPC: 2.219 (Simulation time: 02 hr 08 min 28 sec)
Heartbeat CPU 1 instructions: 80000002 cycles: 201744625 heartbeat IPC: 0.1605 cumulative IPC: 0.1647 (Simulation time: 02 hr 08 min 47 sec)
Heartbeat CPU 0 instructions: 470000002 cycles: 205020717 heartbeat IPC: 2.653 cumulative IPC: 2.228 (Simulation time: 02 hr 10 min 42 sec)
Heartbeat CPU 0 instructions: 480000001 cycles: 208782605 heartbeat IPC: 2.658 cumulative IPC: 2.236 (Simulation time: 02 hr 12 min 51 sec)
Heartbeat CPU 2 instructions: 240000000 cycles: 209810592 heartbeat IPC: 0.8517 cumulative IPC: 0.8499 (Simulation time: 02 hr 13 min 23 sec)
Heartbeat CPU 0 instructions: 490000002 cycles: 212561457 heartbeat IPC: 2.646 cumulative IPC: 2.244 (Simulation time: 02 hr 14 min 57 sec)
Heartbeat CPU 0 instructions: 500000002 cycles: 216348449 heartbeat IPC: 2.641 cumulative IPC: 2.252 (Simulation time: 02 hr 17 min 07 sec)
Heartbeat CPU 0 instructions: 510000004 cycles: 220195463 heartbeat IPC: 2.599 cumulative IPC: 2.259 (Simulation time: 02 hr 19 min 17 sec)
Heartbeat CPU 2 instructions: 250000002 cycles: 221698161 heartbeat IPC: 0.8412 cumulative IPC: 0.8494 (Simulation time: 02 hr 20 min 08 sec)
Heartbeat CPU 0 instructions: 520000004 cycles: 224037116 heartbeat IPC: 2.603 cumulative IPC: 2.265 (Simulation time: 02 hr 21 min 27 sec)
Heartbeat CPU 0 instructions: 530000002 cycles: 227849919 heartbeat IPC: 2.623 cumulative IPC: 2.272 (Simulation time: 02 hr 23 min 36 sec)
Heartbeat CPU 0 instructions: 540000002 cycles: 231700609 heartbeat IPC: 2.597 cumulative IPC: 2.277 (Simulation time: 02 hr 25 min 48 sec)
Heartbeat CPU 2 instructions: 260000003 cycles: 233460340 heartbeat IPC: 0.8502 cumulative IPC: 0.8495 (Simulation time: 02 hr 26 min 49 sec)
Heartbeat CPU 0 instructions: 550000001 cycles: 235567146 heartbeat IPC: 2.586 cumulative IPC: 2.283 (Simulation time: 02 hr 28 min 00 sec)
Heartbeat CPU 0 instructions: 560000002 cycles: 239494761 heartbeat IPC: 2.546 cumulative IPC: 2.288 (Simulation time: 02 hr 30 min 15 sec)
Heartbeat CPU 3 instructions: 110000000 cycles: 240249374 heartbeat IPC: 0.2419 cumulative IPC: 0.212 (Simulation time: 02 hr 30 min 40 sec)
Heartbeat CPU 0 instructions: 570000001 cycles: 243276036 heartbeat IPC: 2.645 cumulative IPC: 2.294 (Simulation time: 02 hr 32 min 22 sec)
Heartbeat CPU 2 instructions: 270000003 cycles: 243908244 heartbeat IPC: 0.9571 cumulative IPC: 0.8545 (Simulation time: 02 hr 32 min 45 sec)
Heartbeat CPU 0 instructions: 580000004 cycles: 247030703 heartbeat IPC: 2.663 cumulative IPC: 2.3 (Simulation time: 02 hr 34 min 29 sec)
Heartbeat CPU 0 instructions: 590000000 cycles: 250890188 heartbeat IPC: 2.591 cumulative IPC: 2.305 (Simulation time: 02 hr 36 min 39 sec)
Heartbeat CPU 2 instructions: 280000000 cycles: 253653763 heartbeat IPC: 1.026 cumulative IPC: 0.8616 (Simulation time: 02 hr 38 min 10 sec)
Heartbeat CPU 0 instructions: 600000002 cycles: 254712702 heartbeat IPC: 2.616 cumulative IPC: 2.31 (Simulation time: 02 hr 38 min 44 sec)
Heartbeat CPU 0 instructions: 610000000 cycles: 258565456 heartbeat IPC: 2.596 cumulative IPC: 2.314 (Simulation time: 02 hr 41 min 06 sec)
Heartbeat CPU 1 instructions: 90000001 cycles: 259088406 heartbeat IPC: 0.1744 cumulative IPC: 0.167 (Simulation time: 02 hr 41 min 23 sec)
Heartbeat CPU 0 instructions: 620000002 cycles: 262360515 heartbeat IPC: 2.635 cumulative IPC: 2.319 (Simulation time: 02 hr 43 min 17 sec)
Heartbeat CPU 2 instructions: 290000002 cycles: 265352575 heartbeat IPC: 0.8548 cumulative IPC: 0.8613 (Simulation time: 02 hr 44 min 59 sec)
Heartbeat CPU 0 instructions: 630000004 cycles: 266179118 heartbeat IPC: 2.619 cumulative IPC: 2.324 (Simulation time: 02 hr 45 min 29 sec)
Heartbeat CPU 0 instructions: 640000004 cycles: 269998429 heartbeat IPC: 2.618 cumulative IPC: 2.329 (Simulation time: 02 hr 47 min 38 sec)
Heartbeat CPU 0 instructions: 650000002 cycles: 273864170 heartbeat IPC: 2.587 cumulative IPC: 2.332 (Simulation time: 02 hr 49 min 49 sec)
Heartbeat CPU 2 instructions: 300000001 cycles: 277020378 heartbeat IPC: 0.8571 cumulative IPC: 0.8611 (Simulation time: 02 hr 51 min 43 sec)
Heartbeat CPU 0 instructions: 660000000 cycles: 277638847 heartbeat IPC: 2.649 cumulative IPC: 2.337 (Simulation time: 02 hr 52 min 05 sec)
Heartbeat CPU 3 instructions: 120000003 cycles: 279396401 heartbeat IPC: 0.2554 cumulative IPC: 0.2186 (Simulation time: 02 hr 53 min 04 sec)
Heartbeat CPU 0 instructions: 670000003 cycles: 281545932 heartbeat IPC: 2.559 cumulative IPC: 2.34 (Simulation time: 02 hr 54 min 18 sec)
Heartbeat CPU 0 instructions: 680000004 cycles: 285361287 heartbeat IPC: 2.621 cumulative IPC: 2.344 (Simulation time: 02 hr 56 min 30 sec)
Heartbeat CPU 2 instructions: 310000002 cycles: 288759589 heartbeat IPC: 0.8518 cumulative IPC: 0.8607 (Simulation time: 02 hr 58 min 27 sec)
Heartbeat CPU 0 instructions: 690000002 cycles: 289143200 heartbeat IPC: 2.644 cumulative IPC: 2.349 (Simulation time: 02 hr 58 min 40 sec)
Heartbeat CPU 0 instructions: 700000004 cycles: 293036058 heartbeat IPC: 2.569 cumulative IPC: 2.352 (Simulation time: 03 hr 00 min 55 sec)
Heartbeat CPU 0 instructions: 710000001 cycles: 297485390 heartbeat IPC: 2.248 cumulative IPC: 2.35 (Simulation time: 03 hr 03 min 20 sec)
Heartbeat CPU 2 instructions: 320000000 cycles: 300885947 heartbeat IPC: 0.8246 cumulative IPC: 0.8591 (Simulation time: 03 hr 05 min 18 sec)
Heartbeat CPU 0 instructions: 720000002 cycles: 301371966 heartbeat IPC: 2.573 cumulative IPC: 2.353 (Simulation time: 03 hr 05 min 35 sec)
Heartbeat CPU 0 instructions: 730000000 cycles: 305140286 heartbeat IPC: 2.654 cumulative IPC: 2.357 (Simulation time: 03 hr 07 min 49 sec)
Heartbeat CPU 0 instructions: 740000001 cycles: 308940200 heartbeat IPC: 2.632 cumulative IPC: 2.361 (Simulation time: 03 hr 10 min 00 sec)
Heartbeat CPU 2 instructions: 330000003 cycles: 312327106 heartbeat IPC: 0.874 cumulative IPC: 0.8597 (Simulation time: 03 hr 11 min 58 sec)
Heartbeat CPU 0 instructions: 750000000 cycles: 312724522 heartbeat IPC: 2.642 cumulative IPC: 2.364 (Simulation time: 03 hr 12 min 14 sec)
Heartbeat CPU 0 instructions: 760000002 cycles: 316502961 heartbeat IPC: 2.647 cumulative IPC: 2.368 (Simulation time: 03 hr 14 min 28 sec)
Heartbeat CPU 3 instructions: 130000000 cycles: 319979730 heartbeat IPC: 0.2464 cumulative IPC: 0.2223 (Simulation time: 03 hr 16 min 28 sec)
Heartbeat CPU 0 instructions: 770000000 cycles: 320315816 heartbeat IPC: 2.623 cumulative IPC: 2.371 (Simulation time: 03 hr 16 min 38 sec)
Heartbeat CPU 1 instructions: 100000000 cycles: 321613245 heartbeat IPC: 0.1599 cumulative IPC: 0.1655 (Simulation time: 03 hr 17 min 25 sec)
Heartbeat CPU 2 instructions: 340000002 cycles: 324017683 heartbeat IPC: 0.8554 cumulative IPC: 0.8596 (Simulation time: 03 hr 19 min 14 sec)
Heartbeat CPU 0 instructions: 780000002 cycles: 324063281 heartbeat IPC: 2.668 cumulative IPC: 2.375 (Simulation time: 03 hr 19 min 16 sec)
Heartbeat CPU 0 instructions: 790000000 cycles: 327924615 heartbeat IPC: 2.59 cumulative IPC: 2.378 (Simulation time: 03 hr 22 min 02 sec)
Heartbeat CPU 0 instructions: 800000000 cycles: 331819519 heartbeat IPC: 2.567 cumulative IPC: 2.38 (Simulation time: 03 hr 24 min 13 sec)
Heartbeat CPU 0 instructions: 810000003 cycles: 335631519 heartbeat IPC: 2.623 cumulative IPC: 2.383 (Simulation time: 03 hr 27 min 18 sec)
Heartbeat CPU 2 instructions: 350000000 cycles: 335837229 heartbeat IPC: 0.8461 cumulative IPC: 0.8591 (Simulation time: 03 hr 27 min 28 sec)
Heartbeat CPU 0 instructions: 820000003 cycles: 339433491 heartbeat IPC: 2.63 cumulative IPC: 2.386 (Simulation time: 03 hr 30 min 08 sec)
Heartbeat CPU 0 instructions: 830000001 cycles: 343303579 heartbeat IPC: 2.584 cumulative IPC: 2.388 (Simulation time: 03 hr 33 min 00 sec)
Heartbeat CPU 0 instructions: 840000002 cycles: 347131048 heartbeat IPC: 2.613 cumulative IPC: 2.391 (Simulation time: 03 hr 35 min 54 sec)
Heartbeat CPU 2 instructions: 360000000 cycles: 347756237 heartbeat IPC: 0.839 cumulative IPC: 0.8583 (Simulation time: 03 hr 36 min 20 sec)
Heartbeat CPU 0 instructions: 850000002 cycles: 350896617 heartbeat IPC: 2.656 cumulative IPC: 2.394 (Simulation time: 03 hr 38 min 36 sec)
Heartbeat CPU 0 instructions: 860000004 cycles: 354703039 heartbeat IPC: 2.627 cumulative IPC: 2.396 (Simulation time: 03 hr 41 min 08 sec)
Heartbeat CPU 0 instructions: 870000002 cycles: 358522142 heartbeat IPC: 2.618 cumulative IPC: 2.399 (Simulation time: 03 hr 43 min 52 sec)
Heartbeat CPU 2 instructions: 370000000 cycles: 359459721 heartbeat IPC: 0.8544 cumulative IPC: 0.8582 (Simulation time: 03 hr 44 min 28 sec)
Heartbeat CPU 0 instructions: 880000003 cycles: 362348587 heartbeat IPC: 2.613 cumulative IPC: 2.401 (Simulation time: 03 hr 46 min 05 sec)
Heartbeat CPU 3 instructions: 140000002 cycles: 362523872 heartbeat IPC: 0.2351 cumulative IPC: 0.2239 (Simulation time: 03 hr 46 min 13 sec)
Heartbeat CPU 0 instructions: 890000003 cycles: 366116312 heartbeat IPC: 2.654 cumulative IPC: 2.404 (Simulation time: 03 hr 48 min 54 sec)
Heartbeat CPU 0 instructions: 900000001 cycles: 369971931 heartbeat IPC: 2.594 cumulative IPC: 2.406 (Simulation time: 03 hr 51 min 56 sec)
Heartbeat CPU 2 instructions: 380000003 cycles: 371578557 heartbeat IPC: 0.8252 cumulative IPC: 0.8571 (Simulation time: 03 hr 53 min 11 sec)
Heartbeat CPU 0 instructions: 910000000 cycles: 373913960 heartbeat IPC: 2.537 cumulative IPC: 2.408 (Simulation time: 03 hr 55 min 05 sec)
Heartbeat CPU 0 instructions: 920000004 cycles: 378111403 heartbeat IPC: 2.382 cumulative IPC: 2.407 (Simulation time: 03 hr 58 min 16 sec)
Heartbeat CPU 0 instructions: 930000002 cycles: 382406571 heartbeat IPC: 2.328 cumulative IPC: 2.406 (Simulation time: 04 hr 01 min 22 sec)
Heartbeat CPU 1 instructions: 110000004 cycles: 382926052 heartbeat IPC: 0.1631 cumulative IPC: 0.1651 (Simulation time: 04 hr 01 min 40 sec)
Heartbeat CPU 2 instructions: 390000002 cycles: 383739600 heartbeat IPC: 0.8223 cumulative IPC: 0.8559 (Simulation time: 04 hr 02 min 11 sec)
Heartbeat CPU 0 instructions: 940000000 cycles: 386348108 heartbeat IPC: 2.537 cumulative IPC: 2.408 (Simulation time: 04 hr 03 min 38 sec)
Heartbeat CPU 0 instructions: 950000000 cycles: 390139215 heartbeat IPC: 2.638 cumulative IPC: 2.41 (Simulation time: 04 hr 05 min 57 sec)
Heartbeat CPU 0 instructions: 960000000 cycles: 394003535 heartbeat IPC: 2.588 cumulative IPC: 2.412 (Simulation time: 04 hr 08 min 51 sec)
Heartbeat CPU 2 instructions: 400000001 cycles: 395083632 heartbeat IPC: 0.8815 cumulative IPC: 0.8567 (Simulation time: 04 hr 09 min 35 sec)
Heartbeat CPU 0 instructions: 970000002 cycles: 397850751 heartbeat IPC: 2.599 cumulative IPC: 2.414 (Simulation time: 04 hr 11 min 09 sec)
Heartbeat CPU 0 instructions: 980000001 cycles: 401682351 heartbeat IPC: 2.61 cumulative IPC: 2.416 (Simulation time: 04 hr 13 min 27 sec)
Heartbeat CPU 3 instructions: 150000000 cycles: 403691662 heartbeat IPC: 0.2429 cumulative IPC: 0.226 (Simulation time: 04 hr 14 min 46 sec)
Heartbeat CPU 0 instructions: 990000003 cycles: 405509650 heartbeat IPC: 2.613 cumulative IPC: 2.418 (Simulation time: 04 hr 15 min 50 sec)
Heartbeat CPU 2 instructions: 410000001 cycles: 406664405 heartbeat IPC: 0.8635 cumulative IPC: 0.8569 (Simulation time: 04 hr 16 min 33 sec)
Heartbeat CPU 0 instructions: 1000000004 cycles: 409301769 heartbeat IPC: 2.637 cumulative IPC: 2.42 (Simulation time: 04 hr 18 min 04 sec)
Heartbeat CPU 0 instructions: 1010000001 cycles: 413113954 heartbeat IPC: 2.623 cumulative IPC: 2.422 (Simulation time: 04 hr 20 min 48 sec)
Heartbeat CPU 0 instructions: 1020000003 cycles: 416920965 heartbeat IPC: 2.627 cumulative IPC: 2.424 (Simulation time: 04 hr 23 min 18 sec)
Heartbeat CPU 2 instructions: 420000000 cycles: 418127214 heartbeat IPC: 0.8724 cumulative IPC: 0.8573 (Simulation time: 04 hr 24 min 07 sec)
Heartbeat CPU 0 instructions: 1030000001 cycles: 420750384 heartbeat IPC: 2.611 cumulative IPC: 2.426 (Simulation time: 04 hr 25 min 48 sec)
Heartbeat CPU 0 instructions: 1040000001 cycles: 424577487 heartbeat IPC: 2.613 cumulative IPC: 2.427 (Simulation time: 04 hr 28 min 14 sec)
Heartbeat CPU 0 instructions: 1050000001 cycles: 428507925 heartbeat IPC: 2.544 cumulative IPC: 2.429 (Simulation time: 04 hr 30 min 32 sec)
Heartbeat CPU 2 instructions: 430000000 cycles: 430032418 heartbeat IPC: 0.84 cumulative IPC: 0.8568 (Simulation time: 04 hr 31 min 28 sec)
Heartbeat CPU 0 instructions: 1060000001 cycles: 432389200 heartbeat IPC: 2.576 cumulative IPC: 2.43 (Simulation time: 04 hr 32 min 52 sec)
Heartbeat CPU 0 instructions: 1070000001 cycles: 436222675 heartbeat IPC: 2.609 cumulative IPC: 2.432 (Simulation time: 04 hr 35 min 07 sec)
Heartbeat CPU 0 instructions: 1080000000 cycles: 440095564 heartbeat IPC: 2.582 cumulative IPC: 2.433 (Simulation time: 04 hr 37 min 20 sec)
Heartbeat CPU 2 instructions: 440000000 cycles: 441541438 heartbeat IPC: 0.8689 cumulative IPC: 0.8571 (Simulation time: 04 hr 38 min 11 sec)
Heartbeat CPU 1 instructions: 120000004 cycles: 443604136 heartbeat IPC: 0.1648 cumulative IPC: 0.1651 (Simulation time: 04 hr 39 min 21 sec)
Heartbeat CPU 3 instructions: 160000002 cycles: 443842248 heartbeat IPC: 0.2491 cumulative IPC: 0.2281 (Simulation time: 04 hr 39 min 31 sec)
Heartbeat CPU 0 instructions: 1090000004 cycles: 444017711 heartbeat IPC: 2.55 cumulative IPC: 2.434 (Simulation time: 04 hr 39 min 37 sec)
Heartbeat CPU 0 instructions: 1100000003 cycles: 447928399 heartbeat IPC: 2.557 cumulative IPC: 2.435 (Simulation time: 04 hr 41 min 52 sec)
Heartbeat CPU 0 instructions: 1110000003 cycles: 451894466 heartbeat IPC: 2.521 cumulative IPC: 2.436 (Simulation time: 04 hr 44 min 10 sec)
Heartbeat CPU 2 instructions: 450000000 cycles: 453234436 heartbeat IPC: 0.8552 cumulative IPC: 0.8571 (Simulation time: 04 hr 44 min 57 sec)
Heartbeat CPU 0 instructions: 1120000002 cycles: 455950272 heartbeat IPC: 2.466 cumulative IPC: 2.436 (Simulation time: 04 hr 46 min 30 sec)
Heartbeat CPU 0 instructions: 1130000002 cycles: 459836820 heartbeat IPC: 2.573 cumulative IPC: 2.437 (Simulation time: 04 hr 48 min 43 sec)
Heartbeat CPU 0 instructions: 1140000000 cycles: 463711745 heartbeat IPC: 2.581 cumulative IPC: 2.439 (Simulation time: 04 hr 51 min 11 sec)
Heartbeat CPU 2 instructions: 460000001 cycles: 465165280 heartbeat IPC: 0.8382 cumulative IPC: 0.8566 (Simulation time: 04 hr 52 min 10 sec)
Heartbeat CPU 0 instructions: 1150000000 cycles: 467591474 heartbeat IPC: 2.577 cumulative IPC: 2.44 (Simulation time: 04 hr 53 min 50 sec)
Heartbeat CPU 0 instructions: 1160000000 cycles: 471468089 heartbeat IPC: 2.58 cumulative IPC: 2.441 (Simulation time: 04 hr 56 min 03 sec)
Heartbeat CPU 0 instructions: 1170000000 cycles: 475757038 heartbeat IPC: 2.332 cumulative IPC: 2.44 (Simulation time: 04 hr 58 min 32 sec)
Heartbeat CPU 2 instructions: 470000000 cycles: 477373110 heartbeat IPC: 0.8191 cumulative IPC: 0.8556 (Simulation time: 04 hr 59 min 21 sec)
Heartbeat CPU 0 instructions: 1180000003 cycles: 480375117 heartbeat IPC: 2.165 cumulative IPC: 2.437 (Simulation time: 05 hr 01 min 09 sec)
Heartbeat CPU 0 instructions: 1190000001 cycles: 484191853 heartbeat IPC: 2.62 cumulative IPC: 2.439 (Simulation time: 05 hr 03 min 31 sec)
Heartbeat CPU 3 instructions: 170000000 cycles: 485949254 heartbeat IPC: 0.2375 cumulative IPC: 0.229 (Simulation time: 05 hr 04 min 33 sec)
Heartbeat CPU 0 instructions: 1200000001 cycles: 488017377 heartbeat IPC: 2.614 cumulative IPC: 2.44 (Simulation time: 05 hr 05 min 47 sec)
Heartbeat CPU 2 instructions: 480000003 cycles: 488610658 heartbeat IPC: 0.8899 cumulative IPC: 0.8564 (Simulation time: 05 hr 06 min 08 sec)
Heartbeat CPU 0 instructions: 1210000000 cycles: 491766138 heartbeat IPC: 2.668 cumulative IPC: 2.442 (Simulation time: 05 hr 08 min 05 sec)
Heartbeat CPU 0 instructions: 1220000002 cycles: 495578031 heartbeat IPC: 2.623 cumulative IPC: 2.443 (Simulation time: 05 hr 10 min 22 sec)
Heartbeat CPU 0 instructions: 1230000002 cycles: 499346446 heartbeat IPC: 2.654 cumulative IPC: 2.445 (Simulation time: 05 hr 12 min 29 sec)
Heartbeat CPU 2 instructions: 490000004 cycles: 500185119 heartbeat IPC: 0.864 cumulative IPC: 0.8566 (Simulation time: 05 hr 13 min 00 sec)
Heartbeat CPU 0 instructions: 1240000003 cycles: 503134079 heartbeat IPC: 2.64 cumulative IPC: 2.447 (Simulation time: 05 hr 14 min 45 sec)
Heartbeat CPU 1 instructions: 130000003 cycles: 505030947 heartbeat IPC: 0.1628 cumulative IPC: 0.1648 (Simulation time: 05 hr 15 min 50 sec)
Heartbeat CPU 0 instructions: 1250000001 cycles: 506913640 heartbeat IPC: 2.646 cumulative IPC: 2.448 (Simulation time: 05 hr 16 min 58 sec)
Heartbeat CPU 0 instructions: 1260000000 cycles: 510759787 heartbeat IPC: 2.6 cumulative IPC: 2.449 (Simulation time: 05 hr 19 min 13 sec)
Heartbeat CPU 2 instructions: 500000001 cycles: 511764792 heartbeat IPC: 0.8636 cumulative IPC: 0.8568 (Simulation time: 05 hr 19 min 47 sec)
Heartbeat CPU 0 instructions: 1270000003 cycles: 514684671 heartbeat IPC: 2.548 cumulative IPC: 2.45 (Simulation time: 05 hr 21 min 27 sec)
Heartbeat CPU 0 instructions: 1280000004 cycles: 518534981 heartbeat IPC: 2.597 cumulative IPC: 2.451 (Simulation time: 05 hr 23 min 36 sec)
Heartbeat CPU 0 instructions: 1290000004 cycles: 522345040 heartbeat IPC: 2.625 cumulative IPC: 2.453 (Simulation time: 05 hr 25 min 46 sec)
Heartbeat CPU 2 instructions: 510000004 cycles: 523422310 heartbeat IPC: 0.8578 cumulative IPC: 0.8568 (Simulation time: 05 hr 26 min 24 sec)
Heartbeat CPU 0 instructions: 1300000001 cycles: 526075795 heartbeat IPC: 2.68 cumulative IPC: 2.454 (Simulation time: 05 hr 27 min 57 sec)
Heartbeat CPU 3 instructions: 180000004 cycles: 526194605 heartbeat IPC: 0.2485 cumulative IPC: 0.2305 (Simulation time: 05 hr 28 min 01 sec)
Heartbeat CPU 0 instructions: 1310000001 cycles: 529824169 heartbeat IPC: 2.668 cumulative IPC: 2.456 (Simulation time: 05 hr 30 min 03 sec)
Heartbeat CPU 0 instructions: 1320000001 cycles: 533618388 heartbeat IPC: 2.636 cumulative IPC: 2.457 (Simulation time: 05 hr 32 min 12 sec)
Heartbeat CPU 2 instructions: 520000002 cycles: 535154851 heartbeat IPC: 0.8523 cumulative IPC: 0.8567 (Simulation time: 05 hr 33 min 08 sec)
Heartbeat CPU 0 instructions: 1330000000 cycles: 537390079 heartbeat IPC: 2.651 cumulative IPC: 2.459 (Simulation time: 05 hr 34 min 23 sec)
Heartbeat CPU 0 instructions: 1340000003 cycles: 541172943 heartbeat IPC: 2.644 cumulative IPC: 2.46 (Simulation time: 05 hr 36 min 33 sec)
Heartbeat CPU 0 instructions: 1350000004 cycles: 544920850 heartbeat IPC: 2.668 cumulative IPC: 2.461 (Simulation time: 05 hr 38 min 40 sec)
Heartbeat CPU 2 instructions: 530000000 cycles: 546724205 heartbeat IPC: 0.8644 cumulative IPC: 0.8568 (Simulation time: 05 hr 39 min 40 sec)
Heartbeat CPU 0 instructions: 1360000000 cycles: 548716890 heartbeat IPC: 2.634 cumulative IPC: 2.463 (Simulation time: 05 hr 40 min 48 sec)
Heartbeat CPU 0 instructions: 1370000002 cycles: 552543620 heartbeat IPC: 2.613 cumulative IPC: 2.464 (Simulation time: 05 hr 42 min 55 sec)
Heartbeat CPU 0 instructions: 1380000000 cycles: 556381417 heartbeat IPC: 2.606 cumulative IPC: 2.465 (Simulation time: 05 hr 45 min 07 sec)
Heartbeat CPU 2 instructions: 540000003 cycles: 558570004 heartbeat IPC: 0.8442 cumulative IPC: 0.8566 (Simulation time: 05 hr 46 min 19 sec)
Heartbeat CPU 0 instructions: 1390000000 cycles: 560275451 heartbeat IPC: 2.568 cumulative IPC: 2.466 (Simulation time: 05 hr 47 min 15 sec)
Heartbeat CPU 0 instructions: 1400000003 cycles: 564196895 heartbeat IPC: 2.55 cumulative IPC: 2.466 (Simulation time: 05 hr 49 min 30 sec)
Heartbeat CPU 1 instructions: 140000001 cycles: 564381622 heartbeat IPC: 0.1685 cumulative IPC: 0.1652 (Simulation time: 05 hr 49 min 39 sec)
Heartbeat CPU 3 instructions: 190000003 cycles: 567222256 heartbeat IPC: 0.2437 cumulative IPC: 0.2315 (Simulation time: 05 hr 51 min 17 sec)
Heartbeat CPU 0 instructions: 1410000004 cycles: 568006476 heartbeat IPC: 2.625 cumulative IPC: 2.467 (Simulation time: 05 hr 51 min 43 sec)
Heartbeat CPU 2 instructions: 550000004 cycles: 569879915 heartbeat IPC: 0.8842 cumulative IPC: 0.8571 (Simulation time: 05 hr 52 min 47 sec)
Heartbeat CPU 0 instructions: 1420000001 cycles: 571786832 heartbeat IPC: 2.645 cumulative IPC: 2.468 (Simulation time: 05 hr 53 min 53 sec)
Heartbeat CPU 0 instructions: 1430000003 cycles: 575631927 heartbeat IPC: 2.601 cumulative IPC: 2.469 (Simulation time: 05 hr 56 min 06 sec)
Heartbeat CPU 0 instructions: 1440000002 cycles: 579541397 heartbeat IPC: 2.558 cumulative IPC: 2.47 (Simulation time: 05 hr 58 min 18 sec)
Heartbeat CPU 2 instructions: 560000004 cycles: 581442346 heartbeat IPC: 0.8649 cumulative IPC: 0.8573 (Simulation time: 05 hr 59 min 28 sec)
Heartbeat CPU 0 instructions: 1450000001 cycles: 583434295 heartbeat IPC: 2.569 cumulative IPC: 2.471 (Simulation time: 06 hr 00 min 33 sec)
Heartbeat CPU 0 instructions: 1460000000 cycles: 587253396 heartbeat IPC: 2.618 cumulative IPC: 2.472 (Simulation time: 06 hr 02 min 45 sec)
Heartbeat CPU 0 instructions: 1470000003 cycles: 591088420 heartbeat IPC: 2.608 cumulative IPC: 2.473 (Simulation time: 06 hr 05 min 05 sec)
Heartbeat CPU 2 instructions: 570000000 cycles: 593244621 heartbeat IPC: 0.8473 cumulative IPC: 0.8571 (Simulation time: 06 hr 06 min 24 sec)
Heartbeat CPU 0 instructions: 1480000004 cycles: 595012863 heartbeat IPC: 2.548 cumulative IPC: 2.473 (Simulation time: 06 hr 07 min 26 sec)
Heartbeat CPU 0 instructions: 1490000001 cycles: 598910053 heartbeat IPC: 2.566 cumulative IPC: 2.474 (Simulation time: 06 hr 09 min 49 sec)
Heartbeat CPU 0 instructions: 1500000001 cycles: 602808074 heartbeat IPC: 2.565 cumulative IPC: 2.474 (Simulation time: 06 hr 12 min 09 sec)
Heartbeat CPU 2 instructions: 580000002 cycles: 605045304 heartbeat IPC: 0.8474 cumulative IPC: 0.8569 (Simulation time: 06 hr 13 min 29 sec)
Heartbeat CPU 0 instructions: 1510000002 cycles: 606631451 heartbeat IPC: 2.615 cumulative IPC: 2.475 (Simulation time: 06 hr 14 min 26 sec)
Heartbeat CPU 3 instructions: 200000000 cycles: 608948313 heartbeat IPC: 0.2397 cumulative IPC: 0.2321 (Simulation time: 06 hr 15 min 45 sec)
Heartbeat CPU 0 instructions: 1520000002 cycles: 610483569 heartbeat IPC: 2.596 cumulative IPC: 2.476 (Simulation time: 06 hr 16 min 38 sec)
Heartbeat CPU 0 instructions: 1530000001 cycles: 614415484 heartbeat IPC: 2.543 cumulative IPC: 2.476 (Simulation time: 06 hr 19 min 32 sec)
Heartbeat CPU 2 instructions: 590000004 cycles: 616683245 heartbeat IPC: 0.8593 cumulative IPC: 0.8569 (Simulation time: 06 hr 21 min 18 sec)
Heartbeat CPU 0 instructions: 1540000003 cycles: 618239220 heartbeat IPC: 2.615 cumulative IPC: 2.477 (Simulation time: 06 hr 22 min 25 sec)
Heartbeat CPU 0 instructions: 1550000004 cycles: 622105811 heartbeat IPC: 2.586 cumulative IPC: 2.478 (Simulation time: 06 hr 25 min 14 sec)
Heartbeat CPU 1 instructions: 150000003 cycles: 625218217 heartbeat IPC: 0.1644 cumulative IPC: 0.1651 (Simulation time: 06 hr 27 min 09 sec)
Heartbeat CPU 0 instructions: 1560000001 cycles: 626020114 heartbeat IPC: 2.555 cumulative IPC: 2.479 (Simulation time: 06 hr 27 min 39 sec)
Heartbeat CPU 2 instructions: 600000003 cycles: 628462279 heartbeat IPC: 0.849 cumulative IPC: 0.8568 (Simulation time: 06 hr 29 min 19 sec)
Heartbeat CPU 0 instructions: 1570000004 cycles: 630208262 heartbeat IPC: 2.388 cumulative IPC: 2.478 (Simulation time: 06 hr 30 min 32 sec)
Heartbeat CPU 0 instructions: 1580000001 cycles: 634947963 heartbeat IPC: 2.11 cumulative IPC: 2.475 (Simulation time: 06 hr 33 min 42 sec)
Heartbeat CPU 0 instructions: 1590000003 cycles: 638785621 heartbeat IPC: 2.606 cumulative IPC: 2.476 (Simulation time: 06 hr 36 min 14 sec)
Heartbeat CPU 2 instructions: 610000000 cycles: 640399073 heartbeat IPC: 0.8377 cumulative IPC: 0.8564 (Simulation time: 06 hr 37 min 33 sec)
Heartbeat CPU 0 instructions: 1600000003 cycles: 642550683 heartbeat IPC: 2.656 cumulative IPC: 2.477 (Simulation time: 06 hr 39 min 14 sec)
Heartbeat CPU 0 instructions: 1610000000 cycles: 646435274 heartbeat IPC: 2.574 cumulative IPC: 2.478 (Simulation time: 06 hr 42 min 09 sec)
Heartbeat CPU 0 instructions: 1620000000 cycles: 650289004 heartbeat IPC: 2.595 cumulative IPC: 2.478 (Simulation time: 06 hr 45 min 01 sec)
Heartbeat CPU 3 instructions: 210000000 cycles: 650377858 heartbeat IPC: 0.2414 cumulative IPC: 0.2327 (Simulation time: 06 hr 45 min 06 sec)
Heartbeat CPU 2 instructions: 620000001 cycles: 651991695 heartbeat IPC: 0.8626 cumulative IPC: 0.8565 (Simulation time: 06 hr 46 min 26 sec)
Heartbeat CPU 0 instructions: 1630000001 cycles: 654215763 heartbeat IPC: 2.547 cumulative IPC: 2.479 (Simulation time: 06 hr 48 min 08 sec)
Heartbeat CPU 0 instructions: 1640000002 cycles: 658092850 heartbeat IPC: 2.579 cumulative IPC: 2.479 (Simulation time: 06 hr 51 min 06 sec)
Simulation finished CPU 3 instructions: 150000000 cycles: 642448610 cumulative IPC: 0.2335 (Simulation time: 06 hr 54 min 04 sec)
Heartbeat CPU 0 instructions: 1650000000 cycles: 662427149 heartbeat IPC: 2.307 cumulative IPC: 2.478 (Simulation time: 06 hr 54 min 17 sec)
Heartbeat CPU 2 instructions: 630000003 cycles: 664285152 heartbeat IPC: 0.8134 cumulative IPC: 0.8557 (Simulation time: 06 hr 55 min 18 sec)
Heartbeat CPU 0 instructions: 1660000003 cycles: 666538225 heartbeat IPC: 2.432 cumulative IPC: 2.478 (Simulation time: 06 hr 56 min 43 sec)
Heartbeat CPU 0 instructions: 1670000000 cycles: 670398965 heartbeat IPC: 2.59 cumulative IPC: 2.479 (Simulation time: 06 hr 58 min 59 sec)
Heartbeat CPU 0 instructions: 1680000003 cycles: 674204585 heartbeat IPC: 2.628 cumulative IPC: 2.479 (Simulation time: 07 hr 01 min 27 sec)
Heartbeat CPU 2 instructions: 640000002 cycles: 675664906 heartbeat IPC: 0.8788 cumulative IPC: 0.8561 (Simulation time: 07 hr 02 min 26 sec)
Heartbeat CPU 0 instructions: 1690000002 cycles: 677923633 heartbeat IPC: 2.689 cumulative IPC: 2.481 (Simulation time: 07 hr 04 min 02 sec)
Heartbeat CPU 0 instructions: 1700000004 cycles: 681669799 heartbeat IPC: 2.669 cumulative IPC: 2.482 (Simulation time: 07 hr 07 min 14 sec)
Heartbeat CPU 0 instructions: 1710000002 cycles: 685450643 heartbeat IPC: 2.645 cumulative IPC: 2.483 (Simulation time: 07 hr 10 min 07 sec)
Heartbeat CPU 1 instructions: 160000002 cycles: 685797969 heartbeat IPC: 0.1651 cumulative IPC: 0.1651 (Simulation time: 07 hr 10 min 23 sec)
Heartbeat CPU 2 instructions: 650000001 cycles: 687480311 heartbeat IPC: 0.8464 cumulative IPC: 0.8559 (Simulation time: 07 hr 11 min 43 sec)
Heartbeat CPU 0 instructions: 1720000002 cycles: 689291941 heartbeat IPC: 2.603 cumulative IPC: 2.483 (Simulation time: 07 hr 13 min 02 sec)
Heartbeat CPU 3 instructions: 220000004 cycles: 690082738 heartbeat IPC: 0.2519 cumulative IPC: 0.2338 (Simulation time: 07 hr 13 min 40 sec)
Heartbeat CPU 0 instructions: 1730000000 cycles: 693082650 heartbeat IPC: 2.638 cumulative IPC: 2.484 (Simulation time: 07 hr 15 min 59 sec)
Heartbeat CPU 0 instructions: 1740000001 cycles: 696868391 heartbeat IPC: 2.641 cumulative IPC: 2.485 (Simulation time: 07 hr 18 min 44 sec)
Heartbeat CPU 2 instructions: 660000001 cycles: 699090283 heartbeat IPC: 0.8613 cumulative IPC: 0.856 (Simulation time: 07 hr 20 min 26 sec)
Heartbeat CPU 0 instructions: 1750000004 cycles: 700769941 heartbeat IPC: 2.563 cumulative IPC: 2.486 (Simulation time: 07 hr 21 min 40 sec)
Heartbeat CPU 0 instructions: 1760000004 cycles: 704688639 heartbeat IPC: 2.552 cumulative IPC: 2.486 (Simulation time: 07 hr 24 min 12 sec)
Heartbeat CPU 0 instructions: 1770000000 cycles: 708560603 heartbeat IPC: 2.583 cumulative IPC: 2.486 (Simulation time: 07 hr 26 min 23 sec)
Heartbeat CPU 2 instructions: 670000001 cycles: 710998045 heartbeat IPC: 0.8398 cumulative IPC: 0.8558 (Simulation time: 07 hr 27 min 49 sec)
Heartbeat CPU 0 instructions: 1780000000 cycles: 712321706 heartbeat IPC: 2.659 cumulative IPC: 2.487 (Simulation time: 07 hr 28 min 36 sec)
Heartbeat CPU 0 instructions: 1790000001 cycles: 716248612 heartbeat IPC: 2.547 cumulative IPC: 2.488 (Simulation time: 07 hr 30 min 43 sec)
Heartbeat CPU 0 instructions: 1800000004 cycles: 720163677 heartbeat IPC: 2.554 cumulative IPC: 2.488 (Simulation time: 07 hr 32 min 59 sec)
Heartbeat CPU 2 instructions: 680000000 cycles: 723191119 heartbeat IPC: 0.8201 cumulative IPC: 0.8551 (Simulation time: 07 hr 34 min 57 sec)
Heartbeat CPU 0 instructions: 1810000000 cycles: 724343604 heartbeat IPC: 2.392 cumulative IPC: 2.487 (Simulation time: 07 hr 35 min 45 sec)
Heartbeat CPU 0 instructions: 1820000000 cycles: 728612163 heartbeat IPC: 2.343 cumulative IPC: 2.487 (Simulation time: 07 hr 38 min 31 sec)
Heartbeat CPU 3 instructions: 230000000 cycles: 732254498 heartbeat IPC: 0.2371 cumulative IPC: 0.234 (Simulation time: 07 hr 40 min 33 sec)
Heartbeat CPU 0 instructions: 1830000001 cycles: 732398226 heartbeat IPC: 2.641 cumulative IPC: 2.487 (Simulation time: 07 hr 40 min 38 sec)
Heartbeat CPU 2 instructions: 690000000 cycles: 734903009 heartbeat IPC: 0.8538 cumulative IPC: 0.8551 (Simulation time: 07 hr 42 min 02 sec)
Heartbeat CPU 0 instructions: 1840000000 cycles: 736188665 heartbeat IPC: 2.638 cumulative IPC: 2.488 (Simulation time: 07 hr 42 min 48 sec)
Heartbeat CPU 0 instructions: 1850000001 cycles: 740030817 heartbeat IPC: 2.603 cumulative IPC: 2.489 (Simulation time: 07 hr 44 min 55 sec)
Heartbeat CPU 0 instructions: 1860000003 cycles: 743884350 heartbeat IPC: 2.595 cumulative IPC: 2.489 (Simulation time: 07 hr 47 min 21 sec)
Heartbeat CPU 1 instructions: 170000001 cycles: 744899033 heartbeat IPC: 0.1692 cumulative IPC: 0.1654 (Simulation time: 07 hr 48 min 05 sec)
Heartbeat CPU 2 instructions: 700000001 cycles: 746592924 heartbeat IPC: 0.8554 cumulative IPC: 0.8551 (Simulation time: 07 hr 49 min 22 sec)
Heartbeat CPU 0 instructions: 1870000000 cycles: 747663662 heartbeat IPC: 2.646 cumulative IPC: 2.49 (Simulation time: 07 hr 50 min 13 sec)
Heartbeat CPU 0 instructions: 1880000001 cycles: 751456512 heartbeat IPC: 2.637 cumulative IPC: 2.491 (Simulation time: 07 hr 53 min 11 sec)
Heartbeat CPU 0 instructions: 1890000003 cycles: 755258224 heartbeat IPC: 2.63 cumulative IPC: 2.492 (Simulation time: 07 hr 55 min 43 sec)
Heartbeat CPU 2 instructions: 710000004 cycles: 758129256 heartbeat IPC: 0.8668 cumulative IPC: 0.8553 (Simulation time: 07 hr 57 min 30 sec)
Heartbeat CPU 0 instructions: 1900000000 cycles: 759065221 heartbeat IPC: 2.627 cumulative IPC: 2.492 (Simulation time: 07 hr 58 min 12 sec)
Heartbeat CPU 0 instructions: 1910000002 cycles: 762963788 heartbeat IPC: 2.565 cumulative IPC: 2.493 (Simulation time: 08 hr 00 min 49 sec)
Heartbeat CPU 0 instructions: 1920000002 cycles: 766823724 heartbeat IPC: 2.591 cumulative IPC: 2.493 (Simulation time: 08 hr 03 min 44 sec)
Heartbeat CPU 3 instructions: 240000002 cycles: 769235069 heartbeat IPC: 0.2704 cumulative IPC: 0.2358 (Simulation time: 08 hr 05 min 31 sec)
Heartbeat CPU 2 instructions: 720000002 cycles: 769868011 heartbeat IPC: 0.8519 cumulative IPC: 0.8552 (Simulation time: 08 hr 05 min 59 sec)
Heartbeat CPU 0 instructions: 1930000002 cycles: 770749222 heartbeat IPC: 2.547 cumulative IPC: 2.494 (Simulation time: 08 hr 06 min 36 sec)
Heartbeat CPU 0 instructions: 1940000003 cycles: 774716167 heartbeat IPC: 2.521 cumulative IPC: 2.494 (Simulation time: 08 hr 09 min 33 sec)
Heartbeat CPU 0 instructions: 1950000004 cycles: 778950140 heartbeat IPC: 2.362 cumulative IPC: 2.493 (Simulation time: 08 hr 12 min 37 sec)
Heartbeat CPU 2 instructions: 730000001 cycles: 782092755 heartbeat IPC: 0.818 cumulative IPC: 0.8546 (Simulation time: 08 hr 14 min 51 sec)
Heartbeat CPU 0 instructions: 1960000003 cycles: 783182447 heartbeat IPC: 2.363 cumulative IPC: 2.492 (Simulation time: 08 hr 15 min 41 sec)
Heartbeat CPU 0 instructions: 1970000001 cycles: 787292011 heartbeat IPC: 2.433 cumulative IPC: 2.492 (Simulation time: 08 hr 18 min 40 sec)
Heartbeat CPU 0 instructions: 1980000002 cycles: 791126633 heartbeat IPC: 2.608 cumulative IPC: 2.493 (Simulation time: 08 hr 21 min 30 sec)
Heartbeat CPU 2 instructions: 740000004 cycles: 793679261 heartbeat IPC: 0.8631 cumulative IPC: 0.8548 (Simulation time: 08 hr 23 min 22 sec)
Heartbeat CPU 0 instructions: 1990000000 cycles: 795023387 heartbeat IPC: 2.566 cumulative IPC: 2.493 (Simulation time: 08 hr 24 min 24 sec)
*** Reached end of trace: (0, "/home/das/dpc3_traces/644.nab_s-5853B.champsimtrace.xz")
Heartbeat CPU 0 instructions: 2000000000 cycles: 798862476 heartbeat IPC: 2.605 cumulative IPC: 2.493 (Simulation time: 08 hr 27 min 15 sec)
Heartbeat CPU 0 instructions: 2010000001 cycles: 803157128 heartbeat IPC: 2.328 cumulative IPC: 2.493 (Simulation time: 08 hr 30 min 23 sec)
Heartbeat CPU 1 instructions: 180000001 cycles: 804821757 heartbeat IPC: 0.1669 cumulative IPC: 0.1656 (Simulation time: 08 hr 31 min 34 sec)
Heartbeat CPU 2 instructions: 750000003 cycles: 805400800 heartbeat IPC: 0.8531 cumulative IPC: 0.8548 (Simulation time: 08 hr 32 min 02 sec)
Heartbeat CPU 0 instructions: 2020000001 cycles: 806986083 heartbeat IPC: 2.612 cumulative IPC: 2.493 (Simulation time: 08 hr 33 min 14 sec)
Heartbeat CPU 3 instructions: 250000000 cycles: 808220516 heartbeat IPC: 0.2565 cumulative IPC: 0.2369 (Simulation time: 08 hr 34 min 09 sec)
Heartbeat CPU 0 instructions: 2030000002 cycles: 810824444 heartbeat IPC: 2.605 cumulative IPC: 2.494 (Simulation time: 08 hr 36 min 02 sec)
Heartbeat CPU 0 instructions: 2040000002 cycles: 814655693 heartbeat IPC: 2.61 cumulative IPC: 2.494 (Simulation time: 08 hr 38 min 52 sec)
Heartbeat CPU 2 instructions: 760000002 cycles: 816744398 heartbeat IPC: 0.8816 cumulative IPC: 0.8551 (Simulation time: 08 hr 40 min 23 sec)
Heartbeat CPU 0 instructions: 2050000003 cycles: 818532190 heartbeat IPC: 2.58 cumulative IPC: 2.495 (Simulation time: 08 hr 41 min 36 sec)
Heartbeat CPU 0 instructions: 2060000000 cycles: 822405790 heartbeat IPC: 2.582 cumulative IPC: 2.495 (Simulation time: 08 hr 44 min 25 sec)
Heartbeat CPU 0 instructions: 2070000003 cycles: 826346725 heartbeat IPC: 2.537 cumulative IPC: 2.495 (Simulation time: 08 hr 47 min 08 sec)
Heartbeat CPU 2 instructions: 770000002 cycles: 828358481 heartbeat IPC: 0.861 cumulative IPC: 0.8552 (Simulation time: 08 hr 48 min 35 sec)
Heartbeat CPU 0 instructions: 2080000002 cycles: 830195935 heartbeat IPC: 2.598 cumulative IPC: 2.496 (Simulation time: 08 hr 49 min 50 sec)
Heartbeat CPU 0 instructions: 2090000003 cycles: 834058169 heartbeat IPC: 2.589 cumulative IPC: 2.496 (Simulation time: 08 hr 52 min 34 sec)
Heartbeat CPU 0 instructions: 2100000002 cycles: 837990153 heartbeat IPC: 2.543 cumulative IPC: 2.496 (Simulation time: 08 hr 55 min 14 sec)
Heartbeat CPU 2 instructions: 780000001 cycles: 840053207 heartbeat IPC: 0.8551 cumulative IPC: 0.8552 (Simulation time: 08 hr 56 min 41 sec)
Heartbeat CPU 0 instructions: 2110000000 cycles: 841866140 heartbeat IPC: 2.58 cumulative IPC: 2.497 (Simulation time: 08 hr 57 min 59 sec)
Heartbeat CPU 0 instructions: 2120000002 cycles: 845708503 heartbeat IPC: 2.603 cumulative IPC: 2.497 (Simulation time: 09 hr 00 min 38 sec)
Heartbeat CPU 3 instructions: 260000003 cycles: 847072246 heartbeat IPC: 0.2574 cumulative IPC: 0.2378 (Simulation time: 09 hr 01 min 33 sec)
Heartbeat CPU 0 instructions: 2130000002 cycles: 849555673 heartbeat IPC: 2.599 cumulative IPC: 2.498 (Simulation time: 09 hr 03 min 17 sec)
Heartbeat CPU 2 instructions: 790000000 cycles: 851608817 heartbeat IPC: 0.8654 cumulative IPC: 0.8554 (Simulation time: 09 hr 04 min 46 sec)
Heartbeat CPU 0 instructions: 2140000000 cycles: 853348923 heartbeat IPC: 2.636 cumulative IPC: 2.498 (Simulation time: 09 hr 06 min 02 sec)
Heartbeat CPU 0 instructions: 2150000002 cycles: 857171310 heartbeat IPC: 2.616 cumulative IPC: 2.499 (Simulation time: 09 hr 08 min 42 sec)
Heartbeat CPU 0 instructions: 2160000004 cycles: 861041240 heartbeat IPC: 2.584 cumulative IPC: 2.499 (Simulation time: 09 hr 11 min 25 sec)
Heartbeat CPU 2 instructions: 800000003 cycles: 863239767 heartbeat IPC: 0.8598 cumulative IPC: 0.8554 (Simulation time: 09 hr 12 min 57 sec)
Heartbeat CPU 0 instructions: 2170000002 cycles: 864929607 heartbeat IPC: 2.572 cumulative IPC: 2.5 (Simulation time: 09 hr 14 min 08 sec)
Heartbeat CPU 1 instructions: 190000003 cycles: 865511332 heartbeat IPC: 0.1648 cumulative IPC: 0.1655 (Simulation time: 09 hr 14 min 32 sec)
Heartbeat CPU 0 instructions: 2180000003 cycles: 868774873 heartbeat IPC: 2.601 cumulative IPC: 2.5 (Simulation time: 09 hr 16 min 56 sec)
Heartbeat CPU 0 instructions: 2190000000 cycles: 872669946 heartbeat IPC: 2.567 cumulative IPC: 2.5 (Simulation time: 09 hr 19 min 17 sec)
Heartbeat CPU 2 instructions: 810000004 cycles: 874812290 heartbeat IPC: 0.8641 cumulative IPC: 0.8555 (Simulation time: 09 hr 20 min 28 sec)
Heartbeat CPU 0 instructions: 2200000003 cycles: 876498446 heartbeat IPC: 2.612 cumulative IPC: 2.501 (Simulation time: 09 hr 21 min 43 sec)
Heartbeat CPU 0 instructions: 2210000001 cycles: 880371906 heartbeat IPC: 2.582 cumulative IPC: 2.501 (Simulation time: 09 hr 24 min 26 sec)
Heartbeat CPU 0 instructions: 2220000004 cycles: 884263905 heartbeat IPC: 2.569 cumulative IPC: 2.502 (Simulation time: 09 hr 27 min 15 sec)
Heartbeat CPU 3 instructions: 270000000 cycles: 886214359 heartbeat IPC: 0.2555 cumulative IPC: 0.2386 (Simulation time: 09 hr 28 min 38 sec)
Heartbeat CPU 2 instructions: 820000001 cycles: 886372045 heartbeat IPC: 0.8651 cumulative IPC: 0.8557 (Simulation time: 09 hr 28 min 45 sec)
Heartbeat CPU 0 instructions: 2230000001 cycles: 888084744 heartbeat IPC: 2.617 cumulative IPC: 2.502 (Simulation time: 09 hr 29 min 58 sec)
Heartbeat CPU 0 instructions: 2240000000 cycles: 891970994 heartbeat IPC: 2.573 cumulative IPC: 2.502 (Simulation time: 09 hr 32 min 47 sec)
Heartbeat CPU 0 instructions: 2250000002 cycles: 895805547 heartbeat IPC: 2.608 cumulative IPC: 2.503 (Simulation time: 09 hr 35 min 32 sec)
Heartbeat CPU 2 instructions: 830000000 cycles: 898064406 heartbeat IPC: 0.8553 cumulative IPC: 0.8557 (Simulation time: 09 hr 37 min 02 sec)
Heartbeat CPU 0 instructions: 2260000002 cycles: 899653277 heartbeat IPC: 2.599 cumulative IPC: 2.503 (Simulation time: 09 hr 37 min 50 sec)
Heartbeat CPU 0 instructions: 2270000000 cycles: 903400016 heartbeat IPC: 2.669 cumulative IPC: 2.504 (Simulation time: 09 hr 40 min 03 sec)
Heartbeat CPU 0 instructions: 2280000000 cycles: 907218564 heartbeat IPC: 2.619 cumulative IPC: 2.505 (Simulation time: 09 hr 42 min 10 sec)
Heartbeat CPU 2 instructions: 840000003 cycles: 909487046 heartbeat IPC: 0.8755 cumulative IPC: 0.8559 (Simulation time: 09 hr 43 min 27 sec)
Heartbeat CPU 0 instructions: 2290000004 cycles: 911068811 heartbeat IPC: 2.597 cumulative IPC: 2.505 (Simulation time: 09 hr 44 min 16 sec)
Heartbeat CPU 0 instructions: 2300000003 cycles: 914953517 heartbeat IPC: 2.574 cumulative IPC: 2.505 (Simulation time: 09 hr 46 min 28 sec)
Heartbeat CPU 0 instructions: 2310000004 cycles: 919003862 heartbeat IPC: 2.469 cumulative IPC: 2.505 (Simulation time: 09 hr 48 min 40 sec)
Heartbeat CPU 2 instructions: 850000004 cycles: 921302458 heartbeat IPC: 0.8464 cumulative IPC: 0.8558 (Simulation time: 09 hr 49 min 55 sec)
Heartbeat CPU 0 instructions: 2320000004 cycles: 923001807 heartbeat IPC: 2.501 cumulative IPC: 2.505 (Simulation time: 09 hr 50 min 50 sec)
Heartbeat CPU 3 instructions: 280000000 cycles: 924911124 heartbeat IPC: 0.2584 cumulative IPC: 0.2395 (Simulation time: 09 hr 51 min 48 sec)
Heartbeat CPU 1 instructions: 200000001 cycles: 925749954 heartbeat IPC: 0.166 cumulative IPC: 0.1655 (Simulation time: 09 hr 52 min 19 sec)
Simulation finished CPU 1 instructions: 150000004 cycles: 906170355 cumulative IPC: 0.1655 (Simulation time: 09 hr 52 min 19 sec)
Simulation complete CPU 0 instructions: 2269689909 cycles: 906170355 cumulative IPC: 2.505 (Simulation time: 09 hr 52 min 19 sec)
Simulation complete CPU 1 instructions: 150000004 cycles: 906170355 cumulative IPC: 0.1655 (Simulation time: 09 hr 52 min 19 sec)
Simulation complete CPU 2 instructions: 775600887 cycles: 906170355 cumulative IPC: 0.8559 (Simulation time: 09 hr 52 min 19 sec)
Simulation complete CPU 3 instructions: 217357900 cycles: 906170355 cumulative IPC: 0.2399 (Simulation time: 09 hr 52 min 19 sec)

ChampSim completed all CPUs

=== Simulation ===
CPU 0 runs /home/das/dpc3_traces/644.nab_s-5853B.champsimtrace.xzCPU 1 runs /home/das/dpc3_traces/620.omnetpp_s-874B.champsimtrace.xzCPU 2 runs /home/das/dpc3_traces/649.fotonik3d_s-1176B.champsimtrace.xzCPU 3 runs /home/das/dpc3_traces/605.mcf_s-665B.champsimtrace.xz
Total Simulation Statistics (not including warmup)

CPU 0 cumulative IPC: 2.505 instructions: 2269689909 cycles: 906170355
CPU 0 Branch Prediction Accuracy: 88.21% MPKI: 11.42 Average ROB Occupancy at Mispredict: 209.9
Branch type MPKI
BRANCH_DIRECT_JUMP: 0.000115
BRANCH_INDIRECT: 4.41e-07
BRANCH_CONDITIONAL: 5.89
BRANCH_DIRECT_CALL: 4.41e-07
BRANCH_INDIRECT_CALL: 0
BRANCH_RETURN: 5.53


CPU 1 cumulative IPC: 0.1655 instructions: 150000004 cycles: 906170355
CPU 1 Branch Prediction Accuracy: 94.9% MPKI: 10.6 Average ROB Occupancy at Mispredict: 84.07
Branch type MPKI
BRANCH_DIRECT_JUMP: 0.923
BRANCH_INDIRECT: 0.128
BRANCH_CONDITIONAL: 8.42
BRANCH_DIRECT_CALL: 0.00016
BRANCH_INDIRECT_CALL: 0.734
BRANCH_RETURN: 0.399


CPU 2 cumulative IPC: 0.8559 instructions: 775600887 cycles: 906170355
CPU 2 Branch Prediction Accuracy: 99.75% MPKI: 0.04545 Average ROB Occupancy at Mispredict: 91.32
Branch type MPKI
BRANCH_DIRECT_JUMP: 0.000115
BRANCH_INDIRECT: 0
BRANCH_CONDITIONAL: 0.035
BRANCH_DIRECT_CALL: 2.06e-05
BRANCH_INDIRECT_CALL: 0
BRANCH_RETURN: 0.0103


CPU 3 cumulative IPC: 0.2399 instructions: 217357900 cycles: 906170355
CPU 3 Branch Prediction Accuracy: 90.43% MPKI: 23.67 Average ROB Occupancy at Mispredict: 18.64
Branch type MPKI
BRANCH_DIRECT_JUMP: 0.251
BRANCH_INDIRECT: 0
BRANCH_CONDITIONAL: 23.4
BRANCH_DIRECT_CALL: 0
BRANCH_INDIRECT_CALL: 0.00052
BRANCH_RETURN: 0

LLC TOTAL        ACCESS:     618132 HIT:      70134 MISS:     547998
LLC LOAD         ACCESS:      80266 HIT:      14464 MISS:      65802
LLC RFO          ACCESS:       1300 HIT:        563 MISS:        737
LLC PREFETCH     ACCESS:     510971 HIT:      52407 MISS:     458564
LLC WRITE        ACCESS:      17278 HIT:       1713 MISS:      15565
LLC TRANSLATION  ACCESS:       8317 HIT:        987 MISS:       7330
LLC PREFETCH REQUESTED:          0 ISSUED:          0 USEFUL:          0 USELESS:          0
LLC AVERAGE MISS LATENCY: 1188 cycles
LLC TOTAL        ACCESS:    3523601 HIT:    1430964 MISS:    2092637
LLC LOAD         ACCESS:    1685986 HIT:     331364 MISS:    1354622
LLC RFO          ACCESS:     257892 HIT:      93989 MISS:     163903
LLC PREFETCH     ACCESS:      12908 HIT:       1058 MISS:      11850
LLC WRITE        ACCESS:     970857 HIT:     952421 MISS:      18436
LLC TRANSLATION  ACCESS:     595958 HIT:      52132 MISS:     543826
LLC PREFETCH REQUESTED:          0 ISSUED:          0 USEFUL:          0 USELESS:          0
LLC AVERAGE MISS LATENCY: 1188 cycles
LLC TOTAL        ACCESS:   15894733 HIT:    8848501 MISS:    7046232
LLC LOAD         ACCESS:    1814234 HIT:     264606 MISS:    1549628
LLC RFO          ACCESS:       5269 HIT:       5260 MISS:          9
LLC PREFETCH     ACCESS:    7296578 HIT:    1801455 MISS:    5495123
LLC WRITE        ACCESS:    6775617 HIT:    6774726 MISS:        891
LLC TRANSLATION  ACCESS:       3035 HIT:       2454 MISS:        581
LLC PREFETCH REQUESTED:          0 ISSUED:          0 USEFUL:          0 USELESS:          0
LLC AVERAGE MISS LATENCY: 1188 cycles
LLC TOTAL        ACCESS:    5982756 HIT:    3730675 MISS:    2252081
LLC LOAD         ACCESS:    2904402 HIT:    2182178 MISS:     722224
LLC RFO          ACCESS:     383436 HIT:     380342 MISS:       3094
LLC PREFETCH     ACCESS:    2069836 HIT:     559911 MISS:    1509925
LLC WRITE        ACCESS:     604768 HIT:     595372 MISS:       9396
LLC TRANSLATION  ACCESS:      20314 HIT:      12872 MISS:       7442
LLC PREFETCH REQUESTED:          0 ISSUED:          0 USEFUL:          0 USELESS:          0
LLC AVERAGE MISS LATENCY: 1188 cycles
cpu0_DTLB TOTAL        ACCESS:  390007512 HIT:  386775335 MISS:    3232177
cpu0_DTLB LOAD         ACCESS:  390007512 HIT:  386775335 MISS:    3232177
cpu0_DTLB RFO          ACCESS:          0 HIT:          0 MISS:          0
cpu0_DTLB PREFETCH     ACCESS:          0 HIT:          0 MISS:          0
cpu0_DTLB WRITE        ACCESS:          0 HIT:          0 MISS:          0
cpu0_DTLB TRANSLATION  ACCESS:          0 HIT:          0 MISS:          0
cpu0_DTLB PREFETCH REQUESTED:          0 ISSUED:          0 USEFUL:          0 USELESS:          0
cpu0_DTLB AVERAGE MISS LATENCY: 11.65 cycles
cpu0_DTLB TOTAL        ACCESS:          0 HIT:          0 MISS:          0
cpu0_DTLB LOAD         ACCESS:          0 HIT:          0 MISS:          0
cpu0_DTLB RFO          ACCESS:          0 HIT:          0 MISS:          0
cpu0_DTLB PREFETCH     ACCESS:          0 HIT:          0 MISS:          0
cpu0_DTLB WRITE        ACCESS:          0 HIT:          0 MISS:          0
cpu0_DTLB TRANSLATION  ACCESS:          0 HIT:          0 MISS:          0
cpu0_DTLB PREFETCH REQUESTED:          0 ISSUED:          0 USEFUL:          0 USELESS:          0
cpu0_DTLB AVERAGE MISS LATENCY: 11.65 cycles
cpu0_DTLB TOTAL        ACCESS:          0 HIT:          0 MISS:          0
cpu0_DTLB LOAD         ACCESS:          0 HIT:          0 MISS:          0
cpu0_DTLB RFO          ACCESS:          0 HIT:          0 MISS:          0
cpu0_DTLB PREFETCH     ACCESS:          0 HIT:          0 MISS:          0
cpu0_DTLB WRITE        ACCESS:          0 HIT:          0 MISS:          0
cpu0_DTLB TRANSLATION  ACCESS:          0 HIT:          0 MISS:          0
cpu0_DTLB PREFETCH REQUESTED:          0 ISSUED:          0 USEFUL:          0 USELESS:          0
cpu0_DTLB AVERAGE MISS LATENCY: 11.65 cycles
cpu0_DTLB TOTAL        ACCESS:          0 HIT:          0 MISS:          0
cpu0_DTLB LOAD         ACCESS:          0 HIT:          0 MISS:          0
cpu0_DTLB RFO          ACCESS:          0 HIT:          0 MISS:          0
cpu0_DTLB PREFETCH     ACCESS:          0 HIT:          0 MISS:          0
cpu0_DTLB WRITE        ACCESS:          0 HIT:          0 MISS:          0
cpu0_DTLB TRANSLATION  ACCESS:          0 HIT:          0 MISS:          0
cpu0_DTLB PREFETCH REQUESTED:          0 ISSUED:          0 USEFUL:          0 USELESS:          0
cpu0_DTLB AVERAGE MISS LATENCY: 11.65 cycles
cpu0_ITLB TOTAL        ACCESS:      20469 HIT:      20469 MISS:          0
cpu0_ITLB LOAD         ACCESS:      20469 HIT:      20469 MISS:          0
cpu0_ITLB RFO          ACCESS:          0 HIT:          0 MISS:          0
cpu0_ITLB PREFETCH     ACCESS:          0 HIT:          0 MISS:          0
cpu0_ITLB WRITE        ACCESS:          0 HIT:          0 MISS:          0
cpu0_ITLB TRANSLATION  ACCESS:          0 HIT:          0 MISS:          0
cpu0_ITLB PREFETCH REQUESTED:          0 ISSUED:          0 USEFUL:          0 USELESS:          0
cpu0_ITLB AVERAGE MISS LATENCY: -nan cycles
cpu0_ITLB TOTAL        ACCESS:          0 HIT:          0 MISS:          0
cpu0_ITLB LOAD         ACCESS:          0 HIT:          0 MISS:          0
cpu0_ITLB RFO          ACCESS:          0 HIT:          0 MISS:          0
cpu0_ITLB PREFETCH     ACCESS:          0 HIT:          0 MISS:          0
cpu0_ITLB WRITE        ACCESS:          0 HIT:          0 MISS:          0
cpu0_ITLB TRANSLATION  ACCESS:          0 HIT:          0 MISS:          0
cpu0_ITLB PREFETCH REQUESTED:          0 ISSUED:          0 USEFUL:          0 USELESS:          0
cpu0_ITLB AVERAGE MISS LATENCY: -nan cycles
cpu0_ITLB TOTAL        ACCESS:          0 HIT:          0 MISS:          0
cpu0_ITLB LOAD         ACCESS:          0 HIT:          0 MISS:          0
cpu0_ITLB RFO          ACCESS:          0 HIT:          0 MISS:          0
cpu0_ITLB PREFETCH     ACCESS:          0 HIT:          0 MISS:          0
cpu0_ITLB WRITE        ACCESS:          0 HIT:          0 MISS:          0
cpu0_ITLB TRANSLATION  ACCESS:          0 HIT:          0 MISS:          0
cpu0_ITLB PREFETCH REQUESTED:          0 ISSUED:          0 USEFUL:          0 USELESS:          0
cpu0_ITLB AVERAGE MISS LATENCY: -nan cycles
cpu0_ITLB TOTAL        ACCESS:          0 HIT:          0 MISS:          0
cpu0_ITLB LOAD         ACCESS:          0 HIT:          0 MISS:          0
cpu0_ITLB RFO          ACCESS:          0 HIT:          0 MISS:          0
cpu0_ITLB PREFETCH     ACCESS:          0 HIT:          0 MISS:          0
cpu0_ITLB WRITE        ACCESS:          0 HIT:          0 MISS:          0
cpu0_ITLB TRANSLATION  ACCESS:          0 HIT:          0 MISS:          0
cpu0_ITLB PREFETCH REQUESTED:          0 ISSUED:          0 USEFUL:          0 USELESS:          0
cpu0_ITLB AVERAGE MISS LATENCY: -nan cycles
cpu0_L1D TOTAL        ACCESS:  539837312 HIT:  526116449 MISS:   13720863
cpu0_L1D LOAD         ACCESS:  280222365 HIT:  272372522 MISS:    7849843
cpu0_L1D RFO          ACCESS:          0 HIT:          0 MISS:          0
cpu0_L1D PREFETCH     ACCESS:   15128363 HIT:    9398706 MISS:    5729657
cpu0_L1D WRITE        ACCESS:  244467334 HIT:  244344709 MISS:     122625
cpu0_L1D TRANSLATION  ACCESS:      19250 HIT:        512 MISS:      18738
cpu0_L1D PREFETCH REQUESTED:  276410918 ISSUED:   15128363 USEFUL:     890224 USELESS:     364340
cpu0_L1D AVERAGE MISS LATENCY: 41.26 cycles
cpu0_L1D TOTAL        ACCESS:          0 HIT:          0 MISS:          0
cpu0_L1D LOAD         ACCESS:          0 HIT:          0 MISS:          0
cpu0_L1D RFO          ACCESS:          0 HIT:          0 MISS:          0
cpu0_L1D PREFETCH     ACCESS:          0 HIT:          0 MISS:          0
cpu0_L1D WRITE        ACCESS:          0 HIT:          0 MISS:          0
cpu0_L1D TRANSLATION  ACCESS:          0 HIT:          0 MISS:          0
cpu0_L1D PREFETCH REQUESTED:  276410918 ISSUED:   15128363 USEFUL:     890224 USELESS:     364340
cpu0_L1D AVERAGE MISS LATENCY: 41.26 cycles
cpu0_L1D TOTAL        ACCESS:          0 HIT:          0 MISS:          0
cpu0_L1D LOAD         ACCESS:          0 HIT:          0 MISS:          0
cpu0_L1D RFO          ACCESS:          0 HIT:          0 MISS:          0
cpu0_L1D PREFETCH     ACCESS:          0 HIT:          0 MISS:          0
cpu0_L1D WRITE        ACCESS:          0 HIT:          0 MISS:          0
cpu0_L1D TRANSLATION  ACCESS:          0 HIT:          0 MISS:          0
cpu0_L1D PREFETCH REQUESTED:  276410918 ISSUED:   15128363 USEFUL:     890224 USELESS:     364340
cpu0_L1D AVERAGE MISS LATENCY: 41.26 cycles
cpu0_L1D TOTAL        ACCESS:          0 HIT:          0 MISS:          0
cpu0_L1D LOAD         ACCESS:          0 HIT:          0 MISS:          0
cpu0_L1D RFO          ACCESS:          0 HIT:          0 MISS:          0
cpu0_L1D PREFETCH     ACCESS:          0 HIT:          0 MISS:          0
cpu0_L1D WRITE        ACCESS:          0 HIT:          0 MISS:          0
cpu0_L1D TRANSLATION  ACCESS:          0 HIT:          0 MISS:          0
cpu0_L1D PREFETCH REQUESTED:  276410918 ISSUED:   15128363 USEFUL:     890224 USELESS:     364340
cpu0_L1D AVERAGE MISS LATENCY: 41.26 cycles
cpu0_L1I TOTAL        ACCESS:      25020 HIT:      25018 MISS:          2
cpu0_L1I LOAD         ACCESS:      25020 HIT:      25018 MISS:          2
cpu0_L1I RFO          ACCESS:          0 HIT:          0 MISS:          0
cpu0_L1I PREFETCH     ACCESS:          0 HIT:          0 MISS:          0
cpu0_L1I WRITE        ACCESS:          0 HIT:          0 MISS:          0
cpu0_L1I TRANSLATION  ACCESS:          0 HIT:          0 MISS:          0
cpu0_L1I PREFETCH REQUESTED:          0 ISSUED:          0 USEFUL:          0 USELESS:          0
cpu0_L1I AVERAGE MISS LATENCY: 1344 cycles
cpu0_L1I TOTAL        ACCESS:          0 HIT:          0 MISS:          0
cpu0_L1I LOAD         ACCESS:          0 HIT:          0 MISS:          0
cpu0_L1I RFO          ACCESS:          0 HIT:          0 MISS:          0
cpu0_L1I PREFETCH     ACCESS:          0 HIT:          0 MISS:          0
cpu0_L1I WRITE        ACCESS:          0 HIT:          0 MISS:          0
cpu0_L1I TRANSLATION  ACCESS:          0 HIT:          0 MISS:          0
cpu0_L1I PREFETCH REQUESTED:          0 ISSUED:          0 USEFUL:          0 USELESS:          0
cpu0_L1I AVERAGE MISS LATENCY: 1344 cycles
cpu0_L1I TOTAL        ACCESS:          0 HIT:          0 MISS:          0
cpu0_L1I LOAD         ACCESS:          0 HIT:          0 MISS:          0
cpu0_L1I RFO          ACCESS:          0 HIT:          0 MISS:          0
cpu0_L1I PREFETCH     ACCESS:          0 HIT:          0 MISS:          0
cpu0_L1I WRITE        ACCESS:          0 HIT:          0 MISS:          0
cpu0_L1I TRANSLATION  ACCESS:          0 HIT:          0 MISS:          0
cpu0_L1I PREFETCH REQUESTED:          0 ISSUED:          0 USEFUL:          0 USELESS:          0
cpu0_L1I AVERAGE MISS LATENCY: 1344 cycles
cpu0_L1I TOTAL        ACCESS:          0 HIT:          0 MISS:          0
cpu0_L1I LOAD         ACCESS:          0 HIT:          0 MISS:          0
cpu0_L1I RFO          ACCESS:          0 HIT:          0 MISS:          0
cpu0_L1I PREFETCH     ACCESS:          0 HIT:          0 MISS:          0
cpu0_L1I WRITE        ACCESS:          0 HIT:          0 MISS:          0
cpu0_L1I TRANSLATION  ACCESS:          0 HIT:          0 MISS:          0
cpu0_L1I PREFETCH REQUESTED:          0 ISSUED:          0 USEFUL:          0 USELESS:          0
cpu0_L1I AVERAGE MISS LATENCY: 1344 cycles
cpu0_L2C TOTAL        ACCESS:   16547690 HIT:   15857179 MISS:     690511
cpu0_L2C LOAD         ACCESS:    7831246 HIT:    7749859 MISS:      81387
cpu0_L2C RFO          ACCESS:      31303 HIT:      30003 MISS:       1300
cpu0_L2C PREFETCH     ACCESS:    5720995 HIT:    5121571 MISS:     599424
cpu0_L2C WRITE        ACCESS:    2945410 HIT:    2945327 MISS:         83
cpu0_L2C TRANSLATION  ACCESS:      18736 HIT:      10419 MISS:       8317
cpu0_L2C PREFETCH REQUESTED:          0 ISSUED:          0 USEFUL:          0 USELESS:          0
cpu0_L2C AVERAGE MISS LATENCY: 1140 cycles
cpu0_L2C TOTAL        ACCESS:          0 HIT:          0 MISS:          0
cpu0_L2C LOAD         ACCESS:          0 HIT:          0 MISS:          0
cpu0_L2C RFO          ACCESS:          0 HIT:          0 MISS:          0
cpu0_L2C PREFETCH     ACCESS:          0 HIT:          0 MISS:          0
cpu0_L2C WRITE        ACCESS:          0 HIT:          0 MISS:          0
cpu0_L2C TRANSLATION  ACCESS:          0 HIT:          0 MISS:          0
cpu0_L2C PREFETCH REQUESTED:          0 ISSUED:          0 USEFUL:          0 USELESS:          0
cpu0_L2C AVERAGE MISS LATENCY: 1140 cycles
cpu0_L2C TOTAL        ACCESS:          0 HIT:          0 MISS:          0
cpu0_L2C LOAD         ACCESS:          0 HIT:          0 MISS:          0
cpu0_L2C RFO          ACCESS:          0 HIT:          0 MISS:          0
cpu0_L2C PREFETCH     ACCESS:          0 HIT:          0 MISS:          0
cpu0_L2C WRITE        ACCESS:          0 HIT:          0 MISS:          0
cpu0_L2C TRANSLATION  ACCESS:          0 HIT:          0 MISS:          0
cpu0_L2C PREFETCH REQUESTED:          0 ISSUED:          0 USEFUL:          0 USELESS:          0
cpu0_L2C AVERAGE MISS LATENCY: 1140 cycles
cpu0_L2C TOTAL        ACCESS:          0 HIT:          0 MISS:          0
cpu0_L2C LOAD         ACCESS:          0 HIT:          0 MISS:          0
cpu0_L2C RFO          ACCESS:          0 HIT:          0 MISS:          0
cpu0_L2C PREFETCH     ACCESS:          0 HIT:          0 MISS:          0
cpu0_L2C WRITE        ACCESS:          0 HIT:          0 MISS:          0
cpu0_L2C TRANSLATION  ACCESS:          0 HIT:          0 MISS:          0
cpu0_L2C PREFETCH REQUESTED:          0 ISSUED:          0 USEFUL:          0 USELESS:          0
cpu0_L2C AVERAGE MISS LATENCY: 1140 cycles
cpu0_STLB TOTAL        ACCESS:    3113112 HIT:    3094645 MISS:      18467
cpu0_STLB LOAD         ACCESS:    3113112 HIT:    3094645 MISS:      18467
cpu0_STLB RFO          ACCESS:          0 HIT:          0 MISS:          0
cpu0_STLB PREFETCH     ACCESS:          0 HIT:          0 MISS:          0
cpu0_STLB WRITE        ACCESS:          0 HIT:          0 MISS:          0
cpu0_STLB TRANSLATION  ACCESS:          0 HIT:          0 MISS:          0
cpu0_STLB PREFETCH REQUESTED:          0 ISSUED:          0 USEFUL:          0 USELESS:          0
cpu0_STLB AVERAGE MISS LATENCY: 735.7 cycles
cpu0_STLB TOTAL        ACCESS:          0 HIT:          0 MISS:          0
cpu0_STLB LOAD         ACCESS:          0 HIT:          0 MISS:          0
cpu0_STLB RFO          ACCESS:          0 HIT:          0 MISS:          0
cpu0_STLB PREFETCH     ACCESS:          0 HIT:          0 MISS:          0
cpu0_STLB WRITE        ACCESS:          0 HIT:          0 MISS:          0
cpu0_STLB TRANSLATION  ACCESS:          0 HIT:          0 MISS:          0
cpu0_STLB PREFETCH REQUESTED:          0 ISSUED:          0 USEFUL:          0 USELESS:          0
cpu0_STLB AVERAGE MISS LATENCY: 735.7 cycles
cpu0_STLB TOTAL        ACCESS:          0 HIT:          0 MISS:          0
cpu0_STLB LOAD         ACCESS:          0 HIT:          0 MISS:          0
cpu0_STLB RFO          ACCESS:          0 HIT:          0 MISS:          0
cpu0_STLB PREFETCH     ACCESS:          0 HIT:          0 MISS:          0
cpu0_STLB WRITE        ACCESS:          0 HIT:          0 MISS:          0
cpu0_STLB TRANSLATION  ACCESS:          0 HIT:          0 MISS:          0
cpu0_STLB PREFETCH REQUESTED:          0 ISSUED:          0 USEFUL:          0 USELESS:          0
cpu0_STLB AVERAGE MISS LATENCY: 735.7 cycles
cpu0_STLB TOTAL        ACCESS:          0 HIT:          0 MISS:          0
cpu0_STLB LOAD         ACCESS:          0 HIT:          0 MISS:          0
cpu0_STLB RFO          ACCESS:          0 HIT:          0 MISS:          0
cpu0_STLB PREFETCH     ACCESS:          0 HIT:          0 MISS:          0
cpu0_STLB WRITE        ACCESS:          0 HIT:          0 MISS:          0
cpu0_STLB TRANSLATION  ACCESS:          0 HIT:          0 MISS:          0
cpu0_STLB PREFETCH REQUESTED:          0 ISSUED:          0 USEFUL:          0 USELESS:          0
cpu0_STLB AVERAGE MISS LATENCY: 735.7 cycles
cpu1_DTLB TOTAL        ACCESS:          0 HIT:          0 MISS:          0
cpu1_DTLB LOAD         ACCESS:          0 HIT:          0 MISS:          0
cpu1_DTLB RFO          ACCESS:          0 HIT:          0 MISS:          0
cpu1_DTLB PREFETCH     ACCESS:          0 HIT:          0 MISS:          0
cpu1_DTLB WRITE        ACCESS:          0 HIT:          0 MISS:          0
cpu1_DTLB TRANSLATION  ACCESS:          0 HIT:          0 MISS:          0
cpu1_DTLB PREFETCH REQUESTED:          0 ISSUED:          0 USEFUL:          0 USELESS:          0
cpu1_DTLB AVERAGE MISS LATENCY: 195.9 cycles
cpu1_DTLB TOTAL        ACCESS:   38327106 HIT:   35033797 MISS:    3293309
cpu1_DTLB LOAD         ACCESS:   38327106 HIT:   35033797 MISS:    3293309
cpu1_DTLB RFO          ACCESS:          0 HIT:          0 MISS:          0
cpu1_DTLB PREFETCH     ACCESS:          0 HIT:          0 MISS:          0
cpu1_DTLB WRITE        ACCESS:          0 HIT:          0 MISS:          0
cpu1_DTLB TRANSLATION  ACCESS:          0 HIT:          0 MISS:          0
cpu1_DTLB PREFETCH REQUESTED:          0 ISSUED:          0 USEFUL:          0 USELESS:          0
cpu1_DTLB AVERAGE MISS LATENCY: 195.9 cycles
cpu1_DTLB TOTAL        ACCESS:          0 HIT:          0 MISS:          0
cpu1_DTLB LOAD         ACCESS:          0 HIT:          0 MISS:          0
cpu1_DTLB RFO          ACCESS:          0 HIT:          0 MISS:          0
cpu1_DTLB PREFETCH     ACCESS:          0 HIT:          0 MISS:          0
cpu1_DTLB WRITE        ACCESS:          0 HIT:          0 MISS:          0
cpu1_DTLB TRANSLATION  ACCESS:          0 HIT:          0 MISS:          0
cpu1_DTLB PREFETCH REQUESTED:          0 ISSUED:          0 USEFUL:          0 USELESS:          0
cpu1_DTLB AVERAGE MISS LATENCY: 195.9 cycles
cpu1_DTLB TOTAL        ACCESS:          0 HIT:          0 MISS:          0
cpu1_DTLB LOAD         ACCESS:          0 HIT:          0 MISS:          0
cpu1_DTLB RFO          ACCESS:          0 HIT:          0 MISS:          0
cpu1_DTLB PREFETCH     ACCESS:          0 HIT:          0 MISS:          0
cpu1_DTLB WRITE        ACCESS:          0 HIT:          0 MISS:          0
cpu1_DTLB TRANSLATION  ACCESS:          0 HIT:          0 MISS:          0
cpu1_DTLB PREFETCH REQUESTED:          0 ISSUED:          0 USEFUL:          0 USELESS:          0
cpu1_DTLB AVERAGE MISS LATENCY: 195.9 cycles
cpu1_ITLB TOTAL        ACCESS:          0 HIT:          0 MISS:          0
cpu1_ITLB LOAD         ACCESS:          0 HIT:          0 MISS:          0
cpu1_ITLB RFO          ACCESS:          0 HIT:          0 MISS:          0
cpu1_ITLB PREFETCH     ACCESS:          0 HIT:          0 MISS:          0
cpu1_ITLB WRITE        ACCESS:          0 HIT:          0 MISS:          0
cpu1_ITLB TRANSLATION  ACCESS:          0 HIT:          0 MISS:          0
cpu1_ITLB PREFETCH REQUESTED:          0 ISSUED:          0 USEFUL:          0 USELESS:          0
cpu1_ITLB AVERAGE MISS LATENCY: 13.45 cycles
cpu1_ITLB TOTAL        ACCESS:   10593555 HIT:   10317874 MISS:     275681
cpu1_ITLB LOAD         ACCESS:   10593555 HIT:   10317874 MISS:     275681
cpu1_ITLB RFO          ACCESS:          0 HIT:          0 MISS:          0
cpu1_ITLB PREFETCH     ACCESS:          0 HIT:          0 MISS:          0
cpu1_ITLB WRITE        ACCESS:          0 HIT:          0 MISS:          0
cpu1_ITLB TRANSLATION  ACCESS:          0 HIT:          0 MISS:          0
cpu1_ITLB PREFETCH REQUESTED:          0 ISSUED:          0 USEFUL:          0 USELESS:          0
cpu1_ITLB AVERAGE MISS LATENCY: 13.45 cycles
cpu1_ITLB TOTAL        ACCESS:          0 HIT:          0 MISS:          0
cpu1_ITLB LOAD         ACCESS:          0 HIT:          0 MISS:          0
cpu1_ITLB RFO          ACCESS:          0 HIT:          0 MISS:          0
cpu1_ITLB PREFETCH     ACCESS:          0 HIT:          0 MISS:          0
cpu1_ITLB WRITE        ACCESS:          0 HIT:          0 MISS:          0
cpu1_ITLB TRANSLATION  ACCESS:          0 HIT:          0 MISS:          0
cpu1_ITLB PREFETCH REQUESTED:          0 ISSUED:          0 USEFUL:          0 USELESS:          0
cpu1_ITLB AVERAGE MISS LATENCY: 13.45 cycles
cpu1_ITLB TOTAL        ACCESS:          0 HIT:          0 MISS:          0
cpu1_ITLB LOAD         ACCESS:          0 HIT:          0 MISS:          0
cpu1_ITLB RFO          ACCESS:          0 HIT:          0 MISS:          0
cpu1_ITLB PREFETCH     ACCESS:          0 HIT:          0 MISS:          0
cpu1_ITLB WRITE        ACCESS:          0 HIT:          0 MISS:          0
cpu1_ITLB TRANSLATION  ACCESS:          0 HIT:          0 MISS:          0
cpu1_ITLB PREFETCH REQUESTED:          0 ISSUED:          0 USEFUL:          0 USELESS:          0
cpu1_ITLB AVERAGE MISS LATENCY: 13.45 cycles
cpu1_L1D TOTAL        ACCESS:          0 HIT:          0 MISS:          0
cpu1_L1D LOAD         ACCESS:          0 HIT:          0 MISS:          0
cpu1_L1D RFO          ACCESS:          0 HIT:          0 MISS:          0
cpu1_L1D PREFETCH     ACCESS:          0 HIT:          0 MISS:          0
cpu1_L1D WRITE        ACCESS:          0 HIT:          0 MISS:          0
cpu1_L1D TRANSLATION  ACCESS:          0 HIT:          0 MISS:          0
cpu1_L1D PREFETCH REQUESTED:      22095 ISSUED:      22095 USEFUL:       1181 USELESS:       1027
cpu1_L1D AVERAGE MISS LATENCY: 488.4 cycles
cpu1_L1D TOTAL        ACCESS:   49794398 HIT:   44839068 MISS:    4955330
cpu1_L1D LOAD         ACCESS:   22923156 HIT:   19854708 MISS:    3068448
cpu1_L1D RFO          ACCESS:          0 HIT:          0 MISS:          0
cpu1_L1D PREFETCH     ACCESS:      22095 HIT:       2534 MISS:      19561
cpu1_L1D WRITE        ACCESS:   25957805 HIT:   24836593 MISS:    1121212
cpu1_L1D TRANSLATION  ACCESS:     891342 HIT:     145233 MISS:     746109
cpu1_L1D PREFETCH REQUESTED:      22095 ISSUED:      22095 USEFUL:       1181 USELESS:       1027
cpu1_L1D AVERAGE MISS LATENCY: 488.4 cycles
cpu1_L1D TOTAL        ACCESS:          0 HIT:          0 MISS:          0
cpu1_L1D LOAD         ACCESS:          0 HIT:          0 MISS:          0
cpu1_L1D RFO          ACCESS:          0 HIT:          0 MISS:          0
cpu1_L1D PREFETCH     ACCESS:          0 HIT:          0 MISS:          0
cpu1_L1D WRITE        ACCESS:          0 HIT:          0 MISS:          0
cpu1_L1D TRANSLATION  ACCESS:          0 HIT:          0 MISS:          0
cpu1_L1D PREFETCH REQUESTED:      22095 ISSUED:      22095 USEFUL:       1181 USELESS:       1027
cpu1_L1D AVERAGE MISS LATENCY: 488.4 cycles
cpu1_L1D TOTAL        ACCESS:          0 HIT:          0 MISS:          0
cpu1_L1D LOAD         ACCESS:          0 HIT:          0 MISS:          0
cpu1_L1D RFO          ACCESS:          0 HIT:          0 MISS:          0
cpu1_L1D PREFETCH     ACCESS:          0 HIT:          0 MISS:          0
cpu1_L1D WRITE        ACCESS:          0 HIT:          0 MISS:          0
cpu1_L1D TRANSLATION  ACCESS:          0 HIT:          0 MISS:          0
cpu1_L1D PREFETCH REQUESTED:      22095 ISSUED:      22095 USEFUL:       1181 USELESS:       1027
cpu1_L1D AVERAGE MISS LATENCY: 488.4 cycles
cpu1_L1I TOTAL        ACCESS:          0 HIT:          0 MISS:          0
cpu1_L1I LOAD         ACCESS:          0 HIT:          0 MISS:          0
cpu1_L1I RFO          ACCESS:          0 HIT:          0 MISS:          0
cpu1_L1I PREFETCH     ACCESS:          0 HIT:          0 MISS:          0
cpu1_L1I WRITE        ACCESS:          0 HIT:          0 MISS:          0
cpu1_L1I TRANSLATION  ACCESS:          0 HIT:          0 MISS:          0
cpu1_L1I PREFETCH REQUESTED:          0 ISSUED:          0 USEFUL:          0 USELESS:          0
cpu1_L1I AVERAGE MISS LATENCY: 75.98 cycles
cpu1_L1I TOTAL        ACCESS:   12892314 HIT:   12818364 MISS:      73950
cpu1_L1I LOAD         ACCESS:   12892314 HIT:   12818364 MISS:      73950
cpu1_L1I RFO          ACCESS:          0 HIT:          0 MISS:          0
[...]
cpu2_L2C PREFETCH     ACCESS:          0 HIT:          0 MISS:          0
cpu2_L2C WRITE        ACCESS:          0 HIT:          0 MISS:          0
cpu2_L2C TRANSLATION  ACCESS:          0 HIT:          0 MISS:          0
cpu2_L2C PREFETCH REQUESTED:          0 ISSUED:          0 USEFUL:          0 USELESS:          0
cpu2_L2C AVERAGE MISS LATENCY: 702.5 cycles
cpu2_L2C TOTAL        ACCESS:          0 HIT:          0 MISS:          0
cpu2_L2C LOAD         ACCESS:          0 HIT:          0 MISS:          0
cpu2_L2C RFO          ACCESS:          0 HIT:          0 MISS:          0
cpu2_L2C PREFETCH     ACCESS:          0 HIT:          0 MISS:          0
cpu2_L2C WRITE        ACCESS:          0 HIT:          0 MISS:          0
cpu2_L2C TRANSLATION  ACCESS:          0 HIT:          0 MISS:          0
cpu2_L2C PREFETCH REQUESTED:          0 ISSUED:          0 USEFUL:          0 USELESS:          0
cpu2_L2C AVERAGE MISS LATENCY: 702.5 cycles
cpu2_L2C TOTAL        ACCESS:    5179602 HIT:    2845989 MISS:    2333613
cpu2_L2C LOAD         ACCESS:     669071 HIT:     253501 MISS:     415570
cpu2_L2C RFO          ACCESS:       2296 HIT:       1336 MISS:        960
cpu2_L2C PREFETCH     ACCESS:    3189654 HIT:    1273229 MISS:    1916425
cpu2_L2C WRITE        ACCESS:    1317774 HIT:    1317774 MISS:          0
cpu2_L2C TRANSLATION  ACCESS:        807 HIT:        149 MISS:        658
cpu2_L2C PREFETCH REQUESTED:          0 ISSUED:          0 USEFUL:          0 USELESS:          0
cpu2_L2C AVERAGE MISS LATENCY: 702.5 cycles
cpu2_L2C TOTAL        ACCESS:          0 HIT:          0 MISS:          0
cpu2_L2C LOAD         ACCESS:          0 HIT:          0 MISS:          0
cpu2_L2C RFO          ACCESS:          0 HIT:          0 MISS:          0
cpu2_L2C PREFETCH     ACCESS:          0 HIT:          0 MISS:          0
cpu2_L2C WRITE        ACCESS:          0 HIT:          0 MISS:          0
cpu2_L2C TRANSLATION  ACCESS:          0 HIT:          0 MISS:          0
cpu2_L2C PREFETCH REQUESTED:          0 ISSUED:          0 USEFUL:          0 USELESS:          0
cpu2_L2C AVERAGE MISS LATENCY: 702.5 cycles
cpu2_STLB TOTAL        ACCESS:          0 HIT:          0 MISS:          0
cpu2_STLB LOAD         ACCESS:          0 HIT:          0 MISS:          0
cpu2_STLB RFO          ACCESS:          0 HIT:          0 MISS:          0
cpu2_STLB PREFETCH     ACCESS:          0 HIT:          0 MISS:          0
cpu2_STLB WRITE        ACCESS:          0 HIT:          0 MISS:          0
cpu2_STLB TRANSLATION  ACCESS:          0 HIT:          0 MISS:          0
cpu2_STLB PREFETCH REQUESTED:          0 ISSUED:          0 USEFUL:          0 USELESS:          0
cpu2_STLB AVERAGE MISS LATENCY: 214.3 cycles
cpu2_STLB TOTAL        ACCESS:          0 HIT:          0 MISS:          0
cpu2_STLB LOAD         ACCESS:          0 HIT:          0 MISS:          0
cpu2_STLB RFO          ACCESS:          0 HIT:          0 MISS:          0
cpu2_STLB PREFETCH     ACCESS:          0 HIT:          0 MISS:          0
cpu2_STLB WRITE        ACCESS:          0 HIT:          0 MISS:          0
cpu2_STLB TRANSLATION  ACCESS:          0 HIT:          0 MISS:          0
cpu2_STLB PREFETCH REQUESTED:          0 ISSUED:          0 USEFUL:          0 USELESS:          0
cpu2_STLB AVERAGE MISS LATENCY: 214.3 cycles
cpu2_STLB TOTAL        ACCESS:      34973 HIT:      14384 MISS:      20589
cpu2_STLB LOAD         ACCESS:      34973 HIT:      14384 MISS:      20589
cpu2_STLB RFO          ACCESS:          0 HIT:          0 MISS:          0
cpu2_STLB PREFETCH     ACCESS:          0 HIT:          0 MISS:          0
cpu2_STLB WRITE        ACCESS:          0 HIT:          0 MISS:          0
cpu2_STLB TRANSLATION  ACCESS:          0 HIT:          0 MISS:          0
cpu2_STLB PREFETCH REQUESTED:          0 ISSUED:          0 USEFUL:          0 USELESS:          0
cpu2_STLB AVERAGE MISS LATENCY: 214.3 cycles
cpu2_STLB TOTAL        ACCESS:          0 HIT:          0 MISS:          0
cpu2_STLB LOAD         ACCESS:          0 HIT:          0 MISS:          0
cpu2_STLB RFO          ACCESS:          0 HIT:          0 MISS:          0
cpu2_STLB PREFETCH     ACCESS:          0 HIT:          0 MISS:          0
cpu2_STLB WRITE        ACCESS:          0 HIT:          0 MISS:          0
cpu2_STLB TRANSLATION  ACCESS:          0 HIT:          0 MISS:          0
cpu2_STLB PREFETCH REQUESTED:          0 ISSUED:          0 USEFUL:          0 USELESS:          0
cpu2_STLB AVERAGE MISS LATENCY: 214.3 cycles
cpu3_DTLB TOTAL        ACCESS:          0 HIT:          0 MISS:          0
cpu3_DTLB LOAD         ACCESS:          0 HIT:          0 MISS:          0
cpu3_DTLB RFO          ACCESS:          0 HIT:          0 MISS:          0
cpu3_DTLB PREFETCH     ACCESS:          0 HIT:          0 MISS:          0
cpu3_DTLB WRITE        ACCESS:          0 HIT:          0 MISS:          0
cpu3_DTLB TRANSLATION  ACCESS:          0 HIT:          0 MISS:          0
cpu3_DTLB PREFETCH REQUESTED:          0 ISSUED:          0 USEFUL:          0 USELESS:          0
cpu3_DTLB AVERAGE MISS LATENCY: 10.16 cycles
cpu3_DTLB TOTAL        ACCESS:          0 HIT:          0 MISS:          0
cpu3_DTLB LOAD         ACCESS:          0 HIT:          0 MISS:          0
cpu3_DTLB RFO          ACCESS:          0 HIT:          0 MISS:          0
cpu3_DTLB PREFETCH     ACCESS:          0 HIT:          0 MISS:          0
cpu3_DTLB WRITE        ACCESS:          0 HIT:          0 MISS:          0
cpu3_DTLB TRANSLATION  ACCESS:          0 HIT:          0 MISS:          0
cpu3_DTLB PREFETCH REQUESTED:          0 ISSUED:          0 USEFUL:          0 USELESS:          0
cpu3_DTLB AVERAGE MISS LATENCY: 10.16 cycles
cpu3_DTLB TOTAL        ACCESS:          0 HIT:          0 MISS:          0
cpu3_DTLB LOAD         ACCESS:          0 HIT:          0 MISS:          0
cpu3_DTLB RFO          ACCESS:          0 HIT:          0 MISS:          0
cpu3_DTLB PREFETCH     ACCESS:          0 HIT:          0 MISS:          0
cpu3_DTLB WRITE        ACCESS:          0 HIT:          0 MISS:          0
cpu3_DTLB TRANSLATION  ACCESS:          0 HIT:          0 MISS:          0
cpu3_DTLB PREFETCH REQUESTED:          0 ISSUED:          0 USEFUL:          0 USELESS:          0
cpu3_DTLB AVERAGE MISS LATENCY: 10.16 cycles
cpu3_DTLB TOTAL        ACCESS:   41268284 HIT:   38674736 MISS:    2593548
cpu3_DTLB LOAD         ACCESS:   41268284 HIT:   38674736 MISS:    2593548
cpu3_DTLB RFO          ACCESS:          0 HIT:          0 MISS:          0
cpu3_DTLB PREFETCH     ACCESS:          0 HIT:          0 MISS:          0
cpu3_DTLB WRITE        ACCESS:          0 HIT:          0 MISS:          0
cpu3_DTLB TRANSLATION  ACCESS:          0 HIT:          0 MISS:          0
cpu3_DTLB PREFETCH REQUESTED:          0 ISSUED:          0 USEFUL:          0 USELESS:          0
cpu3_DTLB AVERAGE MISS LATENCY: 10.16 cycles
cpu3_ITLB TOTAL        ACCESS:          0 HIT:          0 MISS:          0
cpu3_ITLB LOAD         ACCESS:          0 HIT:          0 MISS:          0
cpu3_ITLB RFO          ACCESS:          0 HIT:          0 MISS:          0
cpu3_ITLB PREFETCH     ACCESS:          0 HIT:          0 MISS:          0
cpu3_ITLB WRITE        ACCESS:          0 HIT:          0 MISS:          0
cpu3_ITLB TRANSLATION  ACCESS:          0 HIT:          0 MISS:          0
cpu3_ITLB PREFETCH REQUESTED:          0 ISSUED:          0 USEFUL:          0 USELESS:          0
cpu3_ITLB AVERAGE MISS LATENCY: -nan cycles
cpu3_ITLB TOTAL        ACCESS:          0 HIT:          0 MISS:          0
cpu3_ITLB LOAD         ACCESS:          0 HIT:          0 MISS:          0
cpu3_ITLB RFO          ACCESS:          0 HIT:          0 MISS:          0
cpu3_ITLB PREFETCH     ACCESS:          0 HIT:          0 MISS:          0
cpu3_ITLB WRITE        ACCESS:          0 HIT:          0 MISS:          0
cpu3_ITLB TRANSLATION  ACCESS:          0 HIT:          0 MISS:          0
cpu3_ITLB PREFETCH REQUESTED:          0 ISSUED:          0 USEFUL:          0 USELESS:          0
cpu3_ITLB AVERAGE MISS LATENCY: -nan cycles
cpu3_ITLB TOTAL        ACCESS:          0 HIT:          0 MISS:          0
cpu3_ITLB LOAD         ACCESS:          0 HIT:          0 MISS:          0
cpu3_ITLB RFO          ACCESS:          0 HIT:          0 MISS:          0
cpu3_ITLB PREFETCH     ACCESS:          0 HIT:          0 MISS:          0
cpu3_ITLB WRITE        ACCESS:          0 HIT:          0 MISS:          0
cpu3_ITLB TRANSLATION  ACCESS:          0 HIT:          0 MISS:          0
cpu3_ITLB PREFETCH REQUESTED:          0 ISSUED:          0 USEFUL:          0 USELESS:          0
cpu3_ITLB AVERAGE MISS LATENCY: -nan cycles
cpu3_ITLB TOTAL        ACCESS:      47827 HIT:      47827 MISS:          0
cpu3_ITLB LOAD         ACCESS:      47827 HIT:      47827 MISS:          0
cpu3_ITLB RFO          ACCESS:          0 HIT:          0 MISS:          0
cpu3_ITLB PREFETCH     ACCESS:          0 HIT:          0 MISS:          0
cpu3_ITLB WRITE        ACCESS:          0 HIT:          0 MISS:          0
cpu3_ITLB TRANSLATION  ACCESS:          0 HIT:          0 MISS:          0
cpu3_ITLB PREFETCH REQUESTED:          0 ISSUED:          0 USEFUL:          0 USELESS:          0
cpu3_ITLB AVERAGE MISS LATENCY: -nan cycles
cpu3_L1D TOTAL        ACCESS:          0 HIT:          0 MISS:          0
cpu3_L1D LOAD         ACCESS:          0 HIT:          0 MISS:          0
cpu3_L1D RFO          ACCESS:          0 HIT:          0 MISS:          0
cpu3_L1D PREFETCH     ACCESS:          0 HIT:          0 MISS:          0
cpu3_L1D WRITE        ACCESS:          0 HIT:          0 MISS:          0
cpu3_L1D TRANSLATION  ACCESS:          0 HIT:          0 MISS:          0
cpu3_L1D PREFETCH REQUESTED:   45757899 ISSUED:   40786502 USEFUL:    1412195 USELESS:     247655
cpu3_L1D AVERAGE MISS LATENCY: 99.52 cycles
cpu3_L1D TOTAL        ACCESS:          0 HIT:          0 MISS:          0
cpu3_L1D LOAD         ACCESS:          0 HIT:          0 MISS:          0
cpu3_L1D RFO          ACCESS:          0 HIT:          0 MISS:          0
cpu3_L1D PREFETCH     ACCESS:          0 HIT:          0 MISS:          0
cpu3_L1D WRITE        ACCESS:          0 HIT:          0 MISS:          0
cpu3_L1D TRANSLATION  ACCESS:          0 HIT:          0 MISS:          0
cpu3_L1D PREFETCH REQUESTED:   45757899 ISSUED:   40786502 USEFUL:    1412195 USELESS:     247655
cpu3_L1D AVERAGE MISS LATENCY: 99.52 cycles
cpu3_L1D TOTAL        ACCESS:          0 HIT:          0 MISS:          0
cpu3_L1D LOAD         ACCESS:          0 HIT:          0 MISS:          0
cpu3_L1D RFO          ACCESS:          0 HIT:          0 MISS:          0
cpu3_L1D PREFETCH     ACCESS:          0 HIT:          0 MISS:          0
cpu3_L1D WRITE        ACCESS:          0 HIT:          0 MISS:          0
cpu3_L1D TRANSLATION  ACCESS:          0 HIT:          0 MISS:          0
cpu3_L1D PREFETCH REQUESTED:   45757899 ISSUED:   40786502 USEFUL:    1412195 USELESS:     247655
cpu3_L1D AVERAGE MISS LATENCY: 99.52 cycles
cpu3_L1D TOTAL        ACCESS:   80992996 HIT:   68833169 MISS:   12159827
cpu3_L1D LOAD         ACCESS:   34736641 HIT:   30942224 MISS:    3794417
cpu3_L1D RFO          ACCESS:          0 HIT:          0 MISS:          0
cpu3_L1D PREFETCH     ACCESS:   28546393 HIT:   21766753 MISS:    6779640
cpu3_L1D WRITE        ACCESS:   17678019 HIT:   16109834 MISS:    1568185
cpu3_L1D TRANSLATION  ACCESS:      31943 HIT:      14358 MISS:      17585
cpu3_L1D PREFETCH REQUESTED:   45757899 ISSUED:   40786502 USEFUL:    1412195 USELESS:     247655
cpu3_L1D AVERAGE MISS LATENCY: 99.52 cycles
cpu3_L1I TOTAL        ACCESS:          0 HIT:          0 MISS:          0
cpu3_L1I LOAD         ACCESS:          0 HIT:          0 MISS:          0
cpu3_L1I RFO          ACCESS:          0 HIT:          0 MISS:          0
cpu3_L1I PREFETCH     ACCESS:          0 HIT:          0 MISS:          0
cpu3_L1I WRITE        ACCESS:          0 HIT:          0 MISS:          0
cpu3_L1I TRANSLATION  ACCESS:          0 HIT:          0 MISS:          0
cpu3_L1I PREFETCH REQUESTED:          0 ISSUED:          0 USEFUL:          0 USELESS:          0
cpu3_L1I AVERAGE MISS LATENCY: 880.5 cycles
cpu3_L1I TOTAL        ACCESS:          0 HIT:          0 MISS:          0
cpu3_L1I LOAD         ACCESS:          0 HIT:          0 MISS:          0
cpu3_L1I RFO          ACCESS:          0 HIT:          0 MISS:          0
cpu3_L1I PREFETCH     ACCESS:          0 HIT:          0 MISS:          0
cpu3_L1I WRITE        ACCESS:          0 HIT:          0 MISS:          0
cpu3_L1I TRANSLATION  ACCESS:          0 HIT:          0 MISS:          0
cpu3_L1I PREFETCH REQUESTED:          0 ISSUED:          0 USEFUL:          0 USELESS:          0
cpu3_L1I AVERAGE MISS LATENCY: 880.5 cycles
cpu3_L1I TOTAL        ACCESS:          0 HIT:          0 MISS:          0
cpu3_L1I LOAD         ACCESS:          0 HIT:          0 MISS:          0
cpu3_L1I RFO          ACCESS:          0 HIT:          0 MISS:          0
cpu3_L1I PREFETCH     ACCESS:          0 HIT:          0 MISS:          0
cpu3_L1I WRITE        ACCESS:          0 HIT:          0 MISS:          0
cpu3_L1I TRANSLATION  ACCESS:          0 HIT:          0 MISS:          0
cpu3_L1I PREFETCH REQUESTED:          0 ISSUED:          0 USEFUL:          0 USELESS:          0
cpu3_L1I AVERAGE MISS LATENCY: 880.5 cycles
cpu3_L1I TOTAL        ACCESS:      54265 HIT:      54263 MISS:          2
cpu3_L1I LOAD         ACCESS:      54265 HIT:      54263 MISS:          2
cpu3_L1I RFO          ACCESS:          0 HIT:          0 MISS:          0
cpu3_L1I PREFETCH     ACCESS:          0 HIT:          0 MISS:          0
cpu3_L1I WRITE        ACCESS:          0 HIT:          0 MISS:          0
cpu3_L1I TRANSLATION  ACCESS:          0 HIT:          0 MISS:          0
cpu3_L1I PREFETCH REQUESTED:          0 ISSUED:          0 USEFUL:          0 USELESS:          0
cpu3_L1I AVERAGE MISS LATENCY: 880.5 cycles
cpu3_L2C TOTAL        ACCESS:          0 HIT:          0 MISS:          0
cpu3_L2C LOAD         ACCESS:          0 HIT:          0 MISS:          0
cpu3_L2C RFO          ACCESS:          0 HIT:          0 MISS:          0
cpu3_L2C PREFETCH     ACCESS:          0 HIT:          0 MISS:          0
cpu3_L2C WRITE        ACCESS:          0 HIT:          0 MISS:          0
cpu3_L2C TRANSLATION  ACCESS:          0 HIT:          0 MISS:          0
cpu3_L2C PREFETCH REQUESTED:          0 ISSUED:          0 USEFUL:          0 USELESS:          0
cpu3_L2C AVERAGE MISS LATENCY: 487.7 cycles
cpu3_L2C TOTAL        ACCESS:          0 HIT:          0 MISS:          0
cpu3_L2C LOAD         ACCESS:          0 HIT:          0 MISS:          0
cpu3_L2C RFO          ACCESS:          0 HIT:          0 MISS:          0
cpu3_L2C PREFETCH     ACCESS:          0 HIT:          0 MISS:          0
cpu3_L2C WRITE        ACCESS:          0 HIT:          0 MISS:          0
cpu3_L2C TRANSLATION  ACCESS:          0 HIT:          0 MISS:          0
cpu3_L2C PREFETCH REQUESTED:          0 ISSUED:          0 USEFUL:          0 USELESS:          0
cpu3_L2C AVERAGE MISS LATENCY: 487.7 cycles
cpu3_L2C TOTAL        ACCESS:          0 HIT:          0 MISS:          0
cpu3_L2C LOAD         ACCESS:          0 HIT:          0 MISS:          0
cpu3_L2C RFO          ACCESS:          0 HIT:          0 MISS:          0
cpu3_L2C PREFETCH     ACCESS:          0 HIT:          0 MISS:          0
cpu3_L2C WRITE        ACCESS:          0 HIT:          0 MISS:          0
cpu3_L2C TRANSLATION  ACCESS:          0 HIT:          0 MISS:          0
cpu3_L2C PREFETCH REQUESTED:          0 ISSUED:          0 USEFUL:          0 USELESS:          0
cpu3_L2C AVERAGE MISS LATENCY: 487.7 cycles
cpu3_L2C TOTAL        ACCESS:   11756829 HIT:    7717174 MISS:    4039655
cpu3_L2C LOAD         ACCESS:    3642973 HIT:    1608838 MISS:    2034135
cpu3_L2C RFO          ACCESS:     573246 HIT:     306610 MISS:     266636
cpu3_L2C PREFETCH     ACCESS:    6745647 HIT:    5021846 MISS:    1723801
cpu3_L2C WRITE        ACCESS:     777380 HIT:     776909 MISS:        471
cpu3_L2C TRANSLATION  ACCESS:      17583 HIT:       2971 MISS:      14612
cpu3_L2C PREFETCH REQUESTED:          0 ISSUED:          0 USEFUL:          0 USELESS:          0
cpu3_L2C AVERAGE MISS LATENCY: 487.7 cycles
cpu3_STLB TOTAL        ACCESS:          0 HIT:          0 MISS:          0
cpu3_STLB LOAD         ACCESS:          0 HIT:          0 MISS:          0
cpu3_STLB RFO          ACCESS:          0 HIT:          0 MISS:          0
cpu3_STLB PREFETCH     ACCESS:          0 HIT:          0 MISS:          0
cpu3_STLB WRITE        ACCESS:          0 HIT:          0 MISS:          0
cpu3_STLB TRANSLATION  ACCESS:          0 HIT:          0 MISS:          0
cpu3_STLB PREFETCH REQUESTED:          0 ISSUED:          0 USEFUL:          0 USELESS:          0
cpu3_STLB AVERAGE MISS LATENCY: 323.6 cycles
cpu3_STLB TOTAL        ACCESS:          0 HIT:          0 MISS:          0
cpu3_STLB LOAD         ACCESS:          0 HIT:          0 MISS:          0
cpu3_STLB RFO          ACCESS:          0 HIT:          0 MISS:          0
cpu3_STLB PREFETCH     ACCESS:          0 HIT:          0 MISS:          0
cpu3_STLB WRITE        ACCESS:          0 HIT:          0 MISS:          0
cpu3_STLB TRANSLATION  ACCESS:          0 HIT:          0 MISS:          0
cpu3_STLB PREFETCH REQUESTED:          0 ISSUED:          0 USEFUL:          0 USELESS:          0
cpu3_STLB AVERAGE MISS LATENCY: 323.6 cycles
cpu3_STLB TOTAL        ACCESS:          0 HIT:          0 MISS:          0
cpu3_STLB LOAD         ACCESS:          0 HIT:          0 MISS:          0
cpu3_STLB RFO          ACCESS:          0 HIT:          0 MISS:          0
cpu3_STLB PREFETCH     ACCESS:          0 HIT:          0 MISS:          0
cpu3_STLB WRITE        ACCESS:          0 HIT:          0 MISS:          0
cpu3_STLB TRANSLATION  ACCESS:          0 HIT:          0 MISS:          0
cpu3_STLB PREFETCH REQUESTED:          0 ISSUED:          0 USEFUL:          0 USELESS:          0
cpu3_STLB AVERAGE MISS LATENCY: 323.6 cycles
cpu3_STLB TOTAL        ACCESS:    2240076 HIT:    2208373 MISS:      31703
cpu3_STLB LOAD         ACCESS:    2240076 HIT:    2208373 MISS:      31703
cpu3_STLB RFO          ACCESS:          0 HIT:          0 MISS:          0
cpu3_STLB PREFETCH     ACCESS:          0 HIT:          0 MISS:          0
cpu3_STLB WRITE        ACCESS:          0 HIT:          0 MISS:          0
cpu3_STLB TRANSLATION  ACCESS:          0 HIT:          0 MISS:          0
cpu3_STLB PREFETCH REQUESTED:          0 ISSUED:          0 USEFUL:          0 USELESS:          0
cpu3_STLB AVERAGE MISS LATENCY: 323.6 cycles

DRAM Statistics

Channel 0 RQ ROW_BUFFER_HIT:    3659537
  ROW_BUFFER_MISS:    8165529
 AVG DBUS CONGESTED CYCLE: 3.977
WQ ROW_BUFFER_HIT: Channel 0 
  ROW_BUFFER_MISS:     287576
  FULL:    7250919
BERTI TO_L1: 307268103 TO_L2: 234462418 TO_L2_BC_MSHR: 14279
BERTI AVG_LAT: 709.182 NUM_TRACK_LATENCY: 33675697 NUM_CANT_TRACK_LATENCY: 210759
BERTI CROSS_PAGE 65473390 NO_CROSS_PAGE: 476257131
BERTI FOUND_BERTI: 169892108 NO_FOUND_BERTI: 278189562
BERTI AVERAGE_ISSUED: 5.51888
BERTI TO_L1: 307268103 TO_L2: 234462418 TO_L2_BC_MSHR: 14279
BERTI AVG_LAT: 709.182 NUM_TRACK_LATENCY: 33675697 NUM_CANT_TRACK_LATENCY: 210759
BERTI CROSS_PAGE 65473390 NO_CROSS_PAGE: 476257131
BERTI FOUND_BERTI: 169892108 NO_FOUND_BERTI: 278189562
BERTI AVERAGE_ISSUED: 5.51888
BERTI TO_L1: 307268103 TO_L2: 234462418 TO_L2_BC_MSHR: 14279
BERTI AVG_LAT: 709.182 NUM_TRACK_LATENCY: 33675697 NUM_CANT_TRACK_LATENCY: 210759
BERTI CROSS_PAGE 65473390 NO_CROSS_PAGE: 476257131
BERTI FOUND_BERTI: 169892108 NO_FOUND_BERTI: 278189562
BERTI AVERAGE_ISSUED: 5.51888
BERTI TO_L1: 307268103 TO_L2: 234462418 TO_L2_BC_MSHR: 14279
BERTI AVG_LAT: 709.182 NUM_TRACK_LATENCY: 33675697 NUM_CANT_TRACK_LATENCY: 210759
BERTI CROSS_PAGE 65473390 NO_CROSS_PAGE: 476257131
BERTI FOUND_BERTI: 169892108 NO_FOUND_BERTI: 278189562
BERTI AVERAGE_ISSUED: 5.51888
