WARNING: physical memory size is smaller than virtual memory size.
WARNING: option --warmup_instructions is deprecated. Use --warmup-instructions instead.
WARNING: option --simulation_instructions is deprecated. Use --simulation-instructions instead.

*** ChampSim Multicore Out-of-Order Simulator ***
Warmup Instructions: 50000000
Simulation Instructions: 150000000
Number of CPUs: 4
Page size: 4096

Berti Prefetcher
BERTI HASH ORIGINAL
BERTI IP MASK ffff
Berti Prefetcher
BERTI HASH ORIGINAL
BERTI IP MASK ffff
Berti Prefetcher
BERTI HASH ORIGINAL
BERTI IP MASK ffff
Berti Prefetcher
BERTI HASH ORIGINAL
BERTI IP MASK ffff
Off-chip DRAM Size: 4 GiB Channels: 1 Width: 64-bit Data Race: 3200 MT/s
Heartbeat CPU 1 instructions: 10000002 cycles: 2505937 heartbeat IPC: 3.991 cumulative IPC: 3.991 (Simulation time: 00 hr 02 min 24 sec)
Heartbeat CPU 3 instructions: 10000003 cycles: 2711645 heartbeat IPC: 3.688 cumulative IPC: 3.688 (Simulation time: 00 hr 02 min 36 sec)
Heartbeat CPU 2 instructions: 10000003 cycles: 3063882 heartbeat IPC: 3.264 cumulative IPC: 3.264 (Simulation time: 00 hr 02 min 57 sec)
Heartbeat CPU 0 instructions: 10000004 cycles: 4173590 heartbeat IPC: 2.396 cumulative IPC: 2.396 (Simulation time: 00 hr 04 min 03 sec)
Heartbeat CPU 1 instructions: 20000000 cycles: 5014123 heartbeat IPC: 3.987 cumulative IPC: 3.989 (Simulation time: 00 hr 04 min 53 sec)
Heartbeat CPU 3 instructions: 20000002 cycles: 5231279 heartbeat IPC: 3.969 cumulative IPC: 3.823 (Simulation time: 00 hr 05 min 05 sec)
Heartbeat CPU 2 instructions: 20000002 cycles: 5746965 heartbeat IPC: 3.727 cumulative IPC: 3.48 (Simulation time: 00 hr 05 min 36 sec)
Heartbeat CPU 1 instructions: 30000001 cycles: 7517824 heartbeat IPC: 3.994 cumulative IPC: 3.991 (Simulation time: 00 hr 07 min 25 sec)
Heartbeat CPU 3 instructions: 30000000 cycles: 7750700 heartbeat IPC: 3.969 cumulative IPC: 3.871 (Simulation time: 00 hr 07 min 40 sec)
Heartbeat CPU 0 instructions: 20000004 cycles: 8343543 heartbeat IPC: 2.398 cumulative IPC: 2.397 (Simulation time: 00 hr 08 min 16 sec)
Heartbeat CPU 2 instructions: 30000000 cycles: 8966176 heartbeat IPC: 3.106 cumulative IPC: 3.346 (Simulation time: 00 hr 08 min 55 sec)
Heartbeat CPU 1 instructions: 40000000 cycles: 10026884 heartbeat IPC: 3.986 cumulative IPC: 3.989 (Simulation time: 00 hr 10 min 00 sec)
Heartbeat CPU 3 instructions: 40000000 cycles: 10280889 heartbeat IPC: 3.952 cumulative IPC: 3.891 (Simulation time: 00 hr 10 min 15 sec)
Heartbeat CPU 2 instructions: 40000004 cycles: 12220222 heartbeat IPC: 3.073 cumulative IPC: 3.273 (Simulation time: 00 hr 12 min 12 sec)
Heartbeat CPU 0 instructions: 30000001 cycles: 12517305 heartbeat IPC: 2.396 cumulative IPC: 2.397 (Simulation time: 00 hr 12 min 29 sec)
Heartbeat CPU 1 instructions: 50000000 cycles: 12547242 heartbeat IPC: 3.968 cumulative IPC: 3.985 (Simulation time: 00 hr 12 min 31 sec)
Warmup finished CPU 1 instructions: 50000000 cycles: 12547243 cumulative IPC: 3.985 (Simulation time: 00 hr 12 min 31 sec)
Heartbeat CPU 3 instructions: 50000003 cycles: 12883612 heartbeat IPC: 3.842 cumulative IPC: 3.881 (Simulation time: 00 hr 12 min 52 sec)
Warmup finished CPU 3 instructions: 50000003 cycles: 12883613 cumulative IPC: 3.881 (Simulation time: 00 hr 12 min 52 sec)
Heartbeat CPU 1 instructions: 60000003 cycles: 15053906 heartbeat IPC: 3.989 cumulative IPC: 3.986 (Simulation time: 00 hr 15 min 04 sec)
Heartbeat CPU 2 instructions: 50000002 cycles: 15374791 heartbeat IPC: 3.17 cumulative IPC: 3.252 (Simulation time: 00 hr 15 min 23 sec)
Warmup finished CPU 2 instructions: 50000002 cycles: 15374792 cumulative IPC: 3.252 (Simulation time: 00 hr 15 min 23 sec)
Heartbeat CPU 3 instructions: 60000002 cycles: 15502319 heartbeat IPC: 3.819 cumulative IPC: 3.87 (Simulation time: 00 hr 15 min 31 sec)
Heartbeat CPU 0 instructions: 40000000 cycles: 16702721 heartbeat IPC: 2.389 cumulative IPC: 2.395 (Simulation time: 00 hr 16 min 44 sec)
Heartbeat CPU 1 instructions: 70000003 cycles: 17559939 heartbeat IPC: 3.99 cumulative IPC: 3.986 (Simulation time: 00 hr 17 min 35 sec)
Heartbeat CPU 3 instructions: 70000000 cycles: 18080691 heartbeat IPC: 3.878 cumulative IPC: 3.872 (Simulation time: 00 hr 18 min 06 sec)
Heartbeat CPU 2 instructions: 60000003 cycles: 18083035 heartbeat IPC: 3.692 cumulative IPC: 3.318 (Simulation time: 00 hr 18 min 06 sec)
Heartbeat CPU 1 instructions: 80000001 cycles: 20066563 heartbeat IPC: 3.989 cumulative IPC: 3.987 (Simulation time: 00 hr 20 min 09 sec)
Heartbeat CPU 3 instructions: 80000004 cycles: 20641193 heartbeat IPC: 3.905 cumulative IPC: 3.876 (Simulation time: 00 hr 20 min 44 sec)
Heartbeat CPU 2 instructions: 70000000 cycles: 20810268 heartbeat IPC: 3.667 cumulative IPC: 3.364 (Simulation time: 00 hr 20 min 54 sec)
Heartbeat CPU 0 instructions: 50000003 cycles: 20870064 heartbeat IPC: 2.4 cumulative IPC: 2.396 (Simulation time: 00 hr 20 min 58 sec)
Warmup finished CPU 0 instructions: 50000003 cycles: 20870065 cumulative IPC: 2.396 (Simulation time: 00 hr 20 min 58 sec)
Warmup complete CPU 0 instructions: 50000003 cycles: 20870065 cumulative IPC: 2.396 (Simulation time: 00 hr 20 min 58 sec)
Warmup complete CPU 1 instructions: 83214005 cycles: 20870065 cumulative IPC: 3.987 (Simulation time: 00 hr 20 min 58 sec)
Warmup complete CPU 2 instructions: 70204041 cycles: 20870065 cumulative IPC: 3.364 (Simulation time: 00 hr 20 min 58 sec)
Warmup complete CPU 3 instructions: 80835691 cycles: 20870065 cumulative IPC: 3.873 (Simulation time: 00 hr 20 min 58 sec)
Heartbeat CPU 1 instructions: 90000001 cycles: 23171622 heartbeat IPC: 3.221 cumulative IPC: 2.948 (Simulation time: 00 hr 22 min 31 sec)
Heartbeat CPU 3 instructions: 90000003 cycles: 24538417 heartbeat IPC: 2.566 cumulative IPC: 2.498 (Simulation time: 00 hr 23 min 29 sec)
Heartbeat CPU 1 instructions: 100000004 cycles: 26574560 heartbeat IPC: 2.939 cumulative IPC: 2.943 (Simulation time: 00 hr 24 min 48 sec)
Heartbeat CPU 2 instructions: 80000001 cycles: 28543496 heartbeat IPC: 1.293 cumulative IPC: 1.277 (Simulation time: 00 hr 26 min 00 sec)
Heartbeat CPU 1 instructions: 110000001 cycles: 29972227 heartbeat IPC: 2.943 cumulative IPC: 2.943 (Simulation time: 00 hr 26 min 55 sec)
Heartbeat CPU 3 instructions: 100000001 cycles: 33317424 heartbeat IPC: 1.139 cumulative IPC: 1.54 (Simulation time: 00 hr 28 min 58 sec)
Heartbeat CPU 1 instructions: 120000002 cycles: 33421630 heartbeat IPC: 2.899 cumulative IPC: 2.931 (Simulation time: 00 hr 29 min 02 sec)
Heartbeat CPU 1 instructions: 130000003 cycles: 36855227 heartbeat IPC: 2.912 cumulative IPC: 2.927 (Simulation time: 00 hr 30 min 46 sec)
Heartbeat CPU 2 instructions: 90000001 cycles: 37642299 heartbeat IPC: 1.099 cumulative IPC: 1.18 (Simulation time: 00 hr 31 min 10 sec)
Heartbeat CPU 1 instructions: 140000003 cycles: 40458623 heartbeat IPC: 2.775 cumulative IPC: 2.899 (Simulation time: 00 hr 32 min 26 sec)
Heartbeat CPU 1 instructions: 150000003 cycles: 44106441 heartbeat IPC: 2.741 cumulative IPC: 2.874 (Simulation time: 00 hr 33 min 58 sec)
Heartbeat CPU 1 instructions: 160000001 cycles: 47499621 heartbeat IPC: 2.947 cumulative IPC: 2.883 (Simulation time: 00 hr 35 min 30 sec)
Heartbeat CPU 1 instructions: 170000002 cycles: 50983018 heartbeat IPC: 2.871 cumulative IPC: 2.882 (Simulation time: 00 hr 37 min 11 sec)
Heartbeat CPU 1 instructions: 180000003 cycles: 54763351 heartbeat IPC: 2.645 cumulative IPC: 2.856 (Simulation time: 00 hr 38 min 59 sec)
Heartbeat CPU 1 instructions: 190000001 cycles: 58542280 heartbeat IPC: 2.646 cumulative IPC: 2.835 (Simulation time: 00 hr 40 min 35 sec)
Heartbeat CPU 1 instructions: 200000004 cycles: 62272626 heartbeat IPC: 2.681 cumulative IPC: 2.821 (Simulation time: 00 hr 42 min 21 sec)
Heartbeat CPU 2 instructions: 100000002 cycles: 63896292 heartbeat IPC: 0.3809 cumulative IPC: 0.6925 (Simulation time: 00 hr 43 min 09 sec)
Heartbeat CPU 1 instructions: 210000004 cycles: 65826207 heartbeat IPC: 2.814 cumulative IPC: 2.82 (Simulation time: 00 hr 44 min 05 sec)
Heartbeat CPU 1 instructions: 220000001 cycles: 69632575 heartbeat IPC: 2.627 cumulative IPC: 2.805 (Simulation time: 00 hr 45 min 55 sec)
Heartbeat CPU 1 instructions: 230000000 cycles: 73105100 heartbeat IPC: 2.88 cumulative IPC: 2.81 (Simulation time: 00 hr 47 min 53 sec)
Heartbeat CPU 3 instructions: 110000001 cycles: 73773823 heartbeat IPC: 0.2472 cumulative IPC: 0.5513 (Simulation time: 00 hr 48 min 20 sec)
Simulation finished CPU 1 instructions: 150000004 cycles: 53344164 cumulative IPC: 2.812 (Simulation time: 00 hr 48 min 39 sec)
Heartbeat CPU 2 instructions: 110000004 cycles: 74691063 heartbeat IPC: 0.9264 cumulative IPC: 0.7394 (Simulation time: 00 hr 48 min 57 sec)
Heartbeat CPU 1 instructions: 240000004 cycles: 76585903 heartbeat IPC: 2.873 cumulative IPC: 2.814 (Simulation time: 00 hr 50 min 07 sec)
Heartbeat CPU 3 instructions: 120000003 cycles: 78204365 heartbeat IPC: 2.257 cumulative IPC: 0.6831 (Simulation time: 00 hr 51 min 15 sec)
Heartbeat CPU 0 instructions: 60000000 cycles: 78663599 heartbeat IPC: 0.173 cumulative IPC: 0.173 (Simulation time: 00 hr 51 min 34 sec)
Heartbeat CPU 1 instructions: 250000004 cycles: 80021331 heartbeat IPC: 2.911 cumulative IPC: 2.82 (Simulation time: 00 hr 52 min 30 sec)
Heartbeat CPU 3 instructions: 130000001 cycles: 81815818 heartbeat IPC: 2.769 cumulative IPC: 0.8067 (Simulation time: 00 hr 53 min 42 sec)
Heartbeat CPU 2 instructions: 120000000 cycles: 81964788 heartbeat IPC: 1.375 cumulative IPC: 0.8151 (Simulation time: 00 hr 53 min 49 sec)
Heartbeat CPU 1 instructions: 260000002 cycles: 83465535 heartbeat IPC: 2.903 cumulative IPC: 2.824 (Simulation time: 00 hr 54 min 49 sec)
Heartbeat CPU 3 instructions: 140000000 cycles: 85377992 heartbeat IPC: 2.807 cumulative IPC: 0.9172 (Simulation time: 00 hr 56 min 06 sec)
Heartbeat CPU 1 instructions: 270000004 cycles: 86848665 heartbeat IPC: 2.956 cumulative IPC: 2.831 (Simulation time: 00 hr 57 min 11 sec)
Heartbeat CPU 2 instructions: 130000001 cycles: 87641963 heartbeat IPC: 1.761 cumulative IPC: 0.8955 (Simulation time: 00 hr 57 min 45 sec)
Heartbeat CPU 3 instructions: 150000000 cycles: 90011645 heartbeat IPC: 2.158 cumulative IPC: 1 (Simulation time: 00 hr 59 min 25 sec)
Heartbeat CPU 1 instructions: 280000004 cycles: 90229662 heartbeat IPC: 2.958 cumulative IPC: 2.837 (Simulation time: 00 hr 59 min 34 sec)
Heartbeat CPU 2 instructions: 140000000 cycles: 93286556 heartbeat IPC: 1.772 cumulative IPC: 0.9638 (Simulation time: 01 hr 01 min 37 sec)
Heartbeat CPU 1 instructions: 290000003 cycles: 93642017 heartbeat IPC: 2.931 cumulative IPC: 2.842 (Simulation time: 01 hr 01 min 51 sec)
Heartbeat CPU 3 instructions: 160000000 cycles: 95028811 heartbeat IPC: 1.993 cumulative IPC: 1.067 (Simulation time: 01 hr 02 min 42 sec)
Heartbeat CPU 1 instructions: 300000000 cycles: 97043614 heartbeat IPC: 2.94 cumulative IPC: 2.846 (Simulation time: 01 hr 03 min 59 sec)
Heartbeat CPU 3 instructions: 170000000 cycles: 100033196 heartbeat IPC: 1.998 cumulative IPC: 1.126 (Simulation time: 01 hr 06 min 08 sec)
Heartbeat CPU 0 instructions: 70000004 cycles: 100128718 heartbeat IPC: 0.4659 cumulative IPC: 0.2523 (Simulation time: 01 hr 06 min 13 sec)
Heartbeat CPU 1 instructions: 310000002 cycles: 100452512 heartbeat IPC: 2.933 cumulative IPC: 2.85 (Simulation time: 01 hr 06 min 27 sec)
Heartbeat CPU 2 instructions: 150000004 cycles: 100884912 heartbeat IPC: 1.316 cumulative IPC: 0.9973 (Simulation time: 01 hr 06 min 47 sec)
Heartbeat CPU 1 instructions: 320000001 cycles: 103861324 heartbeat IPC: 2.934 cumulative IPC: 2.853 (Simulation time: 01 hr 09 min 01 sec)
Heartbeat CPU 3 instructions: 180000001 cycles: 104519529 heartbeat IPC: 2.229 cumulative IPC: 1.185 (Simulation time: 01 hr 09 min 35 sec)
Heartbeat CPU 2 instructions: 160000002 cycles: 107191967 heartbeat IPC: 1.586 cumulative IPC: 1.04 (Simulation time: 01 hr 11 min 37 sec)
Heartbeat CPU 1 instructions: 330000001 cycles: 107271898 heartbeat IPC: 2.932 cumulative IPC: 2.856 (Simulation time: 01 hr 11 min 40 sec)
Heartbeat CPU 3 instructions: 190000002 cycles: 108753656 heartbeat IPC: 2.362 cumulative IPC: 1.242 (Simulation time: 01 hr 12 min 48 sec)
Heartbeat CPU 1 instructions: 340000004 cycles: 110718841 heartbeat IPC: 2.901 cumulative IPC: 2.858 (Simulation time: 01 hr 14 min 20 sec)
Heartbeat CPU 2 instructions: 170000004 cycles: 113669501 heartbeat IPC: 1.544 cumulative IPC: 1.075 (Simulation time: 01 hr 16 min 42 sec)
Heartbeat CPU 1 instructions: 350000001 cycles: 114156735 heartbeat IPC: 2.909 cumulative IPC: 2.86 (Simulation time: 01 hr 16 min 59 sec)
Heartbeat CPU 3 instructions: 200000004 cycles: 115949119 heartbeat IPC: 1.39 cumulative IPC: 1.253 (Simulation time: 01 hr 18 min 24 sec)
Heartbeat CPU 1 instructions: 360000001 cycles: 117604260 heartbeat IPC: 2.901 cumulative IPC: 2.861 (Simulation time: 01 hr 19 min 49 sec)
Heartbeat CPU 1 instructions: 370000001 cycles: 121069036 heartbeat IPC: 2.886 cumulative IPC: 2.862 (Simulation time: 01 hr 22 min 29 sec)
Heartbeat CPU 2 instructions: 180000002 cycles: 122056676 heartbeat IPC: 1.192 cumulative IPC: 1.085 (Simulation time: 01 hr 23 min 21 sec)
Heartbeat CPU 1 instructions: 380000001 cycles: 124983075 heartbeat IPC: 2.555 cumulative IPC: 2.851 (Simulation time: 01 hr 25 min 33 sec)
Heartbeat CPU 1 instructions: 390000000 cycles: 128739841 heartbeat IPC: 2.662 cumulative IPC: 2.844 (Simulation time: 01 hr 28 min 17 sec)
Heartbeat CPU 1 instructions: 400000003 cycles: 132195447 heartbeat IPC: 2.894 cumulative IPC: 2.846 (Simulation time: 01 hr 30 min 41 sec)
Heartbeat CPU 2 instructions: 190000001 cycles: 134538493 heartbeat IPC: 0.8012 cumulative IPC: 1.054 (Simulation time: 01 hr 32 min 08 sec)
Heartbeat CPU 1 instructions: 410000004 cycles: 135771931 heartbeat IPC: 2.796 cumulative IPC: 2.844 (Simulation time: 01 hr 32 min 52 sec)
Heartbeat CPU 1 instructions: 420000001 cycles: 139191607 heartbeat IPC: 2.924 cumulative IPC: 2.846 (Simulation time: 01 hr 34 min 44 sec)
Heartbeat CPU 1 instructions: 430000003 cycles: 143400831 heartbeat IPC: 2.376 cumulative IPC: 2.83 (Simulation time: 01 hr 36 min 56 sec)
Heartbeat CPU 0 instructions: 80000002 cycles: 146836001 heartbeat IPC: 0.2141 cumulative IPC: 0.2382 (Simulation time: 01 hr 38 min 43 sec)
Heartbeat CPU 2 instructions: 200000002 cycles: 146908296 heartbeat IPC: 0.8084 cumulative IPC: 1.03 (Simulation time: 01 hr 38 min 46 sec)
Heartbeat CPU 1 instructions: 440000000 cycles: 147195873 heartbeat IPC: 2.635 cumulative IPC: 2.824 (Simulation time: 01 hr 38 min 55 sec)
Heartbeat CPU 1 instructions: 450000001 cycles: 152195138 heartbeat IPC: 2 cumulative IPC: 2.793 (Simulation time: 01 hr 41 min 25 sec)
Heartbeat CPU 1 instructions: 460000000 cycles: 155594028 heartbeat IPC: 2.942 cumulative IPC: 2.797 (Simulation time: 01 hr 43 min 19 sec)
Heartbeat CPU 2 instructions: 210000001 cycles: 158738124 heartbeat IPC: 0.8453 cumulative IPC: 1.014 (Simulation time: 01 hr 45 min 09 sec)
Heartbeat CPU 1 instructions: 470000002 cycles: 159059713 heartbeat IPC: 2.885 cumulative IPC: 2.799 (Simulation time: 01 hr 45 min 24 sec)
Heartbeat CPU 3 instructions: 210000003 cycles: 160623057 heartbeat IPC: 0.2238 cumulative IPC: 0.9242 (Simulation time: 01 hr 46 min 42 sec)
Heartbeat CPU 1 instructions: 480000001 cycles: 162452402 heartbeat IPC: 2.948 cumulative IPC: 2.803 (Simulation time: 01 hr 48 min 00 sec)
Heartbeat CPU 3 instructions: 220000001 cycles: 165061085 heartbeat IPC: 2.253 cumulative IPC: 0.9651 (Simulation time: 01 hr 50 min 04 sec)
Heartbeat CPU 3 instructions: 230000001 cycles: 169003876 heartbeat IPC: 2.536 cumulative IPC: 1.007 (Simulation time: 01 hr 52 min 10 sec)
Simulation finished CPU 3 instructions: 150000002 cycles: 148487072 cumulative IPC: 1.01 (Simulation time: 01 hr 52 min 20 sec)
Heartbeat CPU 3 instructions: 240000000 cycles: 173052449 heartbeat IPC: 2.47 cumulative IPC: 1.046 (Simulation time: 01 hr 54 min 55 sec)
Heartbeat CPU 2 instructions: 220000000 cycles: 173077155 heartbeat IPC: 0.6974 cumulative IPC: 0.9842 (Simulation time: 01 hr 54 min 56 sec)
Simulation finished CPU 2 instructions: 150000001 cycles: 152483791 cumulative IPC: 0.9837 (Simulation time: 01 hr 55 min 05 sec)
Heartbeat CPU 3 instructions: 250000004 cycles: 178882531 heartbeat IPC: 1.715 cumulative IPC: 1.071 (Simulation time: 01 hr 58 min 46 sec)
Heartbeat CPU 1 instructions: 490000001 cycles: 184407508 heartbeat IPC: 0.4555 cumulative IPC: 2.487 (Simulation time: 02 hr 02 min 14 sec)
Heartbeat CPU 2 instructions: 230000000 cycles: 184582271 heartbeat IPC: 0.8692 cumulative IPC: 0.9761 (Simulation time: 02 hr 02 min 21 sec)
Heartbeat CPU 3 instructions: 260000000 cycles: 185489737 heartbeat IPC: 1.513 cumulative IPC: 1.088 (Simulation time: 02 hr 03 min 04 sec)
Heartbeat CPU 1 instructions: 500000003 cycles: 188580998 heartbeat IPC: 2.396 cumulative IPC: 2.485 (Simulation time: 02 hr 05 min 31 sec)
Heartbeat CPU 3 instructions: 270000000 cycles: 190805304 heartbeat IPC: 1.881 cumulative IPC: 1.113 (Simulation time: 02 hr 07 min 06 sec)
Heartbeat CPU 2 instructions: 240000001 cycles: 191648088 heartbeat IPC: 1.415 cumulative IPC: 0.9942 (Simulation time: 02 hr 07 min 38 sec)
Heartbeat CPU 1 instructions: 510000001 cycles: 192748716 heartbeat IPC: 2.399 cumulative IPC: 2.483 (Simulation time: 02 hr 08 min 21 sec)
Heartbeat CPU 3 instructions: 280000001 cycles: 195762494 heartbeat IPC: 2.017 cumulative IPC: 1.139 (Simulation time: 02 hr 10 min 20 sec)
Heartbeat CPU 1 instructions: 520000003 cycles: 196958016 heartbeat IPC: 2.376 cumulative IPC: 2.48 (Simulation time: 02 hr 11 min 04 sec)
Heartbeat CPU 2 instructions: 250000001 cycles: 198895026 heartbeat IPC: 1.38 cumulative IPC: 1.01 (Simulation time: 02 hr 12 min 19 sec)
Heartbeat CPU 3 instructions: 290000003 cycles: 200987908 heartbeat IPC: 1.914 cumulative IPC: 1.161 (Simulation time: 02 hr 13 min 38 sec)
Heartbeat CPU 1 instructions: 530000000 cycles: 201141065 heartbeat IPC: 2.391 cumulative IPC: 2.478 (Simulation time: 02 hr 13 min 44 sec)
Heartbeat CPU 0 instructions: 90000001 cycles: 202182326 heartbeat IPC: 0.1807 cumulative IPC: 0.2206 (Simulation time: 02 hr 14 min 26 sec)
Heartbeat CPU 1 instructions: 540000004 cycles: 205381265 heartbeat IPC: 2.358 cumulative IPC: 2.476 (Simulation time: 02 hr 16 min 29 sec)
Heartbeat CPU 2 instructions: 260000000 cycles: 205934956 heartbeat IPC: 1.42 cumulative IPC: 1.026 (Simulation time: 02 hr 16 min 50 sec)
Heartbeat CPU 3 instructions: 300000002 cycles: 207557469 heartbeat IPC: 1.522 cumulative IPC: 1.174 (Simulation time: 02 hr 17 min 43 sec)
Heartbeat CPU 1 instructions: 550000001 cycles: 209546249 heartbeat IPC: 2.401 cumulative IPC: 2.474 (Simulation time: 02 hr 19 min 02 sec)
Heartbeat CPU 2 instructions: 270000000 cycles: 211953585 heartbeat IPC: 1.662 cumulative IPC: 1.046 (Simulation time: 02 hr 20 min 32 sec)
Heartbeat CPU 1 instructions: 560000000 cycles: 217316053 heartbeat IPC: 1.287 cumulative IPC: 2.427 (Simulation time: 02 hr 23 min 05 sec)
Heartbeat CPU 2 instructions: 280000000 cycles: 221937161 heartbeat IPC: 1.002 cumulative IPC: 1.043 (Simulation time: 02 hr 24 min 57 sec)
Heartbeat CPU 2 instructions: 290000003 cycles: 239610129 heartbeat IPC: 0.5658 cumulative IPC: 1.005 (Simulation time: 02 hr 31 min 51 sec)
Heartbeat CPU 1 instructions: 570000001 cycles: 252556057 heartbeat IPC: 0.2838 cumulative IPC: 2.101 (Simulation time: 02 hr 36 min 59 sec)
Heartbeat CPU 1 instructions: 580000002 cycles: 258214549 heartbeat IPC: 1.767 cumulative IPC: 2.093 (Simulation time: 02 hr 39 min 15 sec)
Heartbeat CPU 1 instructions: 590000004 cycles: 263937502 heartbeat IPC: 1.747 cumulative IPC: 2.085 (Simulation time: 02 hr 41 min 48 sec)
Heartbeat CPU 3 instructions: 310000000 cycles: 265999384 heartbeat IPC: 0.1711 cumulative IPC: 0.9349 (Simulation time: 02 hr 42 min 47 sec)
Heartbeat CPU 1 instructions: 600000001 cycles: 268958076 heartbeat IPC: 1.992 cumulative IPC: 2.083 (Simulation time: 02 hr 44 min 25 sec)
Heartbeat CPU 2 instructions: 300000001 cycles: 269296999 heartbeat IPC: 0.3368 cumulative IPC: 0.925 (Simulation time: 02 hr 44 min 40 sec)
Heartbeat CPU 3 instructions: 320000004 cycles: 271963613 heartbeat IPC: 1.677 cumulative IPC: 0.9525 (Simulation time: 02 hr 46 min 18 sec)
Heartbeat CPU 1 instructions: 610000002 cycles: 273267452 heartbeat IPC: 2.321 cumulative IPC: 2.087 (Simulation time: 02 hr 47 min 10 sec)
Heartbeat CPU 3 instructions: 330000002 cycles: 275587314 heartbeat IPC: 2.76 cumulative IPC: 0.9782 (Simulation time: 02 hr 48 min 44 sec)
Heartbeat CPU 2 instructions: 310000001 cycles: 277035838 heartbeat IPC: 1.292 cumulative IPC: 0.9361 (Simulation time: 02 hr 49 min 43 sec)
Heartbeat CPU 1 instructions: 620000002 cycles: 277433414 heartbeat IPC: 2.4 cumulative IPC: 2.092 (Simulation time: 02 hr 50 min 00 sec)
Heartbeat CPU 3 instructions: 340000004 cycles: 279121614 heartbeat IPC: 2.829 cumulative IPC: 1.004 (Simulation time: 02 hr 51 min 18 sec)
Heartbeat CPU 1 instructions: 630000004 cycles: 281520863 heartbeat IPC: 2.447 cumulative IPC: 2.098 (Simulation time: 02 hr 52 min 52 sec)
Heartbeat CPU 0 instructions: 100000000 cycles: 282667169 heartbeat IPC: 0.1242 cumulative IPC: 0.191 (Simulation time: 02 hr 53 min 36 sec)
Heartbeat CPU 3 instructions: 350000004 cycles: 283086767 heartbeat IPC: 2.522 cumulative IPC: 1.026 (Simulation time: 02 hr 53 min 54 sec)
Heartbeat CPU 2 instructions: 320000001 cycles: 284797490 heartbeat IPC: 1.288 cumulative IPC: 0.9465 (Simulation time: 02 hr 54 min 46 sec)
Heartbeat CPU 3 instructions: 360000001 cycles: 288879048 heartbeat IPC: 1.726 cumulative IPC: 1.042 (Simulation time: 02 hr 56 min 41 sec)
Heartbeat CPU 3 instructions: 370000001 cycles: 295479885 heartbeat IPC: 1.515 cumulative IPC: 1.053 (Simulation time: 03 hr 00 min 00 sec)
Heartbeat CPU 2 instructions: 330000000 cycles: 297313191 heartbeat IPC: 0.799 cumulative IPC: 0.9398 (Simulation time: 03 hr 00 min 56 sec)
Heartbeat CPU 3 instructions: 380000002 cycles: 302225461 heartbeat IPC: 1.482 cumulative IPC: 1.063 (Simulation time: 03 hr 03 min 30 sec)
Heartbeat CPU 1 instructions: 640000004 cycles: 302868486 heartbeat IPC: 0.4684 cumulative IPC: 1.974 (Simulation time: 03 hr 03 min 56 sec)
Heartbeat CPU 2 instructions: 340000000 cycles: 306353224 heartbeat IPC: 1.106 cumulative IPC: 0.9451 (Simulation time: 03 hr 06 min 08 sec)
Heartbeat CPU 1 instructions: 650000001 cycles: 307134791 heartbeat IPC: 2.344 cumulative IPC: 1.98 (Simulation time: 03 hr 06 min 41 sec)
Heartbeat CPU 3 instructions: 390000000 cycles: 307669233 heartbeat IPC: 1.837 cumulative IPC: 1.078 (Simulation time: 03 hr 07 min 03 sec)
Heartbeat CPU 1 instructions: 660000003 cycles: 311295673 heartbeat IPC: 2.403 cumulative IPC: 1.986 (Simulation time: 03 hr 09 min 28 sec)
Heartbeat CPU 3 instructions: 400000001 cycles: 311936052 heartbeat IPC: 2.344 cumulative IPC: 1.097 (Simulation time: 03 hr 09 min 53 sec)
Heartbeat CPU 2 instructions: 350000003 cycles: 313537905 heartbeat IPC: 1.392 cumulative IPC: 0.956 (Simulation time: 03 hr 10 min 53 sec)
Heartbeat CPU 1 instructions: 670000002 cycles: 315629036 heartbeat IPC: 2.308 cumulative IPC: 1.991 (Simulation time: 03 hr 12 min 08 sec)
Heartbeat CPU 1 instructions: 680000004 cycles: 320023477 heartbeat IPC: 2.276 cumulative IPC: 1.995 (Simulation time: 03 hr 14 min 49 sec)
Heartbeat CPU 2 instructions: 360000001 cycles: 321515449 heartbeat IPC: 1.254 cumulative IPC: 0.9639 (Simulation time: 03 hr 15 min 40 sec)
Heartbeat CPU 1 instructions: 690000001 cycles: 324688301 heartbeat IPC: 2.144 cumulative IPC: 1.997 (Simulation time: 03 hr 17 min 26 sec)
Heartbeat CPU 1 instructions: 700000000 cycles: 329838391 heartbeat IPC: 1.942 cumulative IPC: 1.996 (Simulation time: 03 hr 20 min 46 sec)
Heartbeat CPU 3 instructions: 410000000 cycles: 330232849 heartbeat IPC: 0.5465 cumulative IPC: 1.064 (Simulation time: 03 hr 21 min 02 sec)
Heartbeat CPU 2 instructions: 370000000 cycles: 332718164 heartbeat IPC: 0.8926 cumulative IPC: 0.9614 (Simulation time: 03 hr 22 min 21 sec)
Heartbeat CPU 2 instructions: 380000001 cycles: 349417382 heartbeat IPC: 0.5988 cumulative IPC: 0.9429 (Simulation time: 03 hr 30 min 19 sec)
Heartbeat CPU 2 instructions: 390000000 cycles: 361878249 heartbeat IPC: 0.8025 cumulative IPC: 0.9378 (Simulation time: 03 hr 37 min 05 sec)
Heartbeat CPU 1 instructions: 710000002 cycles: 364714040 heartbeat IPC: 0.2867 cumulative IPC: 1.823 (Simulation time: 03 hr 38 min 34 sec)
Heartbeat CPU 2 instructions: 400000000 cycles: 374955546 heartbeat IPC: 0.7647 cumulative IPC: 0.9314 (Simulation time: 03 hr 43 min 55 sec)
Heartbeat CPU 1 instructions: 720000002 cycles: 377677082 heartbeat IPC: 0.7714 cumulative IPC: 1.785 (Simulation time: 03 hr 45 min 16 sec)
Heartbeat CPU 0 instructions: 110000004 cycles: 380750445 heartbeat IPC: 0.102 cumulative IPC: 0.1667 (Simulation time: 03 hr 47 min 13 sec)
Heartbeat CPU 3 instructions: 420000002 cycles: 382111740 heartbeat IPC: 0.1928 cumulative IPC: 0.9389 (Simulation time: 03 hr 48 min 30 sec)
Heartbeat CPU 1 instructions: 730000002 cycles: 382305901 heartbeat IPC: 2.16 cumulative IPC: 1.789 (Simulation time: 03 hr 48 min 40 sec)
Heartbeat CPU 2 instructions: 410000001 cycles: 383624307 heartbeat IPC: 1.154 cumulative IPC: 0.9367 (Simulation time: 03 hr 49 min 49 sec)
Heartbeat CPU 3 instructions: 430000000 cycles: 386364739 heartbeat IPC: 2.351 cumulative IPC: 0.9553 (Simulation time: 03 hr 52 min 32 sec)
Heartbeat CPU 1 instructions: 740000003 cycles: 386513800 heartbeat IPC: 2.376 cumulative IPC: 1.796 (Simulation time: 03 hr 52 min 41 sec)
Heartbeat CPU 3 instructions: 440000003 cycles: 390102471 heartbeat IPC: 2.675 cumulative IPC: 0.9727 (Simulation time: 03 hr 56 min 08 sec)
Heartbeat CPU 1 instructions: 750000003 cycles: 390647248 heartbeat IPC: 2.419 cumulative IPC: 1.803 (Simulation time: 03 hr 56 min 39 sec)
Heartbeat CPU 2 instructions: 420000002 cycles: 393013512 heartbeat IPC: 1.065 cumulative IPC: 0.9399 (Simulation time: 03 hr 58 min 40 sec)
Heartbeat CPU 3 instructions: 450000002 cycles: 393930646 heartbeat IPC: 2.612 cumulative IPC: 0.9896 (Simulation time: 03 hr 59 min 28 sec)
Heartbeat CPU 1 instructions: 760000000 cycles: 394809176 heartbeat IPC: 2.403 cumulative IPC: 1.81 (Simulation time: 04 hr 00 min 17 sec)
Heartbeat CPU 3 instructions: 460000001 cycles: 398560980 heartbeat IPC: 2.16 cumulative IPC: 1.004 (Simulation time: 04 hr 02 min 57 sec)
Heartbeat CPU 1 instructions: 770000004 cycles: 398903818 heartbeat IPC: 2.442 cumulative IPC: 1.817 (Simulation time: 04 hr 03 min 09 sec)
Heartbeat CPU 2 instructions: 430000004 cycles: 400446759 heartbeat IPC: 1.345 cumulative IPC: 0.9479 (Simulation time: 04 hr 04 min 09 sec)
Heartbeat CPU 1 instructions: 780000003 cycles: 403032026 heartbeat IPC: 2.422 cumulative IPC: 1.823 (Simulation time: 04 hr 05 min 58 sec)
Heartbeat CPU 3 instructions: 470000004 cycles: 403761419 heartbeat IPC: 1.923 cumulative IPC: 1.016 (Simulation time: 04 hr 06 min 31 sec)
Heartbeat CPU 2 instructions: 440000000 cycles: 408799470 heartbeat IPC: 1.197 cumulative IPC: 0.9533 (Simulation time: 04 hr 09 min 44 sec)
Heartbeat CPU 3 instructions: 480000000 cycles: 410445591 heartbeat IPC: 1.496 cumulative IPC: 1.025 (Simulation time: 04 hr 10 min 32 sec)
Heartbeat CPU 3 instructions: 490000001 cycles: 418330624 heartbeat IPC: 1.268 cumulative IPC: 1.029 (Simulation time: 04 hr 14 min 38 sec)
Heartbeat CPU 2 instructions: 450000001 cycles: 420977137 heartbeat IPC: 0.8212 cumulative IPC: 0.9492 (Simulation time: 04 hr 15 min 54 sec)
Heartbeat CPU 0 instructions: 120000004 cycles: 422561796 heartbeat IPC: 0.2392 cumulative IPC: 0.1743 (Simulation time: 04 hr 17 min 08 sec)
Heartbeat CPU 1 instructions: 790000003 cycles: 422995152 heartbeat IPC: 0.5009 cumulative IPC: 1.758 (Simulation time: 04 hr 17 min 28 sec)
Heartbeat CPU 3 instructions: 500000000 cycles: 423273241 heartbeat IPC: 2.023 cumulative IPC: 1.042 (Simulation time: 04 hr 17 min 41 sec)
Heartbeat CPU 2 instructions: 460000002 cycles: 426513471 heartbeat IPC: 1.806 cumulative IPC: 0.9609 (Simulation time: 04 hr 20 min 12 sec)
Heartbeat CPU 1 instructions: 800000000 cycles: 427169432 heartbeat IPC: 2.396 cumulative IPC: 1.764 (Simulation time: 04 hr 20 min 41 sec)
Heartbeat CPU 1 instructions: 810000003 cycles: 431490942 heartbeat IPC: 2.314 cumulative IPC: 1.77 (Simulation time: 04 hr 23 min 43 sec)
Heartbeat CPU 3 instructions: 510000000 cycles: 432689347 heartbeat IPC: 1.062 cumulative IPC: 1.042 (Simulation time: 04 hr 24 min 28 sec)
Heartbeat CPU 1 instructions: 820000004 cycles: 436002074 heartbeat IPC: 2.217 cumulative IPC: 1.775 (Simulation time: 04 hr 26 min 05 sec)
Heartbeat CPU 1 instructions: 830000003 cycles: 441201057 heartbeat IPC: 1.923 cumulative IPC: 1.777 (Simulation time: 04 hr 28 min 35 sec)
Heartbeat CPU 2 instructions: 470000003 cycles: 442574778 heartbeat IPC: 0.6226 cumulative IPC: 0.948 (Simulation time: 04 hr 29 min 15 sec)
Heartbeat CPU 1 instructions: 840000003 cycles: 446976139 heartbeat IPC: 1.732 cumulative IPC: 1.776 (Simulation time: 04 hr 31 min 22 sec)
Heartbeat CPU 1 instructions: 850000002 cycles: 452740109 heartbeat IPC: 1.735 cumulative IPC: 1.776 (Simulation time: 04 hr 34 min 10 sec)
Heartbeat CPU 2 instructions: 480000000 cycles: 456877751 heartbeat IPC: 0.6992 cumulative IPC: 0.9399 (Simulation time: 04 hr 36 min 02 sec)
Heartbeat CPU 2 instructions: 490000002 cycles: 474779596 heartbeat IPC: 0.5586 cumulative IPC: 0.9248 (Simulation time: 04 hr 42 min 53 sec)
Heartbeat CPU 3 instructions: 520000003 cycles: 491049820 heartbeat IPC: 0.1713 cumulative IPC: 0.934 (Simulation time: 04 hr 49 min 53 sec)
Heartbeat CPU 1 instructions: 860000002 cycles: 492091700 heartbeat IPC: 0.2541 cumulative IPC: 1.648 (Simulation time: 04 hr 50 min 24 sec)
Heartbeat CPU 2 instructions: 500000000 cycles: 495206543 heartbeat IPC: 0.4895 cumulative IPC: 0.9061 (Simulation time: 04 hr 52 min 43 sec)
Heartbeat CPU 3 instructions: 530000003 cycles: 495939576 heartbeat IPC: 2.045 cumulative IPC: 0.9455 (Simulation time: 04 hr 53 min 13 sec)
Heartbeat CPU 1 instructions: 870000001 cycles: 496349100 heartbeat IPC: 2.349 cumulative IPC: 1.655 (Simulation time: 04 hr 53 min 33 sec)
Heartbeat CPU 3 instructions: 540000004 cycles: 499600070 heartbeat IPC: 2.732 cumulative IPC: 0.9591 (Simulation time: 04 hr 55 min 48 sec)
Heartbeat CPU 1 instructions: 880000001 cycles: 500614002 heartbeat IPC: 2.345 cumulative IPC: 1.661 (Simulation time: 04 hr 56 min 34 sec)
Heartbeat CPU 3 instructions: 550000001 cycles: 503500982 heartbeat IPC: 2.564 cumulative IPC: 0.9721 (Simulation time: 04 hr 58 min 30 sec)
Heartbeat CPU 2 instructions: 510000001 cycles: 503938722 heartbeat IPC: 1.145 cumulative IPC: 0.9104 (Simulation time: 04 hr 58 min 47 sec)
Heartbeat CPU 1 instructions: 890000002 cycles: 504838264 heartbeat IPC: 2.367 cumulative IPC: 1.667 (Simulation time: 04 hr 59 min 25 sec)
Heartbeat CPU 0 instructions: 130000002 cycles: 506673058 heartbeat IPC: 0.1189 cumulative IPC: 0.1647 (Simulation time: 05 hr 00 min 37 sec)
Heartbeat CPU 3 instructions: 560000000 cycles: 508225876 heartbeat IPC: 2.116 cumulative IPC: 0.9832 (Simulation time: 05 hr 01 min 38 sec)
Heartbeat CPU 1 instructions: 900000004 cycles: 509175401 heartbeat IPC: 2.306 cumulative IPC: 1.673 (Simulation time: 05 hr 02 min 15 sec)
Heartbeat CPU 2 instructions: 520000000 cycles: 512099028 heartbeat IPC: 1.225 cumulative IPC: 0.9157 (Simulation time: 05 hr 04 min 13 sec)
Heartbeat CPU 1 instructions: 910000004 cycles: 513465959 heartbeat IPC: 2.331 cumulative IPC: 1.678 (Simulation time: 05 hr 05 min 07 sec)
Heartbeat CPU 3 instructions: 570000004 cycles: 513835410 heartbeat IPC: 1.783 cumulative IPC: 0.9923 (Simulation time: 05 hr 05 min 22 sec)
Heartbeat CPU 1 instructions: 920000003 cycles: 517685225 heartbeat IPC: 2.37 cumulative IPC: 1.684 (Simulation time: 05 hr 07 min 55 sec)
Heartbeat CPU 3 instructions: 580000003 cycles: 519398774 heartbeat IPC: 1.797 cumulative IPC: 1.001 (Simulation time: 05 hr 09 min 04 sec)
Heartbeat CPU 2 instructions: 530000001 cycles: 519702305 heartbeat IPC: 1.315 cumulative IPC: 0.9217 (Simulation time: 05 hr 09 min 18 sec)
Heartbeat CPU 1 instructions: 930000000 cycles: 521868568 heartbeat IPC: 2.39 cumulative IPC: 1.69 (Simulation time: 05 hr 10 min 48 sec)
Heartbeat CPU 3 instructions: 590000000 cycles: 526184086 heartbeat IPC: 1.474 cumulative IPC: 1.008 (Simulation time: 05 hr 12 min 51 sec)
Heartbeat CPU 2 instructions: 540000000 cycles: 529050305 heartbeat IPC: 1.07 cumulative IPC: 0.9245 (Simulation time: 05 hr 14 min 13 sec)
Heartbeat CPU 3 instructions: 600000003 cycles: 531697811 heartbeat IPC: 1.814 cumulative IPC: 1.016 (Simulation time: 05 hr 15 min 45 sec)
Heartbeat CPU 2 instructions: 550000004 cycles: 540291972 heartbeat IPC: 0.8895 cumulative IPC: 0.9237 (Simulation time: 05 hr 19 min 47 sec)
Heartbeat CPU 1 instructions: 940000000 cycles: 544438583 heartbeat IPC: 0.4431 cumulative IPC: 1.636 (Simulation time: 05 hr 22 min 02 sec)
Heartbeat CPU 3 instructions: 610000004 cycles: 548547497 heartbeat IPC: 0.5935 cumulative IPC: 1.003 (Simulation time: 05 hr 24 min 25 sec)
Heartbeat CPU 2 instructions: 560000001 cycles: 548860777 heartbeat IPC: 1.167 cumulative IPC: 0.9277 (Simulation time: 05 hr 24 min 36 sec)
Heartbeat CPU 1 instructions: 950000002 cycles: 549004577 heartbeat IPC: 2.19 cumulative IPC: 1.641 (Simulation time: 05 hr 24 min 40 sec)
Heartbeat CPU 1 instructions: 960000000 cycles: 554027232 heartbeat IPC: 1.991 cumulative IPC: 1.645 (Simulation time: 05 hr 27 min 18 sec)
Heartbeat CPU 2 instructions: 570000004 cycles: 556756372 heartbeat IPC: 1.267 cumulative IPC: 0.9327 (Simulation time: 05 hr 28 min 40 sec)
Heartbeat CPU 1 instructions: 970000000 cycles: 559370321 heartbeat IPC: 1.872 cumulative IPC: 1.647 (Simulation time: 05 hr 29 min 58 sec)
Heartbeat CPU 1 instructions: 980000002 cycles: 564973678 heartbeat IPC: 1.785 cumulative IPC: 1.648 (Simulation time: 05 hr 32 min 45 sec)
Heartbeat CPU 2 instructions: 580000000 cycles: 566483226 heartbeat IPC: 1.028 cumulative IPC: 0.9344 (Simulation time: 05 hr 33 min 28 sec)
Heartbeat CPU 1 instructions: 990000004 cycles: 570586858 heartbeat IPC: 1.782 cumulative IPC: 1.65 (Simulation time: 05 hr 35 min 26 sec)
Heartbeat CPU 1 instructions: 1000000003 cycles: 576081267 heartbeat IPC: 1.82 cumulative IPC: 1.651 (Simulation time: 05 hr 38 min 02 sec)
Heartbeat CPU 2 instructions: 590000001 cycles: 577400213 heartbeat IPC: 0.916 cumulative IPC: 0.934 (Simulation time: 05 hr 38 min 42 sec)
Heartbeat CPU 2 instructions: 600000000 cycles: 591191961 heartbeat IPC: 0.7251 cumulative IPC: 0.9289 (Simulation time: 05 hr 44 min 11 sec)
Heartbeat CPU 3 instructions: 620000003 cycles: 603067164 heartbeat IPC: 0.1834 cumulative IPC: 0.9261 (Simulation time: 05 hr 49 min 15 sec)
Heartbeat CPU 0 instructions: 140000001 cycles: 604557492 heartbeat IPC: 0.1022 cumulative IPC: 0.1542 (Simulation time: 05 hr 49 min 56 sec)
Heartbeat CPU 2 instructions: 610000000 cycles: 605744968 heartbeat IPC: 0.6871 cumulative IPC: 0.9229 (Simulation time: 05 hr 50 min 28 sec)
Heartbeat CPU 1 instructions: 1010000003 cycles: 609244355 heartbeat IPC: 0.3015 cumulative IPC: 1.575 (Simulation time: 05 hr 52 min 25 sec)
Heartbeat CPU 3 instructions: 630000002 cycles: 609345530 heartbeat IPC: 1.593 cumulative IPC: 0.9332 (Simulation time: 05 hr 52 min 30 sec)
Heartbeat CPU 3 instructions: 640000004 cycles: 612918579 heartbeat IPC: 2.799 cumulative IPC: 0.9445 (Simulation time: 05 hr 54 min 47 sec)
Heartbeat CPU 1 instructions: 1020000000 cycles: 613359856 heartbeat IPC: 2.43 cumulative IPC: 1.581 (Simulation time: 05 hr 55 min 03 sec)
Heartbeat CPU 2 instructions: 620000000 cycles: 615620533 heartbeat IPC: 1.013 cumulative IPC: 0.9244 (Simulation time: 05 hr 56 min 33 sec)
Heartbeat CPU 3 instructions: 650000000 cycles: 616929973 heartbeat IPC: 2.493 cumulative IPC: 0.9549 (Simulation time: 05 hr 57 min 25 sec)
Heartbeat CPU 1 instructions: 1030000000 cycles: 617418721 heartbeat IPC: 2.464 cumulative IPC: 1.587 (Simulation time: 05 hr 57 min 44 sec)
Heartbeat CPU 1 instructions: 1040000001 cycles: 621433855 heartbeat IPC: 2.491 cumulative IPC: 1.593 (Simulation time: 06 hr 00 min 32 sec)
Heartbeat CPU 3 instructions: 660000001 cycles: 621983398 heartbeat IPC: 1.979 cumulative IPC: 0.9635 (Simulation time: 06 hr 00 min 55 sec)
Heartbeat CPU 2 instructions: 630000002 cycles: 622294861 heartbeat IPC: 1.498 cumulative IPC: 0.9308 (Simulation time: 06 hr 01 min 07 sec)
Heartbeat CPU 1 instructions: 1050000001 cycles: 625452267 heartbeat IPC: 2.489 cumulative IPC: 1.599 (Simulation time: 06 hr 03 min 15 sec)
Heartbeat CPU 3 instructions: 670000000 cycles: 627161380 heartbeat IPC: 1.931 cumulative IPC: 0.9718 (Simulation time: 06 hr 04 min 20 sec)
Heartbeat CPU 2 instructions: 640000002 cycles: 629420935 heartbeat IPC: 1.403 cumulative IPC: 0.9363 (Simulation time: 06 hr 05 min 55 sec)
Heartbeat CPU 1 instructions: 1060000003 cycles: 629520795 heartbeat IPC: 2.458 cumulative IPC: 1.605 (Simulation time: 06 hr 05 min 59 sec)
Heartbeat CPU 3 instructions: 680000000 cycles: 632002814 heartbeat IPC: 2.066 cumulative IPC: 0.9804 (Simulation time: 06 hr 07 min 34 sec)
Heartbeat CPU 0 instructions: 150000003 cycles: 632411879 heartbeat IPC: 0.359 cumulative IPC: 0.1635 (Simulation time: 06 hr 07 min 50 sec)
Heartbeat CPU 1 instructions: 1070000002 cycles: 633710188 heartbeat IPC: 2.387 cumulative IPC: 1.61 (Simulation time: 06 hr 08 min 45 sec)
Heartbeat CPU 3 instructions: 690000001 cycles: 636606711 heartbeat IPC: 2.172 cumulative IPC: 0.9893 (Simulation time: 06 hr 10 min 52 sec)
Heartbeat CPU 2 instructions: 650000000 cycles: 637088255 heartbeat IPC: 1.304 cumulative IPC: 0.9409 (Simulation time: 06 hr 11 min 12 sec)
Heartbeat CPU 1 instructions: 1080000003 cycles: 645460826 heartbeat IPC: 0.851 cumulative IPC: 1.596 (Simulation time: 06 hr 15 min 00 sec)
Heartbeat CPU 2 instructions: 660000004 cycles: 647331257 heartbeat IPC: 0.9763 cumulative IPC: 0.9415 (Simulation time: 06 hr 15 min 50 sec)
Heartbeat CPU 3 instructions: 700000000 cycles: 657198761 heartbeat IPC: 0.4856 cumulative IPC: 0.973 (Simulation time: 06 hr 21 min 30 sec)
Heartbeat CPU 2 instructions: 670000004 cycles: 658078711 heartbeat IPC: 0.9305 cumulative IPC: 0.9413 (Simulation time: 06 hr 22 min 11 sec)
Heartbeat CPU 1 instructions: 1090000001 cycles: 660699142 heartbeat IPC: 0.6562 cumulative IPC: 1.574 (Simulation time: 06 hr 23 min 57 sec)
Heartbeat CPU 1 instructions: 1100000003 cycles: 665941610 heartbeat IPC: 1.907 cumulative IPC: 1.576 (Simulation time: 06 hr 26 min 58 sec)
Heartbeat CPU 1 instructions: 1110000000 cycles: 671584687 heartbeat IPC: 1.772 cumulative IPC: 1.578 (Simulation time: 06 hr 29 min 50 sec)
Heartbeat CPU 2 instructions: 680000004 cycles: 672278133 heartbeat IPC: 0.7043 cumulative IPC: 0.9361 (Simulation time: 06 hr 30 min 15 sec)
Heartbeat CPU 1 instructions: 1120000000 cycles: 677287413 heartbeat IPC: 1.754 cumulative IPC: 1.579 (Simulation time: 06 hr 33 min 21 sec)
Heartbeat CPU 2 instructions: 690000000 cycles: 682637315 heartbeat IPC: 0.9653 cumulative IPC: 0.9366 (Simulation time: 06 hr 36 min 24 sec)
Heartbeat CPU 1 instructions: 1130000001 cycles: 682900423 heartbeat IPC: 1.782 cumulative IPC: 1.581 (Simulation time: 06 hr 36 min 34 sec)
Heartbeat CPU 1 instructions: 1140000001 cycles: 688371045 heartbeat IPC: 1.828 cumulative IPC: 1.583 (Simulation time: 06 hr 40 min 11 sec)
Heartbeat CPU 1 instructions: 1150000002 cycles: 693981516 heartbeat IPC: 1.782 cumulative IPC: 1.585 (Simulation time: 06 hr 43 min 40 sec)
Heartbeat CPU 2 instructions: 700000000 cycles: 694342726 heartbeat IPC: 0.8543 cumulative IPC: 0.9351 (Simulation time: 06 hr 43 min 54 sec)
Heartbeat CPU 2 instructions: 710000002 cycles: 710950730 heartbeat IPC: 0.6021 cumulative IPC: 0.9271 (Simulation time: 06 hr 53 min 00 sec)
Heartbeat CPU 3 instructions: 710000000 cycles: 712665669 heartbeat IPC: 0.1803 cumulative IPC: 0.9095 (Simulation time: 06 hr 53 min 59 sec)
Heartbeat CPU 3 instructions: 720000004 cycles: 719664486 heartbeat IPC: 1.429 cumulative IPC: 0.9147 (Simulation time: 06 hr 57 min 31 sec)
Heartbeat CPU 3 instructions: 730000003 cycles: 723594108 heartbeat IPC: 2.545 cumulative IPC: 0.9238 (Simulation time: 06 hr 59 min 40 sec)
Heartbeat CPU 1 instructions: 1160000002 cycles: 724038676 heartbeat IPC: 0.3327 cumulative IPC: 1.531 (Simulation time: 06 hr 59 min 58 sec)
Heartbeat CPU 2 instructions: 720000004 cycles: 726314914 heartbeat IPC: 0.6509 cumulative IPC: 0.9211 (Simulation time: 07 hr 01 min 59 sec)
Heartbeat CPU 3 instructions: 740000002 cycles: 727845289 heartbeat IPC: 2.352 cumulative IPC: 0.9324 (Simulation time: 07 hr 03 min 06 sec)
Heartbeat CPU 1 instructions: 1170000004 cycles: 728077724 heartbeat IPC: 2.476 cumulative IPC: 1.537 (Simulation time: 07 hr 03 min 19 sec)
Heartbeat CPU 0 instructions: 160000002 cycles: 730380876 heartbeat IPC: 0.1021 cumulative IPC: 0.155 (Simulation time: 07 hr 05 min 26 sec)
Heartbeat CPU 1 instructions: 1180000002 cycles: 732176156 heartbeat IPC: 2.44 cumulative IPC: 1.542 (Simulation time: 07 hr 07 min 16 sec)
Heartbeat CPU 3 instructions: 750000003 cycles: 732785396 heartbeat IPC: 2.024 cumulative IPC: 0.9399 (Simulation time: 07 hr 07 min 47 sec)
Heartbeat CPU 2 instructions: 730000000 cycles: 733372279 heartbeat IPC: 1.417 cumulative IPC: 0.926 (Simulation time: 07 hr 08 min 15 sec)
Heartbeat CPU 1 instructions: 1190000000 cycles: 736199874 heartbeat IPC: 2.485 cumulative IPC: 1.547 (Simulation time: 07 hr 10 min 46 sec)
Heartbeat CPU 3 instructions: 760000000 cycles: 737810724 heartbeat IPC: 1.99 cumulative IPC: 0.9473 (Simulation time: 07 hr 12 min 12 sec)
Heartbeat CPU 1 instructions: 1200000000 cycles: 740188831 heartbeat IPC: 2.507 cumulative IPC: 1.553 (Simulation time: 07 hr 14 min 23 sec)
Heartbeat CPU 2 instructions: 740000000 cycles: 740270816 heartbeat IPC: 1.45 cumulative IPC: 0.931 (Simulation time: 07 hr 14 min 28 sec)
Heartbeat CPU 3 instructions: 770000003 cycles: 742544045 heartbeat IPC: 2.113 cumulative IPC: 0.955 (Simulation time: 07 hr 16 min 23 sec)
Heartbeat CPU 1 instructions: 1210000000 cycles: 744237355 heartbeat IPC: 2.47 cumulative IPC: 1.558 (Simulation time: 07 hr 17 min 41 sec)
Heartbeat CPU 3 instructions: 780000001 cycles: 746953408 heartbeat IPC: 2.268 cumulative IPC: 0.9629 (Simulation time: 07 hr 20 min 14 sec)
Heartbeat CPU 2 instructions: 750000002 cycles: 747305641 heartbeat IPC: 1.421 cumulative IPC: 0.9358 (Simulation time: 07 hr 20 min 35 sec)
Heartbeat CPU 1 instructions: 1220000001 cycles: 748193099 heartbeat IPC: 2.528 cumulative IPC: 1.563 (Simulation time: 07 hr 21 min 27 sec)
Heartbeat CPU 0 instructions: 170000001 cycles: 752550014 heartbeat IPC: 0.4511 cumulative IPC: 0.164 (Simulation time: 07 hr 24 min 22 sec)
Heartbeat CPU 2 instructions: 760000000 cycles: 756383354 heartbeat IPC: 1.102 cumulative IPC: 0.9378 (Simulation time: 07 hr 25 min 52 sec)
Heartbeat CPU 3 instructions: 790000003 cycles: 756438069 heartbeat IPC: 1.054 cumulative IPC: 0.9641 (Simulation time: 07 hr 25 min 53 sec)
Heartbeat CPU 1 instructions: 1230000003 cycles: 764566599 heartbeat IPC: 0.6107 cumulative IPC: 1.542 (Simulation time: 07 hr 29 min 37 sec)
Heartbeat CPU 2 instructions: 770000004 cycles: 768558041 heartbeat IPC: 0.8214 cumulative IPC: 0.9359 (Simulation time: 07 hr 31 min 18 sec)
Heartbeat CPU 2 instructions: 780000000 cycles: 783711764 heartbeat IPC: 0.6599 cumulative IPC: 0.9305 (Simulation time: 07 hr 38 min 20 sec)
Heartbeat CPU 2 instructions: 790000000 cycles: 799129186 heartbeat IPC: 0.6486 cumulative IPC: 0.9249 (Simulation time: 07 hr 44 min 37 sec)
Heartbeat CPU 2 instructions: 800000002 cycles: 812482965 heartbeat IPC: 0.7489 cumulative IPC: 0.9219 (Simulation time: 07 hr 51 min 30 sec)
Heartbeat CPU 1 instructions: 1240000003 cycles: 814484730 heartbeat IPC: 0.2003 cumulative IPC: 1.458 (Simulation time: 07 hr 52 min 38 sec)
Heartbeat CPU 3 instructions: 800000000 cycles: 823221887 heartbeat IPC: 0.1497 cumulative IPC: 0.8963 (Simulation time: 07 hr 56 min 59 sec)
Heartbeat CPU 2 instructions: 810000002 cycles: 825672115 heartbeat IPC: 0.7582 cumulative IPC: 0.9192 (Simulation time: 07 hr 58 min 33 sec)
Heartbeat CPU 3 instructions: 810000002 cycles: 829092767 heartbeat IPC: 1.703 cumulative IPC: 0.9022 (Simulation time: 08 hr 00 min 42 sec)
Heartbeat CPU 3 instructions: 820000003 cycles: 832789103 heartbeat IPC: 2.705 cumulative IPC: 0.9104 (Simulation time: 08 hr 03 min 21 sec)
Heartbeat CPU 3 instructions: 830000001 cycles: 838320708 heartbeat IPC: 1.808 cumulative IPC: 0.9165 (Simulation time: 08 hr 07 min 19 sec)
Heartbeat CPU 2 instructions: 820000000 cycles: 838741708 heartbeat IPC: 0.7651 cumulative IPC: 0.9168 (Simulation time: 08 hr 07 min 38 sec)
Heartbeat CPU 1 instructions: 1250000001 cycles: 838897245 heartbeat IPC: 0.4096 cumulative IPC: 1.426 (Simulation time: 08 hr 07 min 45 sec)
Heartbeat CPU 3 instructions: 840000001 cycles: 843597266 heartbeat IPC: 1.895 cumulative IPC: 0.9227 (Simulation time: 08 hr 11 min 04 sec)
Heartbeat CPU 3 instructions: 850000003 cycles: 849526790 heartbeat IPC: 1.686 cumulative IPC: 0.9282 (Simulation time: 08 hr 15 min 05 sec)
Heartbeat CPU 2 instructions: 830000000 cycles: 850707371 heartbeat IPC: 0.8357 cumulative IPC: 0.9156 (Simulation time: 08 hr 15 min 46 sec)
Heartbeat CPU 3 instructions: 860000001 cycles: 855734329 heartbeat IPC: 1.611 cumulative IPC: 0.9333 (Simulation time: 08 hr 18 min 58 sec)
Heartbeat CPU 3 instructions: 870000000 cycles: 862174536 heartbeat IPC: 1.553 cumulative IPC: 0.938 (Simulation time: 08 hr 22 min 56 sec)
Heartbeat CPU 1 instructions: 1260000000 cycles: 864259251 heartbeat IPC: 0.3943 cumulative IPC: 1.395 (Simulation time: 08 hr 24 min 28 sec)
Heartbeat CPU 2 instructions: 840000004 cycles: 866428986 heartbeat IPC: 0.6361 cumulative IPC: 0.9104 (Simulation time: 08 hr 25 min 49 sec)
Heartbeat CPU 3 instructions: 880000000 cycles: 874299664 heartbeat IPC: 0.8247 cumulative IPC: 0.9364 (Simulation time: 08 hr 30 min 47 sec)
Heartbeat CPU 2 instructions: 850000000 cycles: 875781452 heartbeat IPC: 1.069 cumulative IPC: 0.9121 (Simulation time: 08 hr 31 min 45 sec)
Heartbeat CPU 1 instructions: 1270000004 cycles: 883971128 heartbeat IPC: 0.5073 cumulative IPC: 1.375 (Simulation time: 08 hr 36 min 33 sec)
Heartbeat CPU 0 instructions: 180000001 cycles: 884012378 heartbeat IPC: 0.07607 cumulative IPC: 0.1506 (Simulation time: 08 hr 36 min 34 sec)
Heartbeat CPU 2 instructions: 860000000 cycles: 892138165 heartbeat IPC: 0.6114 cumulative IPC: 0.9065 (Simulation time: 08 hr 40 min 38 sec)
Heartbeat CPU 2 instructions: 870000002 cycles: 915532092 heartbeat IPC: 0.4275 cumulative IPC: 0.894 (Simulation time: 08 hr 51 min 36 sec)
Heartbeat CPU 2 instructions: 880000001 cycles: 933367112 heartbeat IPC: 0.5607 cumulative IPC: 0.8875 (Simulation time: 09 hr 00 min 15 sec)
Heartbeat CPU 3 instructions: 890000004 cycles: 940582340 heartbeat IPC: 0.1509 cumulative IPC: 0.8798 (Simulation time: 09 hr 03 min 54 sec)
Heartbeat CPU 1 instructions: 1280000000 cycles: 941710885 heartbeat IPC: 0.1732 cumulative IPC: 1.3 (Simulation time: 09 hr 04 min 40 sec)
Heartbeat CPU 2 instructions: 890000000 cycles: 945886779 heartbeat IPC: 0.7987 cumulative IPC: 0.8862 (Simulation time: 09 hr 07 min 25 sec)
Heartbeat CPU 3 instructions: 900000000 cycles: 946144950 heartbeat IPC: 1.798 cumulative IPC: 0.8853 (Simulation time: 09 hr 07 min 36 sec)
Heartbeat CPU 3 instructions: 910000000 cycles: 950009306 heartbeat IPC: 2.588 cumulative IPC: 0.8924 (Simulation time: 09 hr 10 min 12 sec)
Heartbeat CPU 3 instructions: 920000000 cycles: 953777657 heartbeat IPC: 2.654 cumulative IPC: 0.8995 (Simulation time: 09 hr 12 min 42 sec)
Heartbeat CPU 3 instructions: 930000001 cycles: 959603602 heartbeat IPC: 1.716 cumulative IPC: 0.9046 (Simulation time: 09 hr 16 min 20 sec)
Heartbeat CPU 2 instructions: 900000000 cycles: 961050499 heartbeat IPC: 0.6595 cumulative IPC: 0.8826 (Simulation time: 09 hr 17 min 16 sec)
Heartbeat CPU 1 instructions: 1290000002 cycles: 965370373 heartbeat IPC: 0.4227 cumulative IPC: 1.278 (Simulation time: 09 hr 19 min 35 sec)
Heartbeat CPU 3 instructions: 940000004 cycles: 965520061 heartbeat IPC: 1.69 cumulative IPC: 0.9095 (Simulation time: 09 hr 19 min 39 sec)
Heartbeat CPU 2 instructions: 910000004 cycles: 971142908 heartbeat IPC: 0.9908 cumulative IPC: 0.8837 (Simulation time: 09 hr 23 min 03 sec)
Heartbeat CPU 3 instructions: 950000004 cycles: 972476404 heartbeat IPC: 1.438 cumulative IPC: 0.9134 (Simulation time: 09 hr 23 min 56 sec)
Heartbeat CPU 3 instructions: 960000000 cycles: 979079007 heartbeat IPC: 1.515 cumulative IPC: 0.9175 (Simulation time: 09 hr 28 min 15 sec)
Heartbeat CPU 2 instructions: 920000004 cycles: 980518203 heartbeat IPC: 1.067 cumulative IPC: 0.8855 (Simulation time: 09 hr 29 min 18 sec)
Heartbeat CPU 3 instructions: 970000003 cycles: 983809103 heartbeat IPC: 2.114 cumulative IPC: 0.9234 (Simulation time: 09 hr 31 min 45 sec)
Heartbeat CPU 1 instructions: 1300000002 cycles: 985558879 heartbeat IPC: 0.4953 cumulative IPC: 1.261 (Simulation time: 09 hr 32 min 57 sec)
Heartbeat CPU 2 instructions: 930000004 cycles: 988999666 heartbeat IPC: 1.179 cumulative IPC: 0.8881 (Simulation time: 09 hr 34 min 59 sec)
Heartbeat CPU 3 instructions: 980000001 cycles: 999438211 heartbeat IPC: 0.6398 cumulative IPC: 0.9189 (Simulation time: 09 hr 40 min 20 sec)
Heartbeat CPU 2 instructions: 940000004 cycles: 1003000747 heartbeat IPC: 0.7142 cumulative IPC: 0.8856 (Simulation time: 09 hr 41 min 44 sec)
Heartbeat CPU 1 instructions: 1310000000 cycles: 1011509810 heartbeat IPC: 0.3853 cumulative IPC: 1.238 (Simulation time: 09 hr 45 min 15 sec)
Heartbeat CPU 2 instructions: 950000002 cycles: 1019960304 heartbeat IPC: 0.5896 cumulative IPC: 0.8806 (Simulation time: 09 hr 48 min 43 sec)
Heartbeat CPU 0 instructions: 190000003 cycles: 1022426069 heartbeat IPC: 0.07225 cumulative IPC: 0.1398 (Simulation time: 09 hr 49 min 42 sec)
Heartbeat CPU 2 instructions: 960000000 cycles: 1047408693 heartbeat IPC: 0.3643 cumulative IPC: 0.8668 (Simulation time: 09 hr 59 min 29 sec)
Heartbeat CPU 3 instructions: 990000003 cycles: 1063529565 heartbeat IPC: 0.156 cumulative IPC: 0.872 (Simulation time: 10 hr 06 min 10 sec)
Heartbeat CPU 1 instructions: 1320000004 cycles: 1063973538 heartbeat IPC: 0.1906 cumulative IPC: 1.186 (Simulation time: 10 hr 06 min 24 sec)
Heartbeat CPU 2 instructions: 970000000 cycles: 1064569670 heartbeat IPC: 0.5827 cumulative IPC: 0.8621 (Simulation time: 10 hr 06 min 41 sec)
Heartbeat CPU 3 instructions: 1000000002 cycles: 1070240855 heartbeat IPC: 1.49 cumulative IPC: 0.8759 (Simulation time: 10 hr 09 min 29 sec)
Heartbeat CPU 3 instructions: 1010000000 cycles: 1074180032 heartbeat IPC: 2.539 cumulative IPC: 0.8821 (Simulation time: 10 hr 11 min 41 sec)
Heartbeat CPU 2 instructions: 980000001 cycles: 1075107820 heartbeat IPC: 0.9489 cumulative IPC: 0.863 (Simulation time: 10 hr 12 min 10 sec)
Heartbeat CPU 3 instructions: 1020000001 cycles: 1078586830 heartbeat IPC: 2.269 cumulative IPC: 0.8879 (Simulation time: 10 hr 13 min 59 sec)
Heartbeat CPU 2 instructions: 990000000 cycles: 1085195883 heartbeat IPC: 0.9913 cumulative IPC: 0.8642 (Simulation time: 10 hr 17 min 28 sec)
Heartbeat CPU 3 instructions: 1030000000 cycles: 1085358515 heartbeat IPC: 1.477 cumulative IPC: 0.8917 (Simulation time: 10 hr 17 min 33 sec)
Heartbeat CPU 1 instructions: 1330000003 cycles: 1090439760 heartbeat IPC: 0.3778 cumulative IPC: 1.166 (Simulation time: 10 hr 20 min 32 sec)
Heartbeat CPU 3 instructions: 1040000001 cycles: 1090567461 heartbeat IPC: 1.92 cumulative IPC: 0.8967 (Simulation time: 10 hr 20 min 38 sec)
Heartbeat CPU 2 instructions: 1000000001 cycles: 1093035573 heartbeat IPC: 1.276 cumulative IPC: 0.8672 (Simulation time: 10 hr 22 min 10 sec)
Heartbeat CPU 3 instructions: 1050000003 cycles: 1096344044 heartbeat IPC: 1.731 cumulative IPC: 0.9012 (Simulation time: 10 hr 24 min 07 sec)
Heartbeat CPU 2 instructions: 1010000000 cycles: 1101104109 heartbeat IPC: 1.239 cumulative IPC: 0.87 (Simulation time: 10 hr 26 min 46 sec)
Heartbeat CPU 3 instructions: 1060000002 cycles: 1103030620 heartbeat IPC: 1.496 cumulative IPC: 0.9048 (Simulation time: 10 hr 27 min 51 sec)
Heartbeat CPU 1 instructions: 1340000000 cycles: 1106992242 heartbeat IPC: 0.6041 cumulative IPC: 1.157 (Simulation time: 10 hr 30 min 11 sec)
Heartbeat CPU 3 instructions: 1070000001 cycles: 1108088336 heartbeat IPC: 1.977 cumulative IPC: 0.9098 (Simulation time: 10 hr 30 min 47 sec)
Heartbeat CPU 2 instructions: 1020000001 cycles: 1114672512 heartbeat IPC: 0.737 cumulative IPC: 0.8683 (Simulation time: 10 hr 33 min 37 sec)
Heartbeat CPU 1 instructions: 1350000002 cycles: 1124127601 heartbeat IPC: 0.5836 cumulative IPC: 1.148 (Simulation time: 10 hr 38 min 08 sec)
Heartbeat CPU 2 instructions: 1030000001 cycles: 1125385728 heartbeat IPC: 0.9334 cumulative IPC: 0.869 (Simulation time: 10 hr 38 min 39 sec)
Heartbeat CPU 2 instructions: 1040000001 cycles: 1143972314 heartbeat IPC: 0.538 cumulative IPC: 0.8635 (Simulation time: 10 hr 45 min 57 sec)
Heartbeat CPU 0 instructions: 200000001 cycles: 1155064212 heartbeat IPC: 0.07539 cumulative IPC: 0.1323 (Simulation time: 10 hr 50 min 27 sec)
Simulation finished CPU 0 instructions: 150000003 cycles: 1134194149 cumulative IPC: 0.1323 (Simulation time: 10 hr 50 min 27 sec)
Simulation complete CPU 0 instructions: 150000003 cycles: 1134194149 cumulative IPC: 0.1323 (Simulation time: 10 hr 50 min 27 sec)
Simulation complete CPU 1 instructions: 1270915147 cycles: 1134194149 cumulative IPC: 1.121 (Simulation time: 10 hr 50 min 27 sec)
Simulation complete CPU 2 instructions: 976385226 cycles: 1134194149 cumulative IPC: 0.8609 (Simulation time: 10 hr 50 min 27 sec)
Simulation complete CPU 3 instructions: 998447017 cycles: 1134194149 cumulative IPC: 0.8803 (Simulation time: 10 hr 50 min 27 sec)

ChampSim completed all CPUs

=== Simulation ===
CPU 0 runs /home/das/dpc3_traces/620.omnetpp_s-874B.champsimtrace.xzCPU 1 runs /home/das/dpc3_traces/654.roms_s-842B.champsimtrace.xzCPU 2 runs /home/das/dpc3_traces/623.xalancbmk_s-700B.champsimtrace.xzCPU 3 runs /home/das/dpc3_traces/627.cam4_s-573B.champsimtrace.xz
Total Simulation Statistics (not including warmup)

CPU 0 cumulative IPC: 0.1323 instructions: 150000003 cycles: 1134194149
CPU 0 Branch Prediction Accuracy: 94.9% MPKI: 10.6 Average ROB Occupancy at Mispredict: 83.35
Branch type MPKI
BRANCH_DIRECT_JUMP: 0.923
BRANCH_INDIRECT: 0.128
BRANCH_CONDITIONAL: 8.42
BRANCH_DIRECT_CALL: 0.00016
BRANCH_INDIRECT_CALL: 0.734
BRANCH_RETURN: 0.399


CPU 1 cumulative IPC: 1.121 instructions: 1270915147 cycles: 1134194149
CPU 1 Branch Prediction Accuracy: 90.82% MPKI: 10.86 Average ROB Occupancy at Mispredict: 84.08
Branch type MPKI
BRANCH_DIRECT_JUMP: 0.0491
BRANCH_INDIRECT: 0
BRANCH_CONDITIONAL: 6.31
BRANCH_DIRECT_CALL: 6.29e-06
BRANCH_INDIRECT_CALL: 0
BRANCH_RETURN: 4.51


CPU 2 cumulative IPC: 0.8609 instructions: 976385226 cycles: 1134194149
CPU 2 Branch Prediction Accuracy: 97.23% MPKI: 7.928 Average ROB Occupancy at Mispredict: 41.7
Branch type MPKI
BRANCH_DIRECT_JUMP: 0.109
BRANCH_INDIRECT: 0.34
BRANCH_CONDITIONAL: 5.68
BRANCH_DIRECT_CALL: 0.000273
BRANCH_INDIRECT_CALL: 0.371
BRANCH_RETURN: 1.43


CPU 3 cumulative IPC: 0.8803 instructions: 998447017 cycles: 1134194149
CPU 3 Branch Prediction Accuracy: 94.72% MPKI: 7.107 Average ROB Occupancy at Mispredict: 66.34
Branch type MPKI
BRANCH_DIRECT_JUMP: 0.00542
BRANCH_INDIRECT: 0.00154
BRANCH_CONDITIONAL: 6.46
BRANCH_DIRECT_CALL: 0.0184
BRANCH_INDIRECT_CALL: 0
BRANCH_RETURN: 0.627

LLC TOTAL        ACCESS:    3521017 HIT:    1359119 MISS:    2161898
LLC LOAD         ACCESS:    1684196 HIT:     354987 MISS:    1329209
LLC RFO          ACCESS:     257888 HIT:     104418 MISS:     153470
LLC PREFETCH     ACCESS:      13325 HIT:       1450 MISS:      11875
LLC WRITE        ACCESS:     969338 HIT:     839413 MISS:     129925
LLC TRANSLATION  ACCESS:     596270 HIT:      58851 MISS:     537419
LLC PREFETCH REQUESTED:          0 ISSUED:          0 USEFUL:          0 USELESS:          0
LLC AVERAGE MISS LATENCY: 2796 cycles
LLC TOTAL        ACCESS:    8371612 HIT:    2332073 MISS:    6039539
LLC LOAD         ACCESS:     764060 HIT:     185314 MISS:     578746
LLC RFO          ACCESS:    1964982 HIT:      72028 MISS:    1892954
LLC PREFETCH     ACCESS:    3642073 HIT:     116856 MISS:    3525217
LLC WRITE        ACCESS:    1972568 HIT:    1950032 MISS:      22536
LLC TRANSLATION  ACCESS:      27929 HIT:       7843 MISS:      20086
LLC PREFETCH REQUESTED:          0 ISSUED:          0 USEFUL:          0 USELESS:          0
LLC AVERAGE MISS LATENCY: 2796 cycles
LLC TOTAL        ACCESS:    5542163 HIT:    3694618 MISS:    1847545
LLC LOAD         ACCESS:    2288946 HIT:    1948806 MISS:     340140
LLC RFO          ACCESS:    1160857 HIT:      73084 MISS:    1087773
LLC PREFETCH     ACCESS:     434968 HIT:     148143 MISS:     286825
LLC WRITE        ACCESS:    1477332 HIT:    1421108 MISS:      56224
LLC TRANSLATION  ACCESS:     180060 HIT:     103477 MISS:      76583
LLC PREFETCH REQUESTED:          0 ISSUED:          0 USEFUL:          0 USELESS:          0
LLC AVERAGE MISS LATENCY: 2796 cycles
LLC TOTAL        ACCESS:   11368006 HIT:    5523109 MISS:    5844897
LLC LOAD         ACCESS:     664497 HIT:     147279 MISS:     517218
LLC RFO          ACCESS:    5137880 HIT:     123045 MISS:    5014835
LLC PREFETCH     ACCESS:     324430 HIT:      75745 MISS:     248685
LLC WRITE        ACCESS:    5223801 HIT:    5175372 MISS:      48429
LLC TRANSLATION  ACCESS:      17398 HIT:       1668 MISS:      15730
LLC PREFETCH REQUESTED:          0 ISSUED:          0 USEFUL:          0 USELESS:          0
LLC AVERAGE MISS LATENCY: 2796 cycles
cpu0_DTLB TOTAL        ACCESS:   38318930 HIT:   35021442 MISS:    3297488
cpu0_DTLB LOAD         ACCESS:   38318930 HIT:   35021442 MISS:    3297488
cpu0_DTLB RFO          ACCESS:          0 HIT:          0 MISS:          0
cpu0_DTLB PREFETCH     ACCESS:          0 HIT:          0 MISS:          0
cpu0_DTLB WRITE        ACCESS:          0 HIT:          0 MISS:          0
cpu0_DTLB TRANSLATION  ACCESS:          0 HIT:          0 MISS:          0
cpu0_DTLB PREFETCH REQUESTED:          0 ISSUED:          0 USEFUL:          0 USELESS:          0
cpu0_DTLB AVERAGE MISS LATENCY: 238.2 cycles
cpu0_DTLB TOTAL        ACCESS:          0 HIT:          0 MISS:          0
cpu0_DTLB LOAD         ACCESS:          0 HIT:          0 MISS:          0
cpu0_DTLB RFO          ACCESS:          0 HIT:          0 MISS:          0
cpu0_DTLB PREFETCH     ACCESS:          0 HIT:          0 MISS:          0
cpu0_DTLB WRITE        ACCESS:          0 HIT:          0 MISS:          0
cpu0_DTLB TRANSLATION  ACCESS:          0 HIT:          0 MISS:          0
cpu0_DTLB PREFETCH REQUESTED:          0 ISSUED:          0 USEFUL:          0 USELESS:          0
cpu0_DTLB AVERAGE MISS LATENCY: 238.2 cycles
cpu0_DTLB TOTAL        ACCESS:          0 HIT:          0 MISS:          0
cpu0_DTLB LOAD         ACCESS:          0 HIT:          0 MISS:          0
cpu0_DTLB RFO          ACCESS:          0 HIT:          0 MISS:          0
cpu0_DTLB PREFETCH     ACCESS:          0 HIT:          0 MISS:          0
cpu0_DTLB WRITE        ACCESS:          0 HIT:          0 MISS:          0
cpu0_DTLB TRANSLATION  ACCESS:          0 HIT:          0 MISS:          0
cpu0_DTLB PREFETCH REQUESTED:          0 ISSUED:          0 USEFUL:          0 USELESS:          0
cpu0_DTLB AVERAGE MISS LATENCY: 238.2 cycles
cpu0_DTLB TOTAL        ACCESS:          0 HIT:          0 MISS:          0
cpu0_DTLB LOAD         ACCESS:          0 HIT:          0 MISS:          0
cpu0_DTLB RFO          ACCESS:          0 HIT:          0 MISS:          0
cpu0_DTLB PREFETCH     ACCESS:          0 HIT:          0 MISS:          0
cpu0_DTLB WRITE        ACCESS:          0 HIT:          0 MISS:          0
cpu0_DTLB TRANSLATION  ACCESS:          0 HIT:          0 MISS:          0
cpu0_DTLB PREFETCH REQUESTED:          0 ISSUED:          0 USEFUL:          0 USELESS:          0
cpu0_DTLB AVERAGE MISS LATENCY: 238.2 cycles
cpu0_ITLB TOTAL        ACCESS:   10789693 HIT:   10517687 MISS:     272006
cpu0_ITLB LOAD         ACCESS:   10789693 HIT:   10517687 MISS:     272006
cpu0_ITLB RFO          ACCESS:          0 HIT:          0 MISS:          0
cpu0_ITLB PREFETCH     ACCESS:          0 HIT:          0 MISS:          0
cpu0_ITLB WRITE        ACCESS:          0 HIT:          0 MISS:          0
cpu0_ITLB TRANSLATION  ACCESS:          0 HIT:          0 MISS:          0
cpu0_ITLB PREFETCH REQUESTED:          0 ISSUED:          0 USEFUL:          0 USELESS:          0
cpu0_ITLB AVERAGE MISS LATENCY: 17.98 cycles
cpu0_ITLB TOTAL        ACCESS:          0 HIT:          0 MISS:          0
cpu0_ITLB LOAD         ACCESS:          0 HIT:          0 MISS:          0
cpu0_ITLB RFO          ACCESS:          0 HIT:          0 MISS:          0
cpu0_ITLB PREFETCH     ACCESS:          0 HIT:          0 MISS:          0
cpu0_ITLB WRITE        ACCESS:          0 HIT:          0 MISS:          0
cpu0_ITLB TRANSLATION  ACCESS:          0 HIT:          0 MISS:          0
cpu0_ITLB PREFETCH REQUESTED:          0 ISSUED:          0 USEFUL:          0 USELESS:          0
cpu0_ITLB AVERAGE MISS LATENCY: 17.98 cycles
cpu0_ITLB TOTAL        ACCESS:          0 HIT:          0 MISS:          0
cpu0_ITLB LOAD         ACCESS:          0 HIT:          0 MISS:          0
cpu0_ITLB RFO          ACCESS:          0 HIT:          0 MISS:          0
cpu0_ITLB PREFETCH     ACCESS:          0 HIT:          0 MISS:          0
cpu0_ITLB WRITE        ACCESS:          0 HIT:          0 MISS:          0
cpu0_ITLB TRANSLATION  ACCESS:          0 HIT:          0 MISS:          0
cpu0_ITLB PREFETCH REQUESTED:          0 ISSUED:          0 USEFUL:          0 USELESS:          0
cpu0_ITLB AVERAGE MISS LATENCY: 17.98 cycles
cpu0_ITLB TOTAL        ACCESS:          0 HIT:          0 MISS:          0
cpu0_ITLB LOAD         ACCESS:          0 HIT:          0 MISS:          0
cpu0_ITLB RFO          ACCESS:          0 HIT:          0 MISS:          0
cpu0_ITLB PREFETCH     ACCESS:          0 HIT:          0 MISS:          0
cpu0_ITLB WRITE        ACCESS:          0 HIT:          0 MISS:          0
cpu0_ITLB TRANSLATION  ACCESS:          0 HIT:          0 MISS:          0
cpu0_ITLB PREFETCH REQUESTED:          0 ISSUED:          0 USEFUL:          0 USELESS:          0
cpu0_ITLB AVERAGE MISS LATENCY: 17.98 cycles
cpu0_L1D TOTAL        ACCESS:   49878699 HIT:   44941711 MISS:    4936988
cpu0_L1D LOAD         ACCESS:   22989603 HIT:   19917403 MISS:    3072200
cpu0_L1D RFO          ACCESS:          0 HIT:          0 MISS:          0
cpu0_L1D PREFETCH     ACCESS:      23426 HIT:       2904 MISS:      20522
cpu0_L1D WRITE        ACCESS:   25974493 HIT:   24876248 MISS:    1098245
cpu0_L1D TRANSLATION  ACCESS:     891177 HIT:     145156 MISS:     746021
cpu0_L1D PREFETCH REQUESTED:      23426 ISSUED:      23426 USEFUL:       1216 USELESS:        964
cpu0_L1D AVERAGE MISS LATENCY: 609.3 cycles
cpu0_L1D TOTAL        ACCESS:          0 HIT:          0 MISS:          0
cpu0_L1D LOAD         ACCESS:          0 HIT:          0 MISS:          0
cpu0_L1D RFO          ACCESS:          0 HIT:          0 MISS:          0
cpu0_L1D PREFETCH     ACCESS:          0 HIT:          0 MISS:          0
cpu0_L1D WRITE        ACCESS:          0 HIT:          0 MISS:          0
cpu0_L1D TRANSLATION  ACCESS:          0 HIT:          0 MISS:          0
cpu0_L1D PREFETCH REQUESTED:      23426 ISSUED:      23426 USEFUL:       1216 USELESS:        964
cpu0_L1D AVERAGE MISS LATENCY: 609.3 cycles
cpu0_L1D TOTAL        ACCESS:          0 HIT:          0 MISS:          0
cpu0_L1D LOAD         ACCESS:          0 HIT:          0 MISS:          0
cpu0_L1D RFO          ACCESS:          0 HIT:          0 MISS:          0
cpu0_L1D PREFETCH     ACCESS:          0 HIT:          0 MISS:          0
cpu0_L1D WRITE        ACCESS:          0 HIT:          0 MISS:          0
cpu0_L1D TRANSLATION  ACCESS:          0 HIT:          0 MISS:          0
cpu0_L1D PREFETCH REQUESTED:      23426 ISSUED:      23426 USEFUL:       1216 USELESS:        964
cpu0_L1D AVERAGE MISS LATENCY: 609.3 cycles
cpu0_L1D TOTAL        ACCESS:          0 HIT:          0 MISS:          0
cpu0_L1D LOAD         ACCESS:          0 HIT:          0 MISS:          0
cpu0_L1D RFO          ACCESS:          0 HIT:          0 MISS:          0
cpu0_L1D PREFETCH     ACCESS:          0 HIT:          0 MISS:          0
cpu0_L1D WRITE        ACCESS:          0 HIT:          0 MISS:          0
cpu0_L1D TRANSLATION  ACCESS:          0 HIT:          0 MISS:          0
cpu0_L1D PREFETCH REQUESTED:      23426 ISSUED:      23426 USEFUL:       1216 USELESS:        964
cpu0_L1D AVERAGE MISS LATENCY: 609.3 cycles
cpu0_L1I TOTAL        ACCESS:   12873156 HIT:   12799150 MISS:      74006
cpu0_L1I LOAD         ACCESS:   12873156 HIT:   12799150 MISS:      74006
cpu0_L1I RFO          ACCESS:          0 HIT:          0 MISS:          0
cpu0_L1I PREFETCH     ACCESS:          0 HIT:          0 MISS:          0
cpu0_L1I WRITE        ACCESS:          0 HIT:          0 MISS:          0
cpu0_L1I TRANSLATION  ACCESS:          0 HIT:          0 MISS:          0
cpu0_L1I PREFETCH REQUESTED:          0 ISSUED:          0 USEFUL:          0 USELESS:          0
cpu0_L1I AVERAGE MISS LATENCY: 139.1 cycles
cpu0_L1I TOTAL        ACCESS:          0 HIT:          0 MISS:          0
cpu0_L1I LOAD         ACCESS:          0 HIT:          0 MISS:          0
cpu0_L1I RFO          ACCESS:          0 HIT:          0 MISS:          0
cpu0_L1I PREFETCH     ACCESS:          0 HIT:          0 MISS:          0
cpu0_L1I WRITE        ACCESS:          0 HIT:          0 MISS:          0
cpu0_L1I TRANSLATION  ACCESS:          0 HIT:          0 MISS:          0
cpu0_L1I PREFETCH REQUESTED:          0 ISSUED:          0 USEFUL:          0 USELESS:          0
cpu0_L1I AVERAGE MISS LATENCY: 139.1 cycles
cpu0_L1I TOTAL        ACCESS:          0 HIT:          0 MISS:          0
cpu0_L1I LOAD         ACCESS:          0 HIT:          0 MISS:          0
cpu0_L1I RFO          ACCESS:          0 HIT:          0 MISS:          0
cpu0_L1I PREFETCH     ACCESS:          0 HIT:          0 MISS:          0
cpu0_L1I WRITE        ACCESS:          0 HIT:          0 MISS:          0
cpu0_L1I TRANSLATION  ACCESS:          0 HIT:          0 MISS:          0
cpu0_L1I PREFETCH REQUESTED:          0 ISSUED:          0 USEFUL:          0 USELESS:          0
cpu0_L1I AVERAGE MISS LATENCY: 139.1 cycles
cpu0_L1I TOTAL        ACCESS:          0 HIT:          0 MISS:          0
cpu0_L1I LOAD         ACCESS:          0 HIT:          0 MISS:          0
cpu0_L1I RFO          ACCESS:          0 HIT:          0 MISS:          0
cpu0_L1I PREFETCH     ACCESS:          0 HIT:          0 MISS:          0
cpu0_L1I WRITE        ACCESS:          0 HIT:          0 MISS:          0
cpu0_L1I TRANSLATION  ACCESS:          0 HIT:          0 MISS:          0
cpu0_L1I PREFETCH REQUESTED:          0 ISSUED:          0 USEFUL:          0 USELESS:          0
cpu0_L1I AVERAGE MISS LATENCY: 139.1 cycles
cpu0_L2C TOTAL        ACCESS:    5067895 HIT:    2512844 MISS:    2555051
cpu0_L2C LOAD         ACCESS:    2538603 HIT:     853831 MISS:    1684772
cpu0_L2C RFO          ACCESS:     365177 HIT:     107289 MISS:     257888
cpu0_L2C PREFETCH     ACCESS:      19759 HIT:       6059 MISS:      13700
cpu0_L2C WRITE        ACCESS:    1399128 HIT:    1396707 MISS:       2421
cpu0_L2C TRANSLATION  ACCESS:     745228 HIT:     148958 MISS:     596270
cpu0_L2C PREFETCH REQUESTED:          0 ISSUED:          0 USEFUL:          0 USELESS:          0
cpu0_L2C AVERAGE MISS LATENCY: 1195 cycles
cpu0_L2C TOTAL        ACCESS:          0 HIT:          0 MISS:          0
cpu0_L2C LOAD         ACCESS:          0 HIT:          0 MISS:          0
cpu0_L2C RFO          ACCESS:          0 HIT:          0 MISS:          0
cpu0_L2C PREFETCH     ACCESS:          0 HIT:          0 MISS:          0
cpu0_L2C WRITE        ACCESS:          0 HIT:          0 MISS:          0
cpu0_L2C TRANSLATION  ACCESS:          0 HIT:          0 MISS:          0
cpu0_L2C PREFETCH REQUESTED:          0 ISSUED:          0 USEFUL:          0 USELESS:          0
cpu0_L2C AVERAGE MISS LATENCY: 1195 cycles
cpu0_L2C TOTAL        ACCESS:          0 HIT:          0 MISS:          0
cpu0_L2C LOAD         ACCESS:          0 HIT:          0 MISS:          0
cpu0_L2C RFO          ACCESS:          0 HIT:          0 MISS:          0
cpu0_L2C PREFETCH     ACCESS:          0 HIT:          0 MISS:          0
cpu0_L2C WRITE        ACCESS:          0 HIT:          0 MISS:          0
cpu0_L2C TRANSLATION  ACCESS:          0 HIT:          0 MISS:          0
cpu0_L2C PREFETCH REQUESTED:          0 ISSUED:          0 USEFUL:          0 USELESS:          0
cpu0_L2C AVERAGE MISS LATENCY: 1195 cycles
cpu0_L2C TOTAL        ACCESS:          0 HIT:          0 MISS:          0
cpu0_L2C LOAD         ACCESS:          0 HIT:          0 MISS:          0
cpu0_L2C RFO          ACCESS:          0 HIT:          0 MISS:          0
cpu0_L2C PREFETCH     ACCESS:          0 HIT:          0 MISS:          0
cpu0_L2C WRITE        ACCESS:          0 HIT:          0 MISS:          0
cpu0_L2C TRANSLATION  ACCESS:          0 HIT:          0 MISS:          0
cpu0_L2C PREFETCH REQUESTED:          0 ISSUED:          0 USEFUL:          0 USELESS:          0
cpu0_L2C AVERAGE MISS LATENCY: 1195 cycles
cpu0_STLB TOTAL        ACCESS:    3014715 HIT:    2372291 MISS:     642424
cpu0_STLB LOAD         ACCESS:    3014715 HIT:    2372291 MISS:     642424
cpu0_STLB RFO          ACCESS:          0 HIT:          0 MISS:          0
cpu0_STLB PREFETCH     ACCESS:          0 HIT:          0 MISS:          0
cpu0_STLB WRITE        ACCESS:          0 HIT:          0 MISS:          0
cpu0_STLB TRANSLATION  ACCESS:          0 HIT:          0 MISS:          0
cpu0_STLB PREFETCH REQUESTED:          0 ISSUED:          0 USEFUL:          0 USELESS:          0
cpu0_STLB AVERAGE MISS LATENCY: 1219 cycles
cpu0_STLB TOTAL        ACCESS:          0 HIT:          0 MISS:          0
cpu0_STLB LOAD         ACCESS:          0 HIT:          0 MISS:          0
cpu0_STLB RFO          ACCESS:          0 HIT:          0 MISS:          0
cpu0_STLB PREFETCH     ACCESS:          0 HIT:          0 MISS:          0
cpu0_STLB WRITE        ACCESS:          0 HIT:          0 MISS:          0
cpu0_STLB TRANSLATION  ACCESS:          0 HIT:          0 MISS:          0
cpu0_STLB PREFETCH REQUESTED:          0 ISSUED:          0 USEFUL:          0 USELESS:          0
cpu0_STLB AVERAGE MISS LATENCY: 1219 cycles
cpu0_STLB TOTAL        ACCESS:          0 HIT:          0 MISS:          0
cpu0_STLB LOAD         ACCESS:          0 HIT:          0 MISS:          0
cpu0_STLB RFO          ACCESS:          0 HIT:          0 MISS:          0
cpu0_STLB PREFETCH     ACCESS:          0 HIT:          0 MISS:          0
cpu0_STLB WRITE        ACCESS:          0 HIT:          0 MISS:          0
cpu0_STLB TRANSLATION  ACCESS:          0 HIT:          0 MISS:          0
cpu0_STLB PREFETCH REQUESTED:          0 ISSUED:          0 USEFUL:          0 USELESS:          0
cpu0_STLB AVERAGE MISS LATENCY: 1219 cycles
cpu0_STLB TOTAL        ACCESS:          0 HIT:          0 MISS:          0
cpu0_STLB LOAD         ACCESS:          0 HIT:          0 MISS:          0
cpu0_STLB RFO          ACCESS:          0 HIT:          0 MISS:          0
cpu0_STLB PREFETCH     ACCESS:          0 HIT:          0 MISS:          0
cpu0_STLB WRITE        ACCESS:          0 HIT:          0 MISS:          0
cpu0_STLB TRANSLATION  ACCESS:          0 HIT:          0 MISS:          0
cpu0_STLB PREFETCH REQUESTED:          0 ISSUED:          0 USEFUL:          0 USELESS:          0
cpu0_STLB AVERAGE MISS LATENCY: 1219 cycles
cpu1_DTLB TOTAL        ACCESS:          0 HIT:          0 MISS:          0
cpu1_DTLB LOAD         ACCESS:          0 HIT:          0 MISS:          0
cpu1_DTLB RFO          ACCESS:          0 HIT:          0 MISS:          0
cpu1_DTLB PREFETCH     ACCESS:          0 HIT:          0 MISS:          0
cpu1_DTLB WRITE        ACCESS:          0 HIT:          0 MISS:          0
cpu1_DTLB TRANSLATION  ACCESS:          0 HIT:          0 MISS:          0
cpu1_DTLB PREFETCH REQUESTED:          0 ISSUED:          0 USEFUL:          0 USELESS:          0
cpu1_DTLB AVERAGE MISS LATENCY: 74.14 cycles
cpu1_DTLB TOTAL        ACCESS:  182524453 HIT:  181897763 MISS:     626690
cpu1_DTLB LOAD         ACCESS:  182524453 HIT:  181897763 MISS:     626690
cpu1_DTLB RFO          ACCESS:          0 HIT:          0 MISS:          0
cpu1_DTLB PREFETCH     ACCESS:          0 HIT:          0 MISS:          0
cpu1_DTLB WRITE        ACCESS:          0 HIT:          0 MISS:          0
cpu1_DTLB TRANSLATION  ACCESS:          0 HIT:          0 MISS:          0
cpu1_DTLB PREFETCH REQUESTED:          0 ISSUED:          0 USEFUL:          0 USELESS:          0
cpu1_DTLB AVERAGE MISS LATENCY: 74.14 cycles
cpu1_DTLB TOTAL        ACCESS:          0 HIT:          0 MISS:          0
cpu1_DTLB LOAD         ACCESS:          0 HIT:          0 MISS:          0
cpu1_DTLB RFO          ACCESS:          0 HIT:          0 MISS:          0
cpu1_DTLB PREFETCH     ACCESS:          0 HIT:          0 MISS:          0
cpu1_DTLB WRITE        ACCESS:          0 HIT:          0 MISS:          0
cpu1_DTLB TRANSLATION  ACCESS:          0 HIT:          0 MISS:          0
cpu1_DTLB PREFETCH REQUESTED:          0 ISSUED:          0 USEFUL:          0 USELESS:          0
cpu1_DTLB AVERAGE MISS LATENCY: 74.14 cycles
cpu1_DTLB TOTAL        ACCESS:          0 HIT:          0 MISS:          0
cpu1_DTLB LOAD         ACCESS:          0 HIT:          0 MISS:          0
cpu1_DTLB RFO          ACCESS:          0 HIT:          0 MISS:          0
cpu1_DTLB PREFETCH     ACCESS:          0 HIT:          0 MISS:          0
cpu1_DTLB WRITE        ACCESS:          0 HIT:          0 MISS:          0
cpu1_DTLB TRANSLATION  ACCESS:          0 HIT:          0 MISS:          0
cpu1_DTLB PREFETCH REQUESTED:          0 ISSUED:          0 USEFUL:          0 USELESS:          0
cpu1_DTLB AVERAGE MISS LATENCY: 74.14 cycles
cpu1_ITLB TOTAL        ACCESS:          0 HIT:          0 MISS:          0
cpu1_ITLB LOAD         ACCESS:          0 HIT:          0 MISS:          0
cpu1_ITLB RFO          ACCESS:          0 HIT:          0 MISS:          0
cpu1_ITLB PREFETCH     ACCESS:          0 HIT:          0 MISS:          0
cpu1_ITLB WRITE        ACCESS:          0 HIT:          0 MISS:          0
cpu1_ITLB TRANSLATION  ACCESS:          0 HIT:          0 MISS:          0
cpu1_ITLB PREFETCH REQUESTED:          0 ISSUED:          0 USEFUL:          0 USELESS:          0
cpu1_ITLB AVERAGE MISS LATENCY: 812 cycles
cpu1_ITLB TOTAL        ACCESS:    3805901 HIT:    3805890 MISS:         11
cpu1_ITLB LOAD         ACCESS:    3805901 HIT:    3805890 MISS:         11
cpu1_ITLB RFO          ACCESS:          0 HIT:          0 MISS:          0
cpu1_ITLB PREFETCH     ACCESS:          0 HIT:          0 MISS:          0
cpu1_ITLB WRITE        ACCESS:          0 HIT:          0 MISS:          0
cpu1_ITLB TRANSLATION  ACCESS:          0 HIT:          0 MISS:          0
cpu1_ITLB PREFETCH REQUESTED:          0 ISSUED:          0 USEFUL:          0 USELESS:          0
cpu1_ITLB AVERAGE MISS LATENCY: 812 cycles
cpu1_ITLB TOTAL        ACCESS:          0 HIT:          0 MISS:          0
cpu1_ITLB LOAD         ACCESS:          0 HIT:          0 MISS:          0
cpu1_ITLB RFO          ACCESS:          0 HIT:          0 MISS:          0
cpu1_ITLB PREFETCH     ACCESS:          0 HIT:          0 MISS:          0
cpu1_ITLB WRITE        ACCESS:          0 HIT:          0 MISS:          0
cpu1_ITLB TRANSLATION  ACCESS:          0 HIT:          0 MISS:          0
cpu1_ITLB PREFETCH REQUESTED:          0 ISSUED:          0 USEFUL:          0 USELESS:          0
cpu1_ITLB AVERAGE MISS LATENCY: 812 cycles
cpu1_ITLB TOTAL        ACCESS:          0 HIT:          0 MISS:          0
cpu1_ITLB LOAD         ACCESS:          0 HIT:          0 MISS:          0
cpu1_ITLB RFO          ACCESS:          0 HIT:          0 MISS:          0
cpu1_ITLB PREFETCH     ACCESS:          0 HIT:          0 MISS:          0
cpu1_ITLB WRITE        ACCESS:          0 HIT:          0 MISS:          0
cpu1_ITLB TRANSLATION  ACCESS:          0 HIT:          0 MISS:          0
cpu1_ITLB PREFETCH REQUESTED:          0 ISSUED:          0 USEFUL:          0 USELESS:          0
cpu1_ITLB AVERAGE MISS LATENCY: 812 cycles
cpu1_L1D TOTAL        ACCESS:          0 HIT:          0 MISS:          0
cpu1_L1D LOAD         ACCESS:          0 HIT:          0 MISS:          0
cpu1_L1D RFO          ACCESS:          0 HIT:          0 MISS:          0
cpu1_L1D PREFETCH     ACCESS:          0 HIT:          0 MISS:          0
cpu1_L1D WRITE        ACCESS:          0 HIT:          0 MISS:          0
cpu1_L1D TRANSLATION  ACCESS:          0 HIT:          0 MISS:          0
cpu1_L1D PREFETCH REQUESTED:  201712864 ISSUED:   47659149 USEFUL:    2219439 USELESS:     413355
cpu1_L1D AVERAGE MISS LATENCY: 350.7 cycles
cpu1_L1D TOTAL        ACCESS:  286441428 HIT:  255022718 MISS:   31418710
cpu1_L1D LOAD         ACCESS:  127060025 HIT:  123595270 MISS:    3464755
cpu1_L1D RFO          ACCESS:          0 HIT:          0 MISS:          0
cpu1_L1D PREFETCH     ACCESS:   47659144 HIT:   33291283 MISS:   14367861
cpu1_L1D WRITE        ACCESS:  111605034 HIT:   98065686 MISS:   13539348
cpu1_L1D TRANSLATION  ACCESS:     117225 HIT:      70479 MISS:      46746
cpu1_L1D PREFETCH REQUESTED:  201712864 ISSUED:   47659149 USEFUL:    2219439 USELESS:     413355
cpu1_L1D AVERAGE MISS LATENCY: 350.7 cycles
cpu1_L1D TOTAL        ACCESS:          0 HIT:          0 MISS:          0
cpu1_L1D LOAD         ACCESS:          0 HIT:          0 MISS:          0
cpu1_L1D RFO          ACCESS:          0 HIT:          0 MISS:          0
cpu1_L1D PREFETCH     ACCESS:          0 HIT:          0 MISS:          0
cpu1_L1D WRITE        ACCESS:          0 HIT:          0 MISS:          0
cpu1_L1D TRANSLATION  ACCESS:          0 HIT:          0 MISS:          0
cpu1_L1D PREFETCH REQUESTED:  201712864 ISSUED:   47659149 USEFUL:    2219439 USELESS:     413355
cpu1_L1D AVERAGE MISS LATENCY: 350.7 cycles
cpu1_L1D TOTAL        ACCESS:          0 HIT:          0 MISS:          0
cpu1_L1D LOAD         ACCESS:          0 HIT:          0 MISS:          0
cpu1_L1D RFO          ACCESS:          0 HIT:          0 MISS:          0
cpu1_L1D PREFETCH     ACCESS:          0 HIT:          0 MISS:          0
cpu1_L1D WRITE        ACCESS:          0 HIT:          0 MISS:          0
cpu1_L1D TRANSLATION  ACCESS:          0 HIT:          0 MISS:          0
cpu1_L1D PREFETCH REQUESTED:  201712864 ISSUED:   47659149 USEFUL:    2219439 USELESS:     413355
cpu1_L1D AVERAGE MISS LATENCY: 350.7 cycles
cpu1_L1I TOTAL        ACCESS:          0 HIT:          0 MISS:          0
cpu1_L1I LOAD         ACCESS:          0 HIT:          0 MISS:          0
cpu1_L1I RFO          ACCESS:          0 HIT:          0 MISS:          0
cpu1_L1I PREFETCH     ACCESS:          0 HIT:          0 MISS:          0
cpu1_L1I WRITE        ACCESS:          0 HIT:          0 MISS:          0
cpu1_L1I TRANSLATION  ACCESS:          0 HIT:          0 MISS:          0
cpu1_L1I PREFETCH REQUESTED:          0 ISSUED:          0 USEFUL:          0 USELESS:          0
cpu1_L1I AVERAGE MISS LATENCY: 812.4 cycles
cpu1_L1I TOTAL        ACCESS:    4623987 HIT:    4623765 MISS:        222
cpu1_L1I LOAD         ACCESS:    4623987 HIT:    4623765 MISS:        222
[...]
cpu2_L2C PREFETCH     ACCESS:          0 HIT:          0 MISS:          0
cpu2_L2C WRITE        ACCESS:          0 HIT:          0 MISS:          0
cpu2_L2C TRANSLATION  ACCESS:          0 HIT:          0 MISS:          0
cpu2_L2C PREFETCH REQUESTED:          0 ISSUED:          0 USEFUL:          0 USELESS:          0
cpu2_L2C AVERAGE MISS LATENCY: 1108 cycles
cpu2_L2C TOTAL        ACCESS:          0 HIT:          0 MISS:          0
cpu2_L2C LOAD         ACCESS:          0 HIT:          0 MISS:          0
cpu2_L2C RFO          ACCESS:          0 HIT:          0 MISS:          0
cpu2_L2C PREFETCH     ACCESS:          0 HIT:          0 MISS:          0
cpu2_L2C WRITE        ACCESS:          0 HIT:          0 MISS:          0
cpu2_L2C TRANSLATION  ACCESS:          0 HIT:          0 MISS:          0
cpu2_L2C PREFETCH REQUESTED:          0 ISSUED:          0 USEFUL:          0 USELESS:          0
cpu2_L2C AVERAGE MISS LATENCY: 1108 cycles
cpu2_L2C TOTAL        ACCESS:    9376758 HIT:    8719480 MISS:     657278
cpu2_L2C LOAD         ACCESS:    7737822 HIT:    7366553 MISS:     371269
cpu2_L2C RFO          ACCESS:     205157 HIT:      47359 MISS:     157798
cpu2_L2C PREFETCH     ACCESS:     834894 HIT:     739211 MISS:      95683
cpu2_L2C WRITE        ACCESS:     341458 HIT:     341447 MISS:         11
cpu2_L2C TRANSLATION  ACCESS:     257427 HIT:     224910 MISS:      32517
cpu2_L2C PREFETCH REQUESTED:          0 ISSUED:          0 USEFUL:          0 USELESS:          0
cpu2_L2C AVERAGE MISS LATENCY: 1108 cycles
cpu2_L2C TOTAL        ACCESS:          0 HIT:          0 MISS:          0
cpu2_L2C LOAD         ACCESS:          0 HIT:          0 MISS:          0
cpu2_L2C RFO          ACCESS:          0 HIT:          0 MISS:          0
cpu2_L2C PREFETCH     ACCESS:          0 HIT:          0 MISS:          0
cpu2_L2C WRITE        ACCESS:          0 HIT:          0 MISS:          0
cpu2_L2C TRANSLATION  ACCESS:          0 HIT:          0 MISS:          0
cpu2_L2C PREFETCH REQUESTED:          0 ISSUED:          0 USEFUL:          0 USELESS:          0
cpu2_L2C AVERAGE MISS LATENCY: 1108 cycles
cpu2_STLB TOTAL        ACCESS:          0 HIT:          0 MISS:          0
cpu2_STLB LOAD         ACCESS:          0 HIT:          0 MISS:          0
cpu2_STLB RFO          ACCESS:          0 HIT:          0 MISS:          0
cpu2_STLB PREFETCH     ACCESS:          0 HIT:          0 MISS:          0
cpu2_STLB WRITE        ACCESS:          0 HIT:          0 MISS:          0
cpu2_STLB TRANSLATION  ACCESS:          0 HIT:          0 MISS:          0
cpu2_STLB PREFETCH REQUESTED:          0 ISSUED:          0 USEFUL:          0 USELESS:          0
cpu2_STLB AVERAGE MISS LATENCY: 135.4 cycles
cpu2_STLB TOTAL        ACCESS:          0 HIT:          0 MISS:          0
cpu2_STLB LOAD         ACCESS:          0 HIT:          0 MISS:          0
cpu2_STLB RFO          ACCESS:          0 HIT:          0 MISS:          0
cpu2_STLB PREFETCH     ACCESS:          0 HIT:          0 MISS:          0
cpu2_STLB WRITE        ACCESS:          0 HIT:          0 MISS:          0
cpu2_STLB TRANSLATION  ACCESS:          0 HIT:          0 MISS:          0
cpu2_STLB PREFETCH REQUESTED:          0 ISSUED:          0 USEFUL:          0 USELESS:          0
cpu2_STLB AVERAGE MISS LATENCY: 135.4 cycles
cpu2_STLB TOTAL        ACCESS:    4508808 HIT:    4240046 MISS:     268762
cpu2_STLB LOAD         ACCESS:    4508808 HIT:    4240046 MISS:     268762
cpu2_STLB RFO          ACCESS:          0 HIT:          0 MISS:          0
cpu2_STLB PREFETCH     ACCESS:          0 HIT:          0 MISS:          0
cpu2_STLB WRITE        ACCESS:          0 HIT:          0 MISS:          0
cpu2_STLB TRANSLATION  ACCESS:          0 HIT:          0 MISS:          0
cpu2_STLB PREFETCH REQUESTED:          0 ISSUED:          0 USEFUL:          0 USELESS:          0
cpu2_STLB AVERAGE MISS LATENCY: 135.4 cycles
cpu2_STLB TOTAL        ACCESS:          0 HIT:          0 MISS:          0
cpu2_STLB LOAD         ACCESS:          0 HIT:          0 MISS:          0
cpu2_STLB RFO          ACCESS:          0 HIT:          0 MISS:          0
cpu2_STLB PREFETCH     ACCESS:          0 HIT:          0 MISS:          0
cpu2_STLB WRITE        ACCESS:          0 HIT:          0 MISS:          0
cpu2_STLB TRANSLATION  ACCESS:          0 HIT:          0 MISS:          0
cpu2_STLB PREFETCH REQUESTED:          0 ISSUED:          0 USEFUL:          0 USELESS:          0
cpu2_STLB AVERAGE MISS LATENCY: 135.4 cycles
cpu3_DTLB TOTAL        ACCESS:          0 HIT:          0 MISS:          0
cpu3_DTLB LOAD         ACCESS:          0 HIT:          0 MISS:          0
cpu3_DTLB RFO          ACCESS:          0 HIT:          0 MISS:          0
cpu3_DTLB PREFETCH     ACCESS:          0 HIT:          0 MISS:          0
cpu3_DTLB WRITE        ACCESS:          0 HIT:          0 MISS:          0
cpu3_DTLB TRANSLATION  ACCESS:          0 HIT:          0 MISS:          0
cpu3_DTLB PREFETCH REQUESTED:          0 ISSUED:          0 USEFUL:          0 USELESS:          0
cpu3_DTLB AVERAGE MISS LATENCY: 14.44 cycles
cpu3_DTLB TOTAL        ACCESS:          0 HIT:          0 MISS:          0
cpu3_DTLB LOAD         ACCESS:          0 HIT:          0 MISS:          0
cpu3_DTLB RFO          ACCESS:          0 HIT:          0 MISS:          0
cpu3_DTLB PREFETCH     ACCESS:          0 HIT:          0 MISS:          0
cpu3_DTLB WRITE        ACCESS:          0 HIT:          0 MISS:          0
cpu3_DTLB TRANSLATION  ACCESS:          0 HIT:          0 MISS:          0
cpu3_DTLB PREFETCH REQUESTED:          0 ISSUED:          0 USEFUL:          0 USELESS:          0
cpu3_DTLB AVERAGE MISS LATENCY: 14.44 cycles
cpu3_DTLB TOTAL        ACCESS:          0 HIT:          0 MISS:          0
cpu3_DTLB LOAD         ACCESS:          0 HIT:          0 MISS:          0
cpu3_DTLB RFO          ACCESS:          0 HIT:          0 MISS:          0
cpu3_DTLB PREFETCH     ACCESS:          0 HIT:          0 MISS:          0
cpu3_DTLB WRITE        ACCESS:          0 HIT:          0 MISS:          0
cpu3_DTLB TRANSLATION  ACCESS:          0 HIT:          0 MISS:          0
cpu3_DTLB PREFETCH REQUESTED:          0 ISSUED:          0 USEFUL:          0 USELESS:          0
cpu3_DTLB AVERAGE MISS LATENCY: 14.44 cycles
cpu3_DTLB TOTAL        ACCESS:   22006561 HIT:   21732132 MISS:     274429
cpu3_DTLB LOAD         ACCESS:   22006561 HIT:   21732132 MISS:     274429
cpu3_DTLB RFO          ACCESS:          0 HIT:          0 MISS:          0
cpu3_DTLB PREFETCH     ACCESS:          0 HIT:          0 MISS:          0
cpu3_DTLB WRITE        ACCESS:          0 HIT:          0 MISS:          0
cpu3_DTLB TRANSLATION  ACCESS:          0 HIT:          0 MISS:          0
cpu3_DTLB PREFETCH REQUESTED:          0 ISSUED:          0 USEFUL:          0 USELESS:          0
cpu3_DTLB AVERAGE MISS LATENCY: 14.44 cycles
cpu3_ITLB TOTAL        ACCESS:          0 HIT:          0 MISS:          0
cpu3_ITLB LOAD         ACCESS:          0 HIT:          0 MISS:          0
cpu3_ITLB RFO          ACCESS:          0 HIT:          0 MISS:          0
cpu3_ITLB PREFETCH     ACCESS:          0 HIT:          0 MISS:          0
cpu3_ITLB WRITE        ACCESS:          0 HIT:          0 MISS:          0
cpu3_ITLB TRANSLATION  ACCESS:          0 HIT:          0 MISS:          0
cpu3_ITLB PREFETCH REQUESTED:          0 ISSUED:          0 USEFUL:          0 USELESS:          0
cpu3_ITLB AVERAGE MISS LATENCY: 101.3 cycles
cpu3_ITLB TOTAL        ACCESS:          0 HIT:          0 MISS:          0
cpu3_ITLB LOAD         ACCESS:          0 HIT:          0 MISS:          0
cpu3_ITLB RFO          ACCESS:          0 HIT:          0 MISS:          0
cpu3_ITLB PREFETCH     ACCESS:          0 HIT:          0 MISS:          0
cpu3_ITLB WRITE        ACCESS:          0 HIT:          0 MISS:          0
cpu3_ITLB TRANSLATION  ACCESS:          0 HIT:          0 MISS:          0
cpu3_ITLB PREFETCH REQUESTED:          0 ISSUED:          0 USEFUL:          0 USELESS:          0
cpu3_ITLB AVERAGE MISS LATENCY: 101.3 cycles
cpu3_ITLB TOTAL        ACCESS:          0 HIT:          0 MISS:          0
cpu3_ITLB LOAD         ACCESS:          0 HIT:          0 MISS:          0
cpu3_ITLB RFO          ACCESS:          0 HIT:          0 MISS:          0
cpu3_ITLB PREFETCH     ACCESS:          0 HIT:          0 MISS:          0
cpu3_ITLB WRITE        ACCESS:          0 HIT:          0 MISS:          0
cpu3_ITLB TRANSLATION  ACCESS:          0 HIT:          0 MISS:          0
cpu3_ITLB PREFETCH REQUESTED:          0 ISSUED:          0 USEFUL:          0 USELESS:          0
cpu3_ITLB AVERAGE MISS LATENCY: 101.3 cycles
cpu3_ITLB TOTAL        ACCESS:    2844961 HIT:    2840944 MISS:       4017
cpu3_ITLB LOAD         ACCESS:    2844961 HIT:    2840944 MISS:       4017
cpu3_ITLB RFO          ACCESS:          0 HIT:          0 MISS:          0
cpu3_ITLB PREFETCH     ACCESS:          0 HIT:          0 MISS:          0
cpu3_ITLB WRITE        ACCESS:          0 HIT:          0 MISS:          0
cpu3_ITLB TRANSLATION  ACCESS:          0 HIT:          0 MISS:          0
cpu3_ITLB PREFETCH REQUESTED:          0 ISSUED:          0 USEFUL:          0 USELESS:          0
cpu3_ITLB AVERAGE MISS LATENCY: 101.3 cycles
cpu3_L1D TOTAL        ACCESS:          0 HIT:          0 MISS:          0
cpu3_L1D LOAD         ACCESS:          0 HIT:          0 MISS:          0
cpu3_L1D RFO          ACCESS:          0 HIT:          0 MISS:          0
cpu3_L1D PREFETCH     ACCESS:          0 HIT:          0 MISS:          0
cpu3_L1D WRITE        ACCESS:          0 HIT:          0 MISS:          0
cpu3_L1D TRANSLATION  ACCESS:          0 HIT:          0 MISS:          0
cpu3_L1D PREFETCH REQUESTED:   76603748 ISSUED:   16099758 USEFUL:     539740 USELESS:     236688
cpu3_L1D AVERAGE MISS LATENCY: 566.3 cycles
cpu3_L1D TOTAL        ACCESS:          0 HIT:          0 MISS:          0
cpu3_L1D LOAD         ACCESS:          0 HIT:          0 MISS:          0
cpu3_L1D RFO          ACCESS:          0 HIT:          0 MISS:          0
cpu3_L1D PREFETCH     ACCESS:          0 HIT:          0 MISS:          0
cpu3_L1D WRITE        ACCESS:          0 HIT:          0 MISS:          0
cpu3_L1D TRANSLATION  ACCESS:          0 HIT:          0 MISS:          0
cpu3_L1D PREFETCH REQUESTED:   76603748 ISSUED:   16099758 USEFUL:     539740 USELESS:     236688
cpu3_L1D AVERAGE MISS LATENCY: 566.3 cycles
cpu3_L1D TOTAL        ACCESS:          0 HIT:          0 MISS:          0
cpu3_L1D LOAD         ACCESS:          0 HIT:          0 MISS:          0
cpu3_L1D RFO          ACCESS:          0 HIT:          0 MISS:          0
cpu3_L1D PREFETCH     ACCESS:          0 HIT:          0 MISS:          0
cpu3_L1D WRITE        ACCESS:          0 HIT:          0 MISS:          0
cpu3_L1D TRANSLATION  ACCESS:          0 HIT:          0 MISS:          0
cpu3_L1D PREFETCH REQUESTED:   76603748 ISSUED:   16099758 USEFUL:     539740 USELESS:     236688
cpu3_L1D AVERAGE MISS LATENCY: 566.3 cycles
cpu3_L1D TOTAL        ACCESS:   31631661 HIT:   25885167 MISS:    5746494
cpu3_L1D LOAD         ACCESS:   13785507 HIT:   13256773 MISS:     528734
cpu3_L1D RFO          ACCESS:          0 HIT:          0 MISS:          0
cpu3_L1D PREFETCH     ACCESS:    2547796 HIT:    1905669 MISS:     642127
cpu3_L1D WRITE        ACCESS:   15278911 HIT:   10707598 MISS:    4571313
cpu3_L1D TRANSLATION  ACCESS:      19447 HIT:      15127 MISS:       4320
cpu3_L1D PREFETCH REQUESTED:   76603748 ISSUED:   16099758 USEFUL:     539740 USELESS:     236688
cpu3_L1D AVERAGE MISS LATENCY: 566.3 cycles
cpu3_L1I TOTAL        ACCESS:          0 HIT:          0 MISS:          0
cpu3_L1I LOAD         ACCESS:          0 HIT:          0 MISS:          0
cpu3_L1I RFO          ACCESS:          0 HIT:          0 MISS:          0
cpu3_L1I PREFETCH     ACCESS:          0 HIT:          0 MISS:          0
cpu3_L1I WRITE        ACCESS:          0 HIT:          0 MISS:          0
cpu3_L1I TRANSLATION  ACCESS:          0 HIT:          0 MISS:          0
cpu3_L1I PREFETCH REQUESTED:          0 ISSUED:          0 USEFUL:          0 USELESS:          0
cpu3_L1I AVERAGE MISS LATENCY: 262.3 cycles
cpu3_L1I TOTAL        ACCESS:          0 HIT:          0 MISS:          0
cpu3_L1I LOAD         ACCESS:          0 HIT:          0 MISS:          0
cpu3_L1I RFO          ACCESS:          0 HIT:          0 MISS:          0
cpu3_L1I PREFETCH     ACCESS:          0 HIT:          0 MISS:          0
cpu3_L1I WRITE        ACCESS:          0 HIT:          0 MISS:          0
cpu3_L1I TRANSLATION  ACCESS:          0 HIT:          0 MISS:          0
cpu3_L1I PREFETCH REQUESTED:          0 ISSUED:          0 USEFUL:          0 USELESS:          0
cpu3_L1I AVERAGE MISS LATENCY: 262.3 cycles
cpu3_L1I TOTAL        ACCESS:          0 HIT:          0 MISS:          0
cpu3_L1I LOAD         ACCESS:          0 HIT:          0 MISS:          0
cpu3_L1I RFO          ACCESS:          0 HIT:          0 MISS:          0
cpu3_L1I PREFETCH     ACCESS:          0 HIT:          0 MISS:          0
cpu3_L1I WRITE        ACCESS:          0 HIT:          0 MISS:          0
cpu3_L1I TRANSLATION  ACCESS:          0 HIT:          0 MISS:          0
cpu3_L1I PREFETCH REQUESTED:          0 ISSUED:          0 USEFUL:          0 USELESS:          0
cpu3_L1I AVERAGE MISS LATENCY: 262.3 cycles
cpu3_L1I TOTAL        ACCESS:    3637647 HIT:    3547724 MISS:      89923
cpu3_L1I LOAD         ACCESS:    3637647 HIT:    3547724 MISS:      89923
cpu3_L1I RFO          ACCESS:          0 HIT:          0 MISS:          0
cpu3_L1I PREFETCH     ACCESS:          0 HIT:          0 MISS:          0
cpu3_L1I WRITE        ACCESS:          0 HIT:          0 MISS:          0
cpu3_L1I TRANSLATION  ACCESS:          0 HIT:          0 MISS:          0
cpu3_L1I PREFETCH REQUESTED:          0 ISSUED:          0 USEFUL:          0 USELESS:          0
cpu3_L1I AVERAGE MISS LATENCY: 262.3 cycles
cpu3_L2C TOTAL        ACCESS:          0 HIT:          0 MISS:          0
cpu3_L2C LOAD         ACCESS:          0 HIT:          0 MISS:          0
cpu3_L2C RFO          ACCESS:          0 HIT:          0 MISS:          0
cpu3_L2C PREFETCH     ACCESS:          0 HIT:          0 MISS:          0
cpu3_L2C WRITE        ACCESS:          0 HIT:          0 MISS:          0
cpu3_L2C TRANSLATION  ACCESS:          0 HIT:          0 MISS:          0
cpu3_L2C PREFETCH REQUESTED:          0 ISSUED:          0 USEFUL:          0 USELESS:          0
cpu3_L2C AVERAGE MISS LATENCY: 3042 cycles
cpu3_L2C TOTAL        ACCESS:          0 HIT:          0 MISS:          0
cpu3_L2C LOAD         ACCESS:          0 HIT:          0 MISS:          0
cpu3_L2C RFO          ACCESS:          0 HIT:          0 MISS:          0
cpu3_L2C PREFETCH     ACCESS:          0 HIT:          0 MISS:          0
cpu3_L2C WRITE        ACCESS:          0 HIT:          0 MISS:          0
cpu3_L2C TRANSLATION  ACCESS:          0 HIT:          0 MISS:          0
cpu3_L2C PREFETCH REQUESTED:          0 ISSUED:          0 USEFUL:          0 USELESS:          0
cpu3_L2C AVERAGE MISS LATENCY: 3042 cycles
cpu3_L2C TOTAL        ACCESS:          0 HIT:          0 MISS:          0
cpu3_L2C LOAD         ACCESS:          0 HIT:          0 MISS:          0
cpu3_L2C RFO          ACCESS:          0 HIT:          0 MISS:          0
cpu3_L2C PREFETCH     ACCESS:          0 HIT:          0 MISS:          0
cpu3_L2C WRITE        ACCESS:          0 HIT:          0 MISS:          0
cpu3_L2C TRANSLATION  ACCESS:          0 HIT:          0 MISS:          0
cpu3_L2C PREFETCH REQUESTED:          0 ISSUED:          0 USEFUL:          0 USELESS:          0
cpu3_L2C AVERAGE MISS LATENCY: 3042 cycles
cpu3_L2C TOTAL        ACCESS:    3473719 HIT:    2322038 MISS:    1151681
cpu3_L2C LOAD         ACCESS:     450380 HIT:     343864 MISS:     106516
cpu3_L2C RFO          ACCESS:    1158274 HIT:     191767 MISS:     966507
cpu3_L2C PREFETCH     ACCESS:     627344 HIT:     551790 MISS:      75554
cpu3_L2C WRITE        ACCESS:    1233436 HIT:    1233395 MISS:         41
cpu3_L2C TRANSLATION  ACCESS:       4285 HIT:       1222 MISS:       3063
cpu3_L2C PREFETCH REQUESTED:          0 ISSUED:          0 USEFUL:          0 USELESS:          0
cpu3_L2C AVERAGE MISS LATENCY: 3042 cycles
cpu3_STLB TOTAL        ACCESS:          0 HIT:          0 MISS:          0
cpu3_STLB LOAD         ACCESS:          0 HIT:          0 MISS:          0
cpu3_STLB RFO          ACCESS:          0 HIT:          0 MISS:          0
cpu3_STLB PREFETCH     ACCESS:          0 HIT:          0 MISS:          0
cpu3_STLB WRITE        ACCESS:          0 HIT:          0 MISS:          0
cpu3_STLB TRANSLATION  ACCESS:          0 HIT:          0 MISS:          0
cpu3_STLB PREFETCH REQUESTED:          0 ISSUED:          0 USEFUL:          0 USELESS:          0
cpu3_STLB AVERAGE MISS LATENCY: 235.7 cycles
cpu3_STLB TOTAL        ACCESS:          0 HIT:          0 MISS:          0
cpu3_STLB LOAD         ACCESS:          0 HIT:          0 MISS:          0
cpu3_STLB RFO          ACCESS:          0 HIT:          0 MISS:          0
cpu3_STLB PREFETCH     ACCESS:          0 HIT:          0 MISS:          0
cpu3_STLB WRITE        ACCESS:          0 HIT:          0 MISS:          0
cpu3_STLB TRANSLATION  ACCESS:          0 HIT:          0 MISS:          0
cpu3_STLB PREFETCH REQUESTED:          0 ISSUED:          0 USEFUL:          0 USELESS:          0
cpu3_STLB AVERAGE MISS LATENCY: 235.7 cycles
cpu3_STLB TOTAL        ACCESS:          0 HIT:          0 MISS:          0
cpu3_STLB LOAD         ACCESS:          0 HIT:          0 MISS:          0
cpu3_STLB RFO          ACCESS:          0 HIT:          0 MISS:          0
cpu3_STLB PREFETCH     ACCESS:          0 HIT:          0 MISS:          0
cpu3_STLB WRITE        ACCESS:          0 HIT:          0 MISS:          0
cpu3_STLB TRANSLATION  ACCESS:          0 HIT:          0 MISS:          0
cpu3_STLB PREFETCH REQUESTED:          0 ISSUED:          0 USEFUL:          0 USELESS:          0
cpu3_STLB AVERAGE MISS LATENCY: 235.7 cycles
cpu3_STLB TOTAL        ACCESS:      95553 HIT:      76475 MISS:      19078
cpu3_STLB LOAD         ACCESS:      95553 HIT:      76475 MISS:      19078
cpu3_STLB RFO          ACCESS:          0 HIT:          0 MISS:          0
cpu3_STLB PREFETCH     ACCESS:          0 HIT:          0 MISS:          0
cpu3_STLB WRITE        ACCESS:          0 HIT:          0 MISS:          0
cpu3_STLB TRANSLATION  ACCESS:          0 HIT:          0 MISS:          0
cpu3_STLB PREFETCH REQUESTED:          0 ISSUED:          0 USEFUL:          0 USELESS:          0
cpu3_STLB AVERAGE MISS LATENCY: 235.7 cycles

DRAM Statistics

Channel 0 RQ ROW_BUFFER_HIT:    3046872
  ROW_BUFFER_MISS:   12588630
 AVG DBUS CONGESTED CYCLE: 3.989
WQ ROW_BUFFER_HIT: Channel 0 
  ROW_BUFFER_MISS:     247399
  FULL:    8782000
BERTI TO_L1: 180601698 TO_L2: 341766510 TO_L2_BC_MSHR: 87458418
BERTI AVG_LAT: 296.815 NUM_TRACK_LATENCY: 59466234 NUM_CANT_TRACK_LATENCY: 677303
BERTI CROSS_PAGE 90557495 NO_CROSS_PAGE: 431810713
BERTI FOUND_BERTI: 208639308 NO_FOUND_BERTI: 245640173
BERTI AVERAGE_ISSUED: 2.48534
BERTI TO_L1: 180601698 TO_L2: 341766510 TO_L2_BC_MSHR: 87458418
BERTI AVG_LAT: 296.815 NUM_TRACK_LATENCY: 59466234 NUM_CANT_TRACK_LATENCY: 677303
BERTI CROSS_PAGE 90557495 NO_CROSS_PAGE: 431810713
BERTI FOUND_BERTI: 208639308 NO_FOUND_BERTI: 245640173
BERTI AVERAGE_ISSUED: 2.48534
BERTI TO_L1: 180601698 TO_L2: 341766510 TO_L2_BC_MSHR: 87458418
BERTI AVG_LAT: 296.815 NUM_TRACK_LATENCY: 59466234 NUM_CANT_TRACK_LATENCY: 677303
BERTI CROSS_PAGE 90557495 NO_CROSS_PAGE: 431810713
BERTI FOUND_BERTI: 208639308 NO_FOUND_BERTI: 245640173
BERTI AVERAGE_ISSUED: 2.48534
BERTI TO_L1: 180601698 TO_L2: 341766510 TO_L2_BC_MSHR: 87458418
BERTI AVG_LAT: 296.815 NUM_TRACK_LATENCY: 59466234 NUM_CANT_TRACK_LATENCY: 677303
BERTI CROSS_PAGE 90557495 NO_CROSS_PAGE: 431810713
BERTI FOUND_BERTI: 208639308 NO_FOUND_BERTI: 245640173
BERTI AVERAGE_ISSUED: 2.48534
