WARNING: physical memory size is smaller than virtual memory size.
WARNING: option --warmup_instructions is deprecated. Use --warmup-instructions instead.
WARNING: option --simulation_instructions is deprecated. Use --simulation-instructions instead.

*** ChampSim Multicore Out-of-Order Simulator ***
Warmup Instructions: 50000000
Simulation Instructions: 150000000
Number of CPUs: 4
Page size: 4096

Berti Prefetcher
BERTI HASH ORIGINAL
BERTI IP MASK ffff
Berti Prefetcher
BERTI HASH ORIGINAL
BERTI IP MASK ffff
Berti Prefetcher
BERTI HASH ORIGINAL
BERTI IP MASK ffff
Berti Prefetcher
BERTI HASH ORIGINAL
BERTI IP MASK ffff
Off-chip DRAM Size: 4 GiB Channels: 1 Width: 64-bit Data Race: 3200 MT/s
Heartbeat CPU 2 instructions: 10000003 cycles: 2507004 heartbeat IPC: 3.989 cumulative IPC: 3.989 (Simulation time: 00 hr 02 min 34 sec)
Heartbeat CPU 3 instructions: 10000003 cycles: 3100413 heartbeat IPC: 3.225 cumulative IPC: 3.225 (Simulation time: 00 hr 03 min 12 sec)
Heartbeat CPU 1 instructions: 10000001 cycles: 3682981 heartbeat IPC: 2.715 cumulative IPC: 2.715 (Simulation time: 00 hr 03 min 49 sec)
Heartbeat CPU 0 instructions: 10000001 cycles: 4175196 heartbeat IPC: 2.395 cumulative IPC: 2.395 (Simulation time: 00 hr 04 min 21 sec)
Heartbeat CPU 2 instructions: 20000001 cycles: 5016624 heartbeat IPC: 3.985 cumulative IPC: 3.987 (Simulation time: 00 hr 05 min 15 sec)
Heartbeat CPU 3 instructions: 20000002 cycles: 6207070 heartbeat IPC: 3.219 cumulative IPC: 3.222 (Simulation time: 00 hr 06 min 32 sec)
Heartbeat CPU 1 instructions: 20000004 cycles: 7362085 heartbeat IPC: 2.718 cumulative IPC: 2.717 (Simulation time: 00 hr 07 min 46 sec)
Heartbeat CPU 2 instructions: 30000002 cycles: 7520997 heartbeat IPC: 3.993 cumulative IPC: 3.989 (Simulation time: 00 hr 07 min 56 sec)
Heartbeat CPU 0 instructions: 20000004 cycles: 8347063 heartbeat IPC: 2.397 cumulative IPC: 2.396 (Simulation time: 00 hr 08 min 50 sec)
Heartbeat CPU 3 instructions: 30000004 cycles: 9305979 heartbeat IPC: 3.227 cumulative IPC: 3.224 (Simulation time: 00 hr 09 min 54 sec)
Heartbeat CPU 2 instructions: 40000000 cycles: 10031493 heartbeat IPC: 3.983 cumulative IPC: 3.987 (Simulation time: 00 hr 10 min 40 sec)
Heartbeat CPU 1 instructions: 30000004 cycles: 11043610 heartbeat IPC: 2.716 cumulative IPC: 2.717 (Simulation time: 00 hr 11 min 45 sec)
Heartbeat CPU 3 instructions: 40000004 cycles: 12404000 heartbeat IPC: 3.228 cumulative IPC: 3.225 (Simulation time: 00 hr 13 min 13 sec)
Heartbeat CPU 0 instructions: 30000001 cycles: 12520033 heartbeat IPC: 2.396 cumulative IPC: 2.396 (Simulation time: 00 hr 13 min 20 sec)
Heartbeat CPU 2 instructions: 50000003 cycles: 12555208 heartbeat IPC: 3.962 cumulative IPC: 3.982 (Simulation time: 00 hr 13 min 23 sec)
Warmup finished CPU 2 instructions: 50000003 cycles: 12555209 cumulative IPC: 3.982 (Simulation time: 00 hr 13 min 23 sec)
Heartbeat CPU 1 instructions: 40000003 cycles: 14723444 heartbeat IPC: 2.718 cumulative IPC: 2.717 (Simulation time: 00 hr 15 min 39 sec)
Heartbeat CPU 2 instructions: 60000000 cycles: 15063099 heartbeat IPC: 3.987 cumulative IPC: 3.983 (Simulation time: 00 hr 16 min 01 sec)
Heartbeat CPU 3 instructions: 50000001 cycles: 15490416 heartbeat IPC: 3.24 cumulative IPC: 3.228 (Simulation time: 00 hr 16 min 28 sec)
Warmup finished CPU 3 instructions: 50000001 cycles: 15490417 cumulative IPC: 3.228 (Simulation time: 00 hr 16 min 28 sec)
Heartbeat CPU 0 instructions: 40000000 cycles: 16705250 heartbeat IPC: 2.389 cumulative IPC: 2.394 (Simulation time: 00 hr 17 min 45 sec)
Heartbeat CPU 2 instructions: 70000001 cycles: 17570077 heartbeat IPC: 3.989 cumulative IPC: 3.984 (Simulation time: 00 hr 18 min 40 sec)
Heartbeat CPU 1 instructions: 50000001 cycles: 18405563 heartbeat IPC: 2.716 cumulative IPC: 2.717 (Simulation time: 00 hr 19 min 32 sec)
Warmup finished CPU 1 instructions: 50000001 cycles: 18405564 cumulative IPC: 2.717 (Simulation time: 00 hr 19 min 32 sec)
Heartbeat CPU 3 instructions: 60000002 cycles: 18588462 heartbeat IPC: 3.228 cumulative IPC: 3.228 (Simulation time: 00 hr 19 min 44 sec)
Heartbeat CPU 2 instructions: 80000003 cycles: 20077971 heartbeat IPC: 3.987 cumulative IPC: 3.984 (Simulation time: 00 hr 21 min 18 sec)
Heartbeat CPU 0 instructions: 50000003 cycles: 20871298 heartbeat IPC: 2.4 cumulative IPC: 2.396 (Simulation time: 00 hr 22 min 08 sec)
Warmup finished CPU 0 instructions: 50000003 cycles: 20871299 cumulative IPC: 2.396 (Simulation time: 00 hr 22 min 08 sec)
Warmup complete CPU 0 instructions: 50000003 cycles: 20871299 cumulative IPC: 2.396 (Simulation time: 00 hr 22 min 08 sec)
Warmup complete CPU 1 instructions: 56451797 cycles: 20871299 cumulative IPC: 2.705 (Simulation time: 00 hr 22 min 08 sec)
Warmup complete CPU 2 instructions: 83173311 cycles: 20871299 cumulative IPC: 3.985 (Simulation time: 00 hr 22 min 08 sec)
Warmup complete CPU 3 instructions: 67377571 cycles: 20871299 cumulative IPC: 3.228 (Simulation time: 00 hr 22 min 08 sec)
Heartbeat CPU 2 instructions: 90000001 cycles: 23251237 heartbeat IPC: 3.151 cumulative IPC: 2.868 (Simulation time: 00 hr 23 min 30 sec)
Heartbeat CPU 1 instructions: 60000004 cycles: 25206620 heartbeat IPC: 1.47 cumulative IPC: 0.8184 (Simulation time: 00 hr 24 min 36 sec)
Heartbeat CPU 2 instructions: 100000001 cycles: 26677818 heartbeat IPC: 2.918 cumulative IPC: 2.898 (Simulation time: 00 hr 25 min 27 sec)
Heartbeat CPU 3 instructions: 70000000 cycles: 30076784 heartbeat IPC: 0.8704 cumulative IPC: 0.2849 (Simulation time: 00 hr 27 min 23 sec)
Heartbeat CPU 2 instructions: 110000001 cycles: 30157818 heartbeat IPC: 2.874 cumulative IPC: 2.889 (Simulation time: 00 hr 27 min 26 sec)
Heartbeat CPU 2 instructions: 120000002 cycles: 33581989 heartbeat IPC: 2.92 cumulative IPC: 2.897 (Simulation time: 00 hr 29 min 20 sec)
Heartbeat CPU 2 instructions: 130000003 cycles: 36986578 heartbeat IPC: 2.937 cumulative IPC: 2.906 (Simulation time: 00 hr 31 min 13 sec)
Heartbeat CPU 1 instructions: 70000000 cycles: 37293629 heartbeat IPC: 0.8273 cumulative IPC: 0.825 (Simulation time: 00 hr 31 min 23 sec)
Heartbeat CPU 2 instructions: 140000003 cycles: 40415919 heartbeat IPC: 2.916 cumulative IPC: 2.908 (Simulation time: 00 hr 33 min 07 sec)
Heartbeat CPU 2 instructions: 150000002 cycles: 43790858 heartbeat IPC: 2.963 cumulative IPC: 2.916 (Simulation time: 00 hr 35 min 03 sec)
Heartbeat CPU 2 instructions: 160000001 cycles: 47073617 heartbeat IPC: 3.046 cumulative IPC: 2.932 (Simulation time: 00 hr 36 min 54 sec)
Heartbeat CPU 1 instructions: 80000004 cycles: 49202611 heartbeat IPC: 0.8397 cumulative IPC: 0.8312 (Simulation time: 00 hr 38 min 08 sec)
Heartbeat CPU 2 instructions: 170000003 cycles: 50394732 heartbeat IPC: 3.011 cumulative IPC: 2.941 (Simulation time: 00 hr 38 min 47 sec)
Heartbeat CPU 2 instructions: 180000003 cycles: 53877624 heartbeat IPC: 2.871 cumulative IPC: 2.934 (Simulation time: 00 hr 40 min 46 sec)
Heartbeat CPU 2 instructions: 190000001 cycles: 57382049 heartbeat IPC: 2.854 cumulative IPC: 2.926 (Simulation time: 00 hr 42 min 45 sec)
Heartbeat CPU 2 instructions: 200000004 cycles: 60857651 heartbeat IPC: 2.877 cumulative IPC: 2.922 (Simulation time: 00 hr 44 min 42 sec)
Heartbeat CPU 1 instructions: 90000004 cycles: 61231347 heartbeat IPC: 0.8313 cumulative IPC: 0.8312 (Simulation time: 00 hr 44 min 54 sec)
Heartbeat CPU 0 instructions: 60000003 cycles: 63959111 heartbeat IPC: 0.2321 cumulative IPC: 0.2321 (Simulation time: 00 hr 46 min 24 sec)
Heartbeat CPU 2 instructions: 210000004 cycles: 64360307 heartbeat IPC: 2.855 cumulative IPC: 2.916 (Simulation time: 00 hr 46 min 38 sec)
Heartbeat CPU 2 instructions: 220000001 cycles: 67851320 heartbeat IPC: 2.864 cumulative IPC: 2.912 (Simulation time: 00 hr 48 min 38 sec)
Heartbeat CPU 3 instructions: 80000000 cycles: 67970099 heartbeat IPC: 0.2639 cumulative IPC: 0.268 (Simulation time: 00 hr 48 min 43 sec)
Heartbeat CPU 2 instructions: 230000000 cycles: 71310560 heartbeat IPC: 2.891 cumulative IPC: 2.911 (Simulation time: 00 hr 50 min 35 sec)
Simulation finished CPU 2 instructions: 150000002 cycles: 51534415 cumulative IPC: 2.911 (Simulation time: 00 hr 51 min 13 sec)
Heartbeat CPU 1 instructions: 100000000 cycles: 73092735 heartbeat IPC: 0.8431 cumulative IPC: 0.8339 (Simulation time: 00 hr 51 min 35 sec)
Heartbeat CPU 2 instructions: 240000002 cycles: 74809952 heartbeat IPC: 2.858 cumulative IPC: 2.908 (Simulation time: 00 hr 52 min 32 sec)
Heartbeat CPU 2 instructions: 250000004 cycles: 78246635 heartbeat IPC: 2.91 cumulative IPC: 2.908 (Simulation time: 00 hr 54 min 28 sec)
Heartbeat CPU 2 instructions: 260000002 cycles: 81681302 heartbeat IPC: 2.911 cumulative IPC: 2.908 (Simulation time: 00 hr 56 min 24 sec)
Heartbeat CPU 1 instructions: 110000003 cycles: 84861080 heartbeat IPC: 0.8497 cumulative IPC: 0.8368 (Simulation time: 00 hr 58 min 09 sec)
Heartbeat CPU 2 instructions: 270000004 cycles: 85130432 heartbeat IPC: 2.899 cumulative IPC: 2.907 (Simulation time: 00 hr 58 min 18 sec)
Heartbeat CPU 2 instructions: 280000004 cycles: 88560545 heartbeat IPC: 2.915 cumulative IPC: 2.908 (Simulation time: 01 hr 00 min 16 sec)
Heartbeat CPU 2 instructions: 290000003 cycles: 91993530 heartbeat IPC: 2.913 cumulative IPC: 2.908 (Simulation time: 01 hr 02 min 12 sec)
Heartbeat CPU 2 instructions: 300000000 cycles: 95445648 heartbeat IPC: 2.897 cumulative IPC: 2.908 (Simulation time: 01 hr 04 min 05 sec)
Heartbeat CPU 1 instructions: 120000004 cycles: 96690415 heartbeat IPC: 0.8454 cumulative IPC: 0.8382 (Simulation time: 01 hr 04 min 47 sec)
Heartbeat CPU 2 instructions: 310000004 cycles: 98869644 heartbeat IPC: 2.921 cumulative IPC: 2.908 (Simulation time: 01 hr 06 min 15 sec)
Heartbeat CPU 2 instructions: 320000001 cycles: 102299266 heartbeat IPC: 2.916 cumulative IPC: 2.908 (Simulation time: 01 hr 08 min 22 sec)
Heartbeat CPU 3 instructions: 90000004 cycles: 104123617 heartbeat IPC: 0.2766 cumulative IPC: 0.2717 (Simulation time: 01 hr 09 min 32 sec)
Heartbeat CPU 2 instructions: 330000001 cycles: 105727456 heartbeat IPC: 2.917 cumulative IPC: 2.909 (Simulation time: 01 hr 10 min 33 sec)
Heartbeat CPU 0 instructions: 70000002 cycles: 105961461 heartbeat IPC: 0.2381 cumulative IPC: 0.235 (Simulation time: 01 hr 10 min 42 sec)
Heartbeat CPU 1 instructions: 130000000 cycles: 108640872 heartbeat IPC: 0.8368 cumulative IPC: 0.838 (Simulation time: 01 hr 12 min 24 sec)
Heartbeat CPU 2 instructions: 340000004 cycles: 109179938 heartbeat IPC: 2.896 cumulative IPC: 2.908 (Simulation time: 01 hr 12 min 43 sec)
Heartbeat CPU 2 instructions: 350000001 cycles: 112627068 heartbeat IPC: 2.901 cumulative IPC: 2.908 (Simulation time: 01 hr 14 min 55 sec)
Heartbeat CPU 2 instructions: 360000001 cycles: 116062882 heartbeat IPC: 2.911 cumulative IPC: 2.908 (Simulation time: 01 hr 17 min 19 sec)
Heartbeat CPU 2 instructions: 370000001 cycles: 119483858 heartbeat IPC: 2.923 cumulative IPC: 2.909 (Simulation time: 01 hr 20 min 01 sec)
Heartbeat CPU 1 instructions: 140000002 cycles: 120435582 heartbeat IPC: 0.8478 cumulative IPC: 0.8391 (Simulation time: 01 hr 20 min 48 sec)
Heartbeat CPU 2 instructions: 380000001 cycles: 122975891 heartbeat IPC: 2.864 cumulative IPC: 2.907 (Simulation time: 01 hr 23 min 07 sec)
Heartbeat CPU 2 instructions: 390000000 cycles: 126424442 heartbeat IPC: 2.9 cumulative IPC: 2.907 (Simulation time: 01 hr 26 min 11 sec)
Heartbeat CPU 2 instructions: 400000003 cycles: 129756807 heartbeat IPC: 3.001 cumulative IPC: 2.91 (Simulation time: 01 hr 28 min 56 sec)
Heartbeat CPU 1 instructions: 150000004 cycles: 132641026 heartbeat IPC: 0.8193 cumulative IPC: 0.837 (Simulation time: 01 hr 31 min 15 sec)
Heartbeat CPU 2 instructions: 410000004 cycles: 133273867 heartbeat IPC: 2.843 cumulative IPC: 2.908 (Simulation time: 01 hr 31 min 41 sec)
Heartbeat CPU 3 instructions: 100000000 cycles: 133743987 heartbeat IPC: 0.3376 cumulative IPC: 0.289 (Simulation time: 01 hr 32 min 01 sec)
Heartbeat CPU 2 instructions: 420000001 cycles: 136656921 heartbeat IPC: 2.956 cumulative IPC: 2.909 (Simulation time: 01 hr 34 min 03 sec)
Heartbeat CPU 2 instructions: 430000003 cycles: 140303303 heartbeat IPC: 2.742 cumulative IPC: 2.904 (Simulation time: 01 hr 36 min 16 sec)
Heartbeat CPU 2 instructions: 440000000 cycles: 143813809 heartbeat IPC: 2.849 cumulative IPC: 2.902 (Simulation time: 01 hr 38 min 19 sec)
Heartbeat CPU 1 instructions: 160000004 cycles: 144661845 heartbeat IPC: 0.8319 cumulative IPC: 0.8365 (Simulation time: 01 hr 38 min 46 sec)
Heartbeat CPU 2 instructions: 450000003 cycles: 147961093 heartbeat IPC: 2.411 cumulative IPC: 2.886 (Simulation time: 01 hr 40 min 34 sec)
Heartbeat CPU 0 instructions: 80000002 cycles: 149129642 heartbeat IPC: 0.2317 cumulative IPC: 0.2339 (Simulation time: 01 hr 41 min 15 sec)
Heartbeat CPU 2 instructions: 460000000 cycles: 151322456 heartbeat IPC: 2.975 cumulative IPC: 2.889 (Simulation time: 01 hr 42 min 31 sec)
Heartbeat CPU 2 instructions: 470000002 cycles: 154729654 heartbeat IPC: 2.935 cumulative IPC: 2.89 (Simulation time: 01 hr 44 min 36 sec)
Heartbeat CPU 1 instructions: 170000000 cycles: 156781080 heartbeat IPC: 0.8251 cumulative IPC: 0.8355 (Simulation time: 01 hr 46 min 06 sec)
Heartbeat CPU 2 instructions: 480000002 cycles: 158143277 heartbeat IPC: 2.929 cumulative IPC: 2.891 (Simulation time: 01 hr 47 min 08 sec)
Heartbeat CPU 3 instructions: 110000000 cycles: 173657896 heartbeat IPC: 0.2505 cumulative IPC: 0.279 (Simulation time: 01 hr 55 min 06 sec)
Heartbeat CPU 1 instructions: 180000001 cycles: 175235836 heartbeat IPC: 0.5419 cumulative IPC: 0.8004 (Simulation time: 01 hr 55 min 58 sec)
Heartbeat CPU 2 instructions: 490000001 cycles: 178686796 heartbeat IPC: 0.4868 cumulative IPC: 2.578 (Simulation time: 01 hr 57 min 54 sec)
Heartbeat CPU 2 instructions: 500000002 cycles: 183274052 heartbeat IPC: 2.18 cumulative IPC: 2.567 (Simulation time: 02 hr 00 min 46 sec)
Heartbeat CPU 2 instructions: 510000004 cycles: 187946070 heartbeat IPC: 2.14 cumulative IPC: 2.555 (Simulation time: 02 hr 03 min 56 sec)
Heartbeat CPU 1 instructions: 190000001 cycles: 190215843 heartbeat IPC: 0.6676 cumulative IPC: 0.7886 (Simulation time: 02 hr 05 min 21 sec)
Heartbeat CPU 2 instructions: 520000001 cycles: 192447802 heartbeat IPC: 2.221 cumulative IPC: 2.546 (Simulation time: 02 hr 06 min 39 sec)
Heartbeat CPU 2 instructions: 530000000 cycles: 196999765 heartbeat IPC: 2.197 cumulative IPC: 2.537 (Simulation time: 02 hr 09 min 10 sec)
Heartbeat CPU 2 instructions: 540000004 cycles: 201531999 heartbeat IPC: 2.206 cumulative IPC: 2.529 (Simulation time: 02 hr 11 min 31 sec)
Heartbeat CPU 1 instructions: 200000002 cycles: 203574046 heartbeat IPC: 0.7486 cumulative IPC: 0.7857 (Simulation time: 02 hr 12 min 33 sec)
Heartbeat CPU 2 instructions: 550000001 cycles: 205989399 heartbeat IPC: 2.243 cumulative IPC: 2.522 (Simulation time: 02 hr 13 min 49 sec)
Heartbeat CPU 0 instructions: 90000001 cycles: 210288281 heartbeat IPC: 0.1635 cumulative IPC: 0.2112 (Simulation time: 02 hr 15 min 59 sec)
Heartbeat CPU 2 instructions: 560000000 cycles: 212677220 heartbeat IPC: 1.495 cumulative IPC: 2.486 (Simulation time: 02 hr 16 min 59 sec)
Simulation finished CPU 1 instructions: 150000001 cycles: 192257398 cumulative IPC: 0.7802 (Simulation time: 02 hr 17 min 10 sec)
Heartbeat CPU 1 instructions: 210000002 cycles: 220423519 heartbeat IPC: 0.5935 cumulative IPC: 0.7695 (Simulation time: 02 hr 20 min 04 sec)
Heartbeat CPU 3 instructions: 120000003 cycles: 225412919 heartbeat IPC: 0.1932 cumulative IPC: 0.2573 (Simulation time: 02 hr 22 min 04 sec)
Heartbeat CPU 2 instructions: 570000001 cycles: 232329047 heartbeat IPC: 0.5089 cumulative IPC: 2.302 (Simulation time: 02 hr 25 min 14 sec)
Heartbeat CPU 2 instructions: 580000001 cycles: 237034605 heartbeat IPC: 2.125 cumulative IPC: 2.298 (Simulation time: 02 hr 27 min 32 sec)
Heartbeat CPU 1 instructions: 220000000 cycles: 237898331 heartbeat IPC: 0.5723 cumulative IPC: 0.7536 (Simulation time: 02 hr 28 min 00 sec)
Heartbeat CPU 2 instructions: 590000004 cycles: 241647091 heartbeat IPC: 2.168 cumulative IPC: 2.296 (Simulation time: 02 hr 29 min 56 sec)
Heartbeat CPU 2 instructions: 600000004 cycles: 246146465 heartbeat IPC: 2.223 cumulative IPC: 2.294 (Simulation time: 02 hr 32 min 15 sec)
Heartbeat CPU 2 instructions: 610000000 cycles: 250659255 heartbeat IPC: 2.216 cumulative IPC: 2.293 (Simulation time: 02 hr 34 min 31 sec)
Heartbeat CPU 1 instructions: 230000002 cycles: 251506403 heartbeat IPC: 0.7349 cumulative IPC: 0.7525 (Simulation time: 02 hr 34 min 58 sec)
Heartbeat CPU 2 instructions: 620000002 cycles: 255142597 heartbeat IPC: 2.23 cumulative IPC: 2.291 (Simulation time: 02 hr 36 min 47 sec)
Heartbeat CPU 2 instructions: 630000004 cycles: 259692829 heartbeat IPC: 2.198 cumulative IPC: 2.29 (Simulation time: 02 hr 39 min 05 sec)
Heartbeat CPU 1 instructions: 240000003 cycles: 267037465 heartbeat IPC: 0.6439 cumulative IPC: 0.7456 (Simulation time: 02 hr 42 min 22 sec)
Heartbeat CPU 3 instructions: 130000000 cycles: 279650452 heartbeat IPC: 0.1844 cumulative IPC: 0.242 (Simulation time: 02 hr 47 min 35 sec)
Heartbeat CPU 2 instructions: 640000002 cycles: 281400642 heartbeat IPC: 0.4607 cumulative IPC: 2.137 (Simulation time: 02 hr 48 min 30 sec)
Heartbeat CPU 2 instructions: 650000001 cycles: 286017444 heartbeat IPC: 2.166 cumulative IPC: 2.138 (Simulation time: 02 hr 50 min 56 sec)
Heartbeat CPU 1 instructions: 250000003 cycles: 286062578 heartbeat IPC: 0.5256 cumulative IPC: 0.7298 (Simulation time: 02 hr 50 min 57 sec)
Heartbeat CPU 0 instructions: 100000000 cycles: 290451539 heartbeat IPC: 0.1247 cumulative IPC: 0.1855 (Simulation time: 02 hr 53 min 15 sec)
Heartbeat CPU 2 instructions: 660000003 cycles: 290675827 heartbeat IPC: 2.147 cumulative IPC: 2.138 (Simulation time: 02 hr 53 min 23 sec)
Heartbeat CPU 2 instructions: 670000002 cycles: 295129580 heartbeat IPC: 2.245 cumulative IPC: 2.14 (Simulation time: 02 hr 55 min 42 sec)
Heartbeat CPU 2 instructions: 680000004 cycles: 299689624 heartbeat IPC: 2.193 cumulative IPC: 2.141 (Simulation time: 02 hr 58 min 06 sec)
Heartbeat CPU 1 instructions: 260000001 cycles: 299943126 heartbeat IPC: 0.7204 cumulative IPC: 0.7294 (Simulation time: 02 hr 58 min 13 sec)
Heartbeat CPU 2 instructions: 690000001 cycles: 304172196 heartbeat IPC: 2.231 cumulative IPC: 2.142 (Simulation time: 03 hr 00 min 32 sec)
Heartbeat CPU 2 instructions: 700000000 cycles: 308668400 heartbeat IPC: 2.224 cumulative IPC: 2.143 (Simulation time: 03 hr 02 min 55 sec)
Heartbeat CPU 1 instructions: 270000002 cycles: 313976875 heartbeat IPC: 0.7126 cumulative IPC: 0.7286 (Simulation time: 03 hr 05 min 34 sec)
Heartbeat CPU 2 instructions: 710000004 cycles: 326957482 heartbeat IPC: 0.5468 cumulative IPC: 2.048 (Simulation time: 03 hr 10 min 50 sec)
Heartbeat CPU 1 instructions: 280000000 cycles: 334318153 heartbeat IPC: 0.4916 cumulative IPC: 0.7132 (Simulation time: 03 hr 14 min 14 sec)
Heartbeat CPU 3 instructions: 140000002 cycles: 334782025 heartbeat IPC: 0.1814 cumulative IPC: 0.2313 (Simulation time: 03 hr 14 min 31 sec)
Heartbeat CPU 2 instructions: 720000000 cycles: 335756805 heartbeat IPC: 1.136 cumulative IPC: 2.022 (Simulation time: 03 hr 15 min 01 sec)
Heartbeat CPU 2 instructions: 730000004 cycles: 340410034 heartbeat IPC: 2.149 cumulative IPC: 2.024 (Simulation time: 03 hr 17 min 27 sec)
Heartbeat CPU 2 instructions: 740000001 cycles: 344948056 heartbeat IPC: 2.204 cumulative IPC: 2.027 (Simulation time: 03 hr 20 min 37 sec)
Heartbeat CPU 1 instructions: 290000001 cycles: 348462889 heartbeat IPC: 0.707 cumulative IPC: 0.7129 (Simulation time: 03 hr 22 min 46 sec)
Heartbeat CPU 2 instructions: 750000003 cycles: 349413477 heartbeat IPC: 2.239 cumulative IPC: 2.03 (Simulation time: 03 hr 23 min 16 sec)
Heartbeat CPU 2 instructions: 760000000 cycles: 353943658 heartbeat IPC: 2.207 cumulative IPC: 2.032 (Simulation time: 03 hr 26 min 24 sec)
Heartbeat CPU 0 instructions: 110000004 cycles: 357051446 heartbeat IPC: 0.1502 cumulative IPC: 0.1785 (Simulation time: 03 hr 28 min 42 sec)
Heartbeat CPU 2 instructions: 770000004 cycles: 358523741 heartbeat IPC: 2.183 cumulative IPC: 2.034 (Simulation time: 03 hr 29 min 37 sec)
Heartbeat CPU 1 instructions: 300000001 cycles: 362104262 heartbeat IPC: 0.7331 cumulative IPC: 0.7137 (Simulation time: 03 hr 32 min 04 sec)
Heartbeat CPU 2 instructions: 780000003 cycles: 363026044 heartbeat IPC: 2.221 cumulative IPC: 2.037 (Simulation time: 03 hr 32 min 43 sec)
Heartbeat CPU 1 instructions: 310000000 cycles: 382343883 heartbeat IPC: 0.4941 cumulative IPC: 0.7014 (Simulation time: 03 hr 42 min 37 sec)
Heartbeat CPU 2 instructions: 790000001 cycles: 384698585 heartbeat IPC: 0.4614 cumulative IPC: 1.943 (Simulation time: 03 hr 44 min 13 sec)
Heartbeat CPU 3 instructions: 150000000 cycles: 387112526 heartbeat IPC: 0.1911 cumulative IPC: 0.2256 (Simulation time: 03 hr 45 min 24 sec)
Heartbeat CPU 2 instructions: 800000003 cycles: 389280248 heartbeat IPC: 2.183 cumulative IPC: 1.946 (Simulation time: 03 hr 46 min 42 sec)
Heartbeat CPU 2 instructions: 810000002 cycles: 393931624 heartbeat IPC: 2.15 cumulative IPC: 1.948 (Simulation time: 03 hr 49 min 58 sec)
Heartbeat CPU 1 instructions: 320000001 cycles: 396473233 heartbeat IPC: 0.7077 cumulative IPC: 0.7017 (Simulation time: 03 hr 51 min 50 sec)
Heartbeat CPU 2 instructions: 820000001 cycles: 398401729 heartbeat IPC: 2.237 cumulative IPC: 1.952 (Simulation time: 03 hr 53 min 17 sec)
Heartbeat CPU 2 instructions: 830000003 cycles: 402976771 heartbeat IPC: 2.186 cumulative IPC: 1.955 (Simulation time: 03 hr 56 min 41 sec)
Heartbeat CPU 2 instructions: 840000000 cycles: 407499578 heartbeat IPC: 2.211 cumulative IPC: 1.958 (Simulation time: 04 hr 00 min 00 sec)
Heartbeat CPU 1 instructions: 330000001 cycles: 410174073 heartbeat IPC: 0.7299 cumulative IPC: 0.7027 (Simulation time: 04 hr 01 min 42 sec)
Heartbeat CPU 2 instructions: 850000002 cycles: 412053272 heartbeat IPC: 2.196 cumulative IPC: 1.96 (Simulation time: 04 hr 02 min 44 sec)
Heartbeat CPU 1 instructions: 340000003 cycles: 428994031 heartbeat IPC: 0.5314 cumulative IPC: 0.6948 (Simulation time: 04 hr 10 min 47 sec)
Heartbeat CPU 2 instructions: 860000002 cycles: 433911960 heartbeat IPC: 0.4575 cumulative IPC: 1.881 (Simulation time: 04 hr 12 min 51 sec)
Heartbeat CPU 0 instructions: 120000004 cycles: 434445772 heartbeat IPC: 0.1292 cumulative IPC: 0.1693 (Simulation time: 04 hr 13 min 13 sec)
Heartbeat CPU 3 instructions: 160000002 cycles: 438279685 heartbeat IPC: 0.1954 cumulative IPC: 0.2219 (Simulation time: 04 hr 15 min 24 sec)
Heartbeat CPU 2 instructions: 870000001 cycles: 438485609 heartbeat IPC: 2.186 cumulative IPC: 1.884 (Simulation time: 04 hr 15 min 31 sec)
Heartbeat CPU 2 instructions: 880000000 cycles: 443161438 heartbeat IPC: 2.139 cumulative IPC: 1.887 (Simulation time: 04 hr 17 min 56 sec)
Heartbeat CPU 1 instructions: 350000000 cycles: 444836234 heartbeat IPC: 0.6312 cumulative IPC: 0.6924 (Simulation time: 04 hr 18 min 51 sec)
Heartbeat CPU 2 instructions: 890000000 cycles: 447628306 heartbeat IPC: 2.239 cumulative IPC: 1.891 (Simulation time: 04 hr 20 min 48 sec)
Heartbeat CPU 2 instructions: 900000002 cycles: 452112935 heartbeat IPC: 2.23 cumulative IPC: 1.894 (Simulation time: 04 hr 23 min 35 sec)
Heartbeat CPU 2 instructions: 910000001 cycles: 456576242 heartbeat IPC: 2.24 cumulative IPC: 1.898 (Simulation time: 04 hr 26 min 09 sec)
Heartbeat CPU 1 instructions: 360000003 cycles: 458406616 heartbeat IPC: 0.7369 cumulative IPC: 0.6938 (Simulation time: 04 hr 27 min 12 sec)
Heartbeat CPU 2 instructions: 920000004 cycles: 461106541 heartbeat IPC: 2.207 cumulative IPC: 1.901 (Simulation time: 04 hr 28 min 47 sec)
Heartbeat CPU 2 instructions: 930000000 cycles: 465602398 heartbeat IPC: 2.224 cumulative IPC: 1.904 (Simulation time: 04 hr 31 min 14 sec)
Heartbeat CPU 1 instructions: 370000001 cycles: 474683556 heartbeat IPC: 0.6144 cumulative IPC: 0.6909 (Simulation time: 04 hr 35 min 04 sec)
Heartbeat CPU 2 instructions: 940000002 cycles: 487485160 heartbeat IPC: 0.457 cumulative IPC: 1.836 (Simulation time: 04 hr 40 min 38 sec)
Heartbeat CPU 3 instructions: 170000000 cycles: 491691196 heartbeat IPC: 0.1872 cumulative IPC: 0.218 (Simulation time: 04 hr 42 min 52 sec)
Heartbeat CPU 2 instructions: 950000002 cycles: 492104353 heartbeat IPC: 2.165 cumulative IPC: 1.839 (Simulation time: 04 hr 43 min 07 sec)
Heartbeat CPU 1 instructions: 380000002 cycles: 492747774 heartbeat IPC: 0.5536 cumulative IPC: 0.6857 (Simulation time: 04 hr 43 min 29 sec)
Heartbeat CPU 2 instructions: 960000000 cycles: 496719835 heartbeat IPC: 2.167 cumulative IPC: 1.843 (Simulation time: 04 hr 45 min 32 sec)
Heartbeat CPU 2 instructions: 970000000 cycles: 501197628 heartbeat IPC: 2.233 cumulative IPC: 1.846 (Simulation time: 04 hr 47 min 55 sec)
Heartbeat CPU 0 instructions: 130000002 cycles: 502207730 heartbeat IPC: 0.1476 cumulative IPC: 0.1662 (Simulation time: 04 hr 48 min 29 sec)
Heartbeat CPU 2 instructions: 980000000 cycles: 505774426 heartbeat IPC: 2.185 cumulative IPC: 1.849 (Simulation time: 04 hr 50 min 31 sec)
Heartbeat CPU 1 instructions: 390000004 cycles: 506442203 heartbeat IPC: 0.7302 cumulative IPC: 0.6869 (Simulation time: 04 hr 50 min 52 sec)
Heartbeat CPU 2 instructions: 990000002 cycles: 510239720 heartbeat IPC: 2.239 cumulative IPC: 1.853 (Simulation time: 04 hr 53 min 20 sec)
Heartbeat CPU 2 instructions: 1000000001 cycles: 514776782 heartbeat IPC: 2.204 cumulative IPC: 1.856 (Simulation time: 04 hr 55 min 51 sec)
Heartbeat CPU 1 instructions: 400000003 cycles: 521119707 heartbeat IPC: 0.6813 cumulative IPC: 0.6868 (Simulation time: 04 hr 58 min 47 sec)
Heartbeat CPU 2 instructions: 1010000002 cycles: 536348416 heartbeat IPC: 0.4636 cumulative IPC: 1.798 (Simulation time: 05 hr 05 min 25 sec)
Heartbeat CPU 1 instructions: 410000004 cycles: 540592005 heartbeat IPC: 0.5136 cumulative IPC: 0.6803 (Simulation time: 05 hr 07 min 40 sec)
Heartbeat CPU 2 instructions: 1020000000 cycles: 540991210 heartbeat IPC: 2.154 cumulative IPC: 1.801 (Simulation time: 05 hr 07 min 53 sec)
Heartbeat CPU 3 instructions: 180000001 cycles: 542750157 heartbeat IPC: 0.1959 cumulative IPC: 0.2158 (Simulation time: 05 hr 08 min 50 sec)
Heartbeat CPU 2 instructions: 1030000000 cycles: 545614756 heartbeat IPC: 2.163 cumulative IPC: 1.804 (Simulation time: 05 hr 10 min 23 sec)
Heartbeat CPU 2 instructions: 1040000001 cycles: 550143719 heartbeat IPC: 2.208 cumulative IPC: 1.808 (Simulation time: 05 hr 12 min 42 sec)
Heartbeat CPU 1 instructions: 420000000 cycles: 554471804 heartbeat IPC: 0.7205 cumulative IPC: 0.6813 (Simulation time: 05 hr 15 min 01 sec)
Heartbeat CPU 2 instructions: 1050000000 cycles: 554654836 heartbeat IPC: 2.217 cumulative IPC: 1.811 (Simulation time: 05 hr 15 min 06 sec)
Heartbeat CPU 2 instructions: 1060000003 cycles: 559115931 heartbeat IPC: 2.242 cumulative IPC: 1.815 (Simulation time: 05 hr 17 min 29 sec)
Heartbeat CPU 2 instructions: 1070000000 cycles: 563556182 heartbeat IPC: 2.252 cumulative IPC: 1.818 (Simulation time: 05 hr 19 min 45 sec)
Heartbeat CPU 0 instructions: 140000001 cycles: 567241314 heartbeat IPC: 0.1538 cumulative IPC: 0.1647 (Simulation time: 05 hr 21 min 41 sec)
Heartbeat CPU 1 instructions: 430000002 cycles: 568297397 heartbeat IPC: 0.7233 cumulative IPC: 0.6824 (Simulation time: 05 hr 22 min 12 sec)
Heartbeat CPU 2 instructions: 1080000001 cycles: 574561480 heartbeat IPC: 0.9087 cumulative IPC: 1.8 (Simulation time: 05 hr 24 min 39 sec)
Heartbeat CPU 1 instructions: 440000002 cycles: 588463232 heartbeat IPC: 0.4959 cumulative IPC: 0.6757 (Simulation time: 05 hr 30 min 31 sec)
Heartbeat CPU 2 instructions: 1090000000 cycles: 589629574 heartbeat IPC: 0.6637 cumulative IPC: 1.77 (Simulation time: 05 hr 31 min 07 sec)
Heartbeat CPU 2 instructions: 1100000000 cycles: 594282358 heartbeat IPC: 2.149 cumulative IPC: 1.773 (Simulation time: 05 hr 33 min 29 sec)
Heartbeat CPU 3 instructions: 190000003 cycles: 595200708 heartbeat IPC: 0.1907 cumulative IPC: 0.2135 (Simulation time: 05 hr 33 min 58 sec)
Heartbeat CPU 2 instructions: 1110000000 cycles: 598820199 heartbeat IPC: 2.204 cumulative IPC: 1.777 (Simulation time: 05 hr 35 min 48 sec)
Heartbeat CPU 1 instructions: 450000000 cycles: 602513386 heartbeat IPC: 0.7117 cumulative IPC: 0.6766 (Simulation time: 05 hr 37 min 42 sec)
Heartbeat CPU 2 instructions: 1120000000 cycles: 603266414 heartbeat IPC: 2.249 cumulative IPC: 1.78 (Simulation time: 05 hr 38 min 06 sec)
Heartbeat CPU 2 instructions: 1130000001 cycles: 607860685 heartbeat IPC: 2.177 cumulative IPC: 1.783 (Simulation time: 05 hr 40 min 25 sec)
Heartbeat CPU 2 instructions: 1140000004 cycles: 612287321 heartbeat IPC: 2.259 cumulative IPC: 1.787 (Simulation time: 05 hr 42 min 42 sec)
Heartbeat CPU 1 instructions: 460000001 cycles: 616067275 heartbeat IPC: 0.7378 cumulative IPC: 0.678 (Simulation time: 05 hr 44 min 37 sec)
Heartbeat CPU 2 instructions: 1150000000 cycles: 616759886 heartbeat IPC: 2.236 cumulative IPC: 1.79 (Simulation time: 05 hr 44 min 59 sec)
Heartbeat CPU 1 instructions: 470000001 cycles: 636171986 heartbeat IPC: 0.4974 cumulative IPC: 0.6721 (Simulation time: 05 hr 53 min 01 sec)
Heartbeat CPU 2 instructions: 1160000000 cycles: 638572852 heartbeat IPC: 0.4584 cumulative IPC: 1.743 (Simulation time: 05 hr 54 min 11 sec)
Heartbeat CPU 2 instructions: 1170000000 cycles: 643101265 heartbeat IPC: 2.208 cumulative IPC: 1.747 (Simulation time: 05 hr 56 min 32 sec)
Heartbeat CPU 0 instructions: 150000003 cycles: 646065252 heartbeat IPC: 0.1269 cumulative IPC: 0.16 (Simulation time: 05 hr 58 min 02 sec)
Heartbeat CPU 2 instructions: 1180000001 cycles: 647674236 heartbeat IPC: 2.187 cumulative IPC: 1.75 (Simulation time: 05 hr 58 min 50 sec)
Heartbeat CPU 3 instructions: 200000000 cycles: 648184732 heartbeat IPC: 0.1887 cumulative IPC: 0.2114 (Simulation time: 05 hr 59 min 07 sec)
Heartbeat CPU 1 instructions: 480000001 cycles: 650591403 heartbeat IPC: 0.6935 cumulative IPC: 0.6726 (Simulation time: 06 hr 00 min 28 sec)
Heartbeat CPU 2 instructions: 1190000000 cycles: 652154679 heartbeat IPC: 2.232 cumulative IPC: 1.753 (Simulation time: 06 hr 01 min 20 sec)
Heartbeat CPU 2 instructions: 1200000000 cycles: 656684609 heartbeat IPC: 2.208 cumulative IPC: 1.757 (Simulation time: 06 hr 03 min 56 sec)
Heartbeat CPU 2 instructions: 1210000000 cycles: 661218785 heartbeat IPC: 2.205 cumulative IPC: 1.76 (Simulation time: 06 hr 06 min 27 sec)
Heartbeat CPU 1 instructions: 490000003 cycles: 664036648 heartbeat IPC: 0.7438 cumulative IPC: 0.6741 (Simulation time: 06 hr 08 min 00 sec)
Heartbeat CPU 2 instructions: 1220000002 cycles: 665748026 heartbeat IPC: 2.208 cumulative IPC: 1.763 (Simulation time: 06 hr 09 min 03 sec)
Heartbeat CPU 1 instructions: 500000004 cycles: 681639581 heartbeat IPC: 0.5681 cumulative IPC: 0.6713 (Simulation time: 06 hr 16 min 19 sec)
Heartbeat CPU 2 instructions: 1230000001 cycles: 682955524 heartbeat IPC: 0.5811 cumulative IPC: 1.732 (Simulation time: 06 hr 16 min 53 sec)
Heartbeat CPU 1 instructions: 510000004 cycles: 701567012 heartbeat IPC: 0.5018 cumulative IPC: 0.6663 (Simulation time: 06 hr 27 min 03 sec)
Heartbeat CPU 2 instructions: 1240000003 cycles: 706617722 heartbeat IPC: 0.4226 cumulative IPC: 1.687 (Simulation time: 06 hr 29 min 34 sec)
Heartbeat CPU 3 instructions: 210000000 cycles: 712966285 heartbeat IPC: 0.1544 cumulative IPC: 0.2061 (Simulation time: 06 hr 33 min 00 sec)
Heartbeat CPU 1 instructions: 520000000 cycles: 720484194 heartbeat IPC: 0.5286 cumulative IPC: 0.6626 (Simulation time: 06 hr 36 min 56 sec)
Heartbeat CPU 2 instructions: 1250000001 cycles: 734034720 heartbeat IPC: 0.3647 cumulative IPC: 1.636 (Simulation time: 06 hr 44 min 34 sec)
Heartbeat CPU 0 instructions: 160000002 cycles: 737529159 heartbeat IPC: 0.1093 cumulative IPC: 0.1535 (Simulation time: 06 hr 46 min 51 sec)
Heartbeat CPU 1 instructions: 530000001 cycles: 739961603 heartbeat IPC: 0.5134 cumulative IPC: 0.6585 (Simulation time: 06 hr 48 min 17 sec)
Heartbeat CPU 1 instructions: 540000002 cycles: 760007444 heartbeat IPC: 0.4989 cumulative IPC: 0.6542 (Simulation time: 06 hr 58 min 39 sec)
Heartbeat CPU 2 instructions: 1260000002 cycles: 766518062 heartbeat IPC: 0.3079 cumulative IPC: 1.578 (Simulation time: 07 hr 01 min 48 sec)
Heartbeat CPU 1 instructions: 550000000 cycles: 778854149 heartbeat IPC: 0.5306 cumulative IPC: 0.6511 (Simulation time: 07 hr 09 min 01 sec)
Simulation finished CPU 3 instructions: 150000003 cycles: 770466078 cumulative IPC: 0.1947 (Simulation time: 07 hr 16 min 09 sec)
Heartbeat CPU 2 instructions: 1270000002 cycles: 792021369 heartbeat IPC: 0.3921 cumulative IPC: 1.539 (Simulation time: 07 hr 16 min 31 sec)
Heartbeat CPU 1 instructions: 560000002 cycles: 798051464 heartbeat IPC: 0.5209 cumulative IPC: 0.6479 (Simulation time: 07 hr 19 min 59 sec)
Heartbeat CPU 1 instructions: 570000001 cycles: 816835459 heartbeat IPC: 0.5324 cumulative IPC: 0.6452 (Simulation time: 07 hr 28 min 53 sec)
Heartbeat CPU 3 instructions: 220000004 cycles: 818575897 heartbeat IPC: 0.09469 cumulative IPC: 0.1913 (Simulation time: 07 hr 29 min 38 sec)
Heartbeat CPU 2 instructions: 1280000001 cycles: 819175061 heartbeat IPC: 0.3683 cumulative IPC: 1.499 (Simulation time: 07 hr 29 min 54 sec)
Heartbeat CPU 1 instructions: 580000000 cycles: 836723289 heartbeat IPC: 0.5028 cumulative IPC: 0.6417 (Simulation time: 07 hr 38 min 26 sec)
Heartbeat CPU 2 instructions: 1290000002 cycles: 848420094 heartbeat IPC: 0.3419 cumulative IPC: 1.458 (Simulation time: 07 hr 43 min 25 sec)
Heartbeat CPU 1 instructions: 590000002 cycles: 856863160 heartbeat IPC: 0.4965 cumulative IPC: 0.6382 (Simulation time: 07 hr 47 min 14 sec)
Heartbeat CPU 0 instructions: 170000001 cycles: 860472912 heartbeat IPC: 0.08134 cumulative IPC: 0.1429 (Simulation time: 07 hr 49 min 21 sec)
Heartbeat CPU 1 instructions: 600000000 cycles: 875653737 heartbeat IPC: 0.5322 cumulative IPC: 0.6359 (Simulation time: 07 hr 57 min 28 sec)
Heartbeat CPU 2 instructions: 1300000000 cycles: 876929083 heartbeat IPC: 0.3508 cumulative IPC: 1.421 (Simulation time: 07 hr 58 min 11 sec)
Heartbeat CPU 1 instructions: 610000001 cycles: 895012791 heartbeat IPC: 0.5166 cumulative IPC: 0.6332 (Simulation time: 08 hr 08 min 18 sec)
Heartbeat CPU 2 instructions: 1310000000 cycles: 903943257 heartbeat IPC: 0.3702 cumulative IPC: 1.389 (Simulation time: 08 hr 13 min 26 sec)
Heartbeat CPU 1 instructions: 620000002 cycles: 915111393 heartbeat IPC: 0.4975 cumulative IPC: 0.6302 (Simulation time: 08 hr 19 min 43 sec)
Heartbeat CPU 3 instructions: 230000000 cycles: 929918839 heartbeat IPC: 0.08981 cumulative IPC: 0.1789 (Simulation time: 08 hr 28 min 09 sec)
Heartbeat CPU 2 instructions: 1320000002 cycles: 930431847 heartbeat IPC: 0.3775 cumulative IPC: 1.36 (Simulation time: 08 hr 28 min 26 sec)
Heartbeat CPU 1 instructions: 630000003 cycles: 934667229 heartbeat IPC: 0.5114 cumulative IPC: 0.6277 (Simulation time: 08 hr 30 min 49 sec)
Heartbeat CPU 1 instructions: 640000004 cycles: 954196568 heartbeat IPC: 0.5121 cumulative IPC: 0.6252 (Simulation time: 08 hr 41 min 39 sec)
Heartbeat CPU 2 instructions: 1330000003 cycles: 962621423 heartbeat IPC: 0.3107 cumulative IPC: 1.324 (Simulation time: 08 hr 46 min 15 sec)
Heartbeat CPU 1 instructions: 650000000 cycles: 973839270 heartbeat IPC: 0.5091 cumulative IPC: 0.6228 (Simulation time: 08 hr 52 min 10 sec)
Heartbeat CPU 0 instructions: 180000001 cycles: 983303368 heartbeat IPC: 0.08141 cumulative IPC: 0.1351 (Simulation time: 08 hr 57 min 15 sec)
Heartbeat CPU 2 instructions: 1340000000 cycles: 990022619 heartbeat IPC: 0.3649 cumulative IPC: 1.297 (Simulation time: 09 hr 00 min 49 sec)
Heartbeat CPU 1 instructions: 660000002 cycles: 992227519 heartbeat IPC: 0.5438 cumulative IPC: 0.6213 (Simulation time: 09 hr 02 min 00 sec)
Heartbeat CPU 1 instructions: 670000001 cycles: 1011835272 heartbeat IPC: 0.51 cumulative IPC: 0.6191 (Simulation time: 09 hr 12 min 26 sec)
Heartbeat CPU 2 instructions: 1350000004 cycles: 1012674045 heartbeat IPC: 0.4415 cumulative IPC: 1.277 (Simulation time: 09 hr 12 min 51 sec)
Heartbeat CPU 3 instructions: 240000002 cycles: 1030967959 heartbeat IPC: 0.09896 cumulative IPC: 0.1709 (Simulation time: 09 hr 21 min 59 sec)
Heartbeat CPU 1 instructions: 680000002 cycles: 1032139608 heartbeat IPC: 0.4925 cumulative IPC: 0.6166 (Simulation time: 09 hr 22 min 35 sec)
Heartbeat CPU 2 instructions: 1360000002 cycles: 1049366921 heartbeat IPC: 0.2725 cumulative IPC: 1.241 (Simulation time: 09 hr 31 min 56 sec)
Heartbeat CPU 1 instructions: 690000001 cycles: 1050927449 heartbeat IPC: 0.5323 cumulative IPC: 0.6151 (Simulation time: 09 hr 32 min 47 sec)
Heartbeat CPU 1 instructions: 700000003 cycles: 1070142162 heartbeat IPC: 0.5204 cumulative IPC: 0.6133 (Simulation time: 09 hr 41 min 53 sec)
Heartbeat CPU 2 instructions: 1370000004 cycles: 1072284616 heartbeat IPC: 0.4363 cumulative IPC: 1.224 (Simulation time: 09 hr 42 min 48 sec)
Heartbeat CPU 1 instructions: 710000002 cycles: 1089236943 heartbeat IPC: 0.5237 cumulative IPC: 0.6117 (Simulation time: 09 hr 50 min 10 sec)
Heartbeat CPU 2 instructions: 1380000004 cycles: 1099589353 heartbeat IPC: 0.3662 cumulative IPC: 1.202 (Simulation time: 09 hr 54 min 32 sec)
Heartbeat CPU 0 instructions: 190000003 cycles: 1103662708 heartbeat IPC: 0.08308 cumulative IPC: 0.1293 (Simulation time: 09 hr 56 min 20 sec)
Heartbeat CPU 1 instructions: 720000001 cycles: 1108794568 heartbeat IPC: 0.5113 cumulative IPC: 0.6099 (Simulation time: 09 hr 58 min 29 sec)
Heartbeat CPU 1 instructions: 730000003 cycles: 1129064795 heartbeat IPC: 0.4933 cumulative IPC: 0.6078 (Simulation time: 10 hr 07 min 12 sec)
Heartbeat CPU 2 instructions: 1390000000 cycles: 1134658754 heartbeat IPC: 0.2851 cumulative IPC: 1.173 (Simulation time: 10 hr 09 min 35 sec)
Heartbeat CPU 3 instructions: 250000000 cycles: 1135155386 heartbeat IPC: 0.09598 cumulative IPC: 0.1639 (Simulation time: 10 hr 09 min 50 sec)
Heartbeat CPU 1 instructions: 740000001 cycles: 1147695817 heartbeat IPC: 0.5367 cumulative IPC: 0.6066 (Simulation time: 10 hr 15 min 24 sec)
Heartbeat CPU 2 instructions: 1400000002 cycles: 1158225544 heartbeat IPC: 0.4243 cumulative IPC: 1.158 (Simulation time: 10 hr 20 min 00 sec)
Heartbeat CPU 1 instructions: 750000002 cycles: 1166961037 heartbeat IPC: 0.5191 cumulative IPC: 0.6051 (Simulation time: 10 hr 23 min 57 sec)
Heartbeat CPU 2 instructions: 1410000002 cycles: 1186120858 heartbeat IPC: 0.3585 cumulative IPC: 1.139 (Simulation time: 10 hr 32 min 34 sec)
Heartbeat CPU 1 instructions: 760000003 cycles: 1186868168 heartbeat IPC: 0.5023 cumulative IPC: 0.6034 (Simulation time: 10 hr 32 min 52 sec)
Heartbeat CPU 1 instructions: 770000003 cycles: 1206278291 heartbeat IPC: 0.5152 cumulative IPC: 0.6019 (Simulation time: 10 hr 41 min 21 sec)
Heartbeat CPU 2 instructions: 1420000003 cycles: 1217779070 heartbeat IPC: 0.3159 cumulative IPC: 1.117 (Simulation time: 10 hr 46 min 22 sec)
Heartbeat CPU 1 instructions: 780000002 cycles: 1225988539 heartbeat IPC: 0.5074 cumulative IPC: 0.6004 (Simulation time: 10 hr 49 min 53 sec)
Heartbeat CPU 0 instructions: 200000001 cycles: 1227369318 heartbeat IPC: 0.08084 cumulative IPC: 0.1243 (Simulation time: 10 hr 50 min 30 sec)
Simulation finished CPU 0 instructions: 150000002 cycles: 1206498021 cumulative IPC: 0.1243 (Simulation time: 10 hr 50 min 30 sec)
Simulation complete CPU 0 instructions: 150000002 cycles: 1206498021 cumulative IPC: 0.1243 (Simulation time: 10 hr 50 min 30 sec)
Simulation complete CPU 1 instructions: 724319259 cycles: 1206498021 cumulative IPC: 0.6003 (Simulation time: 10 hr 50 min 30 sec)
Simulation complete CPU 2 instructions: 1339549685 cycles: 1206498021 cumulative IPC: 1.11 (Simulation time: 10 hr 50 min 30 sec)
Simulation complete CPU 3 instructions: 191617335 cycles: 1206498021 cumulative IPC: 0.1588 (Simulation time: 10 hr 50 min 30 sec)

ChampSim completed all CPUs

=== Simulation ===
CPU 0 runs /home/das/dpc3_traces/620.omnetpp_s-874B.champsimtrace.xzCPU 1 runs /home/das/dpc3_traces/607.cactuBSSN_s-2421B.champsimtrace.xzCPU 2 runs /home/das/dpc3_traces/654.roms_s-842B.champsimtrace.xzCPU 3 runs /home/das/dpc3_traces/605.mcf_s-665B.champsimtrace.xz
Total Simulation Statistics (not including warmup)

CPU 0 cumulative IPC: 0.1243 instructions: 150000002 cycles: 1206498021
CPU 0 Branch Prediction Accuracy: 94.9% MPKI: 10.6 Average ROB Occupancy at Mispredict: 84.61
Branch type MPKI
BRANCH_DIRECT_JUMP: 0.923
BRANCH_INDIRECT: 0.128
BRANCH_CONDITIONAL: 8.42
BRANCH_DIRECT_CALL: 0.00016
BRANCH_INDIRECT_CALL: 0.734
BRANCH_RETURN: 0.399


CPU 1 cumulative IPC: 0.6003 instructions: 724319259 cycles: 1206498021
CPU 1 Branch Prediction Accuracy: 99.85% MPKI: 0.0018 Average ROB Occupancy at Mispredict: 348.9
Branch type MPKI
BRANCH_DIRECT_JUMP: 1.38e-06
BRANCH_INDIRECT: 6.9e-06
BRANCH_CONDITIONAL: 0.00179
BRANCH_DIRECT_CALL: 0
BRANCH_INDIRECT_CALL: 0
BRANCH_RETURN: 0


CPU 2 cumulative IPC: 1.11 instructions: 1339549685 cycles: 1206498021
CPU 2 Branch Prediction Accuracy: 91.08% MPKI: 10.31 Average ROB Occupancy at Mispredict: 83.93
Branch type MPKI
BRANCH_DIRECT_JUMP: 0.0466
BRANCH_INDIRECT: 0
BRANCH_CONDITIONAL: 5.99
BRANCH_DIRECT_CALL: 5.97e-06
BRANCH_INDIRECT_CALL: 0
BRANCH_RETURN: 4.28


CPU 3 cumulative IPC: 0.1588 instructions: 191617335 cycles: 1206498021
CPU 3 Branch Prediction Accuracy: 90.41% MPKI: 23.71 Average ROB Occupancy at Mispredict: 18.95
Branch type MPKI
BRANCH_DIRECT_JUMP: 0.256
BRANCH_INDIRECT: 0
BRANCH_CONDITIONAL: 23.5
BRANCH_DIRECT_CALL: 0
BRANCH_INDIRECT_CALL: 0.000538
BRANCH_RETURN: 0

LLC TOTAL        ACCESS:    3517308 HIT:    1223280 MISS:    2294028
LLC LOAD         ACCESS:    1685072 HIT:     272029 MISS:    1413043
LLC RFO          ACCESS:     257393 HIT:      72281 MISS:     185112
LLC PREFETCH     ACCESS:      10826 HIT:        882 MISS:       9944
LLC WRITE        ACCESS:     967975 HIT:     837866 MISS:     130109
LLC TRANSLATION  ACCESS:     596042 HIT:      40222 MISS:     555820
LLC PREFETCH REQUESTED:          0 ISSUED:          0 USEFUL:          0 USELESS:          0
LLC AVERAGE MISS LATENCY: 2225 cycles
LLC TOTAL        ACCESS:    8418314 HIT:    2814746 MISS:    5603568
LLC LOAD         ACCESS:    7569182 HIT:    2031215 MISS:    5537967
LLC RFO          ACCESS:      17996 HIT:      17996 MISS:          0
LLC PREFETCH     ACCESS:          0 HIT:          0 MISS:          0
LLC WRITE        ACCESS:     721975 HIT:     721833 MISS:        142
LLC TRANSLATION  ACCESS:     109161 HIT:      43702 MISS:      65459
LLC PREFETCH REQUESTED:          0 ISSUED:          0 USEFUL:          0 USELESS:          0
LLC AVERAGE MISS LATENCY: 2225 cycles
LLC TOTAL        ACCESS:   10903542 HIT:    2922496 MISS:    7981046
LLC LOAD         ACCESS:     960233 HIT:     188341 MISS:     771892
LLC RFO          ACCESS:    2473413 HIT:      69813 MISS:    2403600
LLC PREFETCH     ACCESS:    4953242 HIT:     199185 MISS:    4754057
LLC WRITE        ACCESS:    2478152 HIT:    2454450 MISS:      23702
LLC TRANSLATION  ACCESS:      38502 HIT:      10707 MISS:      27795
LLC PREFETCH REQUESTED:          0 ISSUED:          0 USEFUL:          0 USELESS:          0
LLC AVERAGE MISS LATENCY: 2225 cycles
LLC TOTAL        ACCESS:    5122553 HIT:    2540981 MISS:    2581572
LLC LOAD         ACCESS:    2523178 HIT:    1593674 MISS:     929504
LLC RFO          ACCESS:     329152 HIT:     306167 MISS:      22985
LLC PREFETCH     ACCESS:    1729253 HIT:     159392 MISS:    1569861
LLC WRITE        ACCESS:     523297 HIT:     473111 MISS:      50186
LLC TRANSLATION  ACCESS:      17673 HIT:       8637 MISS:       9036
LLC PREFETCH REQUESTED:          0 ISSUED:          0 USEFUL:          0 USELESS:          0
LLC AVERAGE MISS LATENCY: 2225 cycles
cpu0_DTLB TOTAL        ACCESS:   38356917 HIT:   35056384 MISS:    3300533
cpu0_DTLB LOAD         ACCESS:   38356917 HIT:   35056384 MISS:    3300533
cpu0_DTLB RFO          ACCESS:          0 HIT:          0 MISS:          0
cpu0_DTLB PREFETCH     ACCESS:          0 HIT:          0 MISS:          0
cpu0_DTLB WRITE        ACCESS:          0 HIT:          0 MISS:          0
cpu0_DTLB TRANSLATION  ACCESS:          0 HIT:          0 MISS:          0
cpu0_DTLB PREFETCH REQUESTED:          0 ISSUED:          0 USEFUL:          0 USELESS:          0
cpu0_DTLB AVERAGE MISS LATENCY: 262.4 cycles
cpu0_DTLB TOTAL        ACCESS:          0 HIT:          0 MISS:          0
cpu0_DTLB LOAD         ACCESS:          0 HIT:          0 MISS:          0
cpu0_DTLB RFO          ACCESS:          0 HIT:          0 MISS:          0
cpu0_DTLB PREFETCH     ACCESS:          0 HIT:          0 MISS:          0
cpu0_DTLB WRITE        ACCESS:          0 HIT:          0 MISS:          0
cpu0_DTLB TRANSLATION  ACCESS:          0 HIT:          0 MISS:          0
cpu0_DTLB PREFETCH REQUESTED:          0 ISSUED:          0 USEFUL:          0 USELESS:          0
cpu0_DTLB AVERAGE MISS LATENCY: 262.4 cycles
cpu0_DTLB TOTAL        ACCESS:          0 HIT:          0 MISS:          0
cpu0_DTLB LOAD         ACCESS:          0 HIT:          0 MISS:          0
cpu0_DTLB RFO          ACCESS:          0 HIT:          0 MISS:          0
cpu0_DTLB PREFETCH     ACCESS:          0 HIT:          0 MISS:          0
cpu0_DTLB WRITE        ACCESS:          0 HIT:          0 MISS:          0
cpu0_DTLB TRANSLATION  ACCESS:          0 HIT:          0 MISS:          0
cpu0_DTLB PREFETCH REQUESTED:          0 ISSUED:          0 USEFUL:          0 USELESS:          0
cpu0_DTLB AVERAGE MISS LATENCY: 262.4 cycles
cpu0_DTLB TOTAL        ACCESS:          0 HIT:          0 MISS:          0
cpu0_DTLB LOAD         ACCESS:          0 HIT:          0 MISS:          0
cpu0_DTLB RFO          ACCESS:          0 HIT:          0 MISS:          0
cpu0_DTLB PREFETCH     ACCESS:          0 HIT:          0 MISS:          0
cpu0_DTLB WRITE        ACCESS:          0 HIT:          0 MISS:          0
cpu0_DTLB TRANSLATION  ACCESS:          0 HIT:          0 MISS:          0
cpu0_DTLB PREFETCH REQUESTED:          0 ISSUED:          0 USEFUL:          0 USELESS:          0
cpu0_DTLB AVERAGE MISS LATENCY: 262.4 cycles
cpu0_ITLB TOTAL        ACCESS:   10776032 HIT:   10505266 MISS:     270766
cpu0_ITLB LOAD         ACCESS:   10776032 HIT:   10505266 MISS:     270766
cpu0_ITLB RFO          ACCESS:          0 HIT:          0 MISS:          0
cpu0_ITLB PREFETCH     ACCESS:          0 HIT:          0 MISS:          0
cpu0_ITLB WRITE        ACCESS:          0 HIT:          0 MISS:          0
cpu0_ITLB TRANSLATION  ACCESS:          0 HIT:          0 MISS:          0
cpu0_ITLB PREFETCH REQUESTED:          0 ISSUED:          0 USEFUL:          0 USELESS:          0
cpu0_ITLB AVERAGE MISS LATENCY: 19.63 cycles
cpu0_ITLB TOTAL        ACCESS:          0 HIT:          0 MISS:          0
cpu0_ITLB LOAD         ACCESS:          0 HIT:          0 MISS:          0
cpu0_ITLB RFO          ACCESS:          0 HIT:          0 MISS:          0
cpu0_ITLB PREFETCH     ACCESS:          0 HIT:          0 MISS:          0
cpu0_ITLB WRITE        ACCESS:          0 HIT:          0 MISS:          0
cpu0_ITLB TRANSLATION  ACCESS:          0 HIT:          0 MISS:          0
cpu0_ITLB PREFETCH REQUESTED:          0 ISSUED:          0 USEFUL:          0 USELESS:          0
cpu0_ITLB AVERAGE MISS LATENCY: 19.63 cycles
cpu0_ITLB TOTAL        ACCESS:          0 HIT:          0 MISS:          0
cpu0_ITLB LOAD         ACCESS:          0 HIT:          0 MISS:          0
cpu0_ITLB RFO          ACCESS:          0 HIT:          0 MISS:          0
cpu0_ITLB PREFETCH     ACCESS:          0 HIT:          0 MISS:          0
cpu0_ITLB WRITE        ACCESS:          0 HIT:          0 MISS:          0
cpu0_ITLB TRANSLATION  ACCESS:          0 HIT:          0 MISS:          0
cpu0_ITLB PREFETCH REQUESTED:          0 ISSUED:          0 USEFUL:          0 USELESS:          0
cpu0_ITLB AVERAGE MISS LATENCY: 19.63 cycles
cpu0_ITLB TOTAL        ACCESS:          0 HIT:          0 MISS:          0
cpu0_ITLB LOAD         ACCESS:          0 HIT:          0 MISS:          0
cpu0_ITLB RFO          ACCESS:          0 HIT:          0 MISS:          0
cpu0_ITLB PREFETCH     ACCESS:          0 HIT:          0 MISS:          0
cpu0_ITLB WRITE        ACCESS:          0 HIT:          0 MISS:          0
cpu0_ITLB TRANSLATION  ACCESS:          0 HIT:          0 MISS:          0
cpu0_ITLB PREFETCH REQUESTED:          0 ISSUED:          0 USEFUL:          0 USELESS:          0
cpu0_ITLB AVERAGE MISS LATENCY: 19.63 cycles
cpu0_L1D TOTAL        ACCESS:   49926069 HIT:   44945621 MISS:    4980448
cpu0_L1D LOAD         ACCESS:   23028075 HIT:   19929455 MISS:    3098620
cpu0_L1D RFO          ACCESS:          0 HIT:          0 MISS:          0
cpu0_L1D PREFETCH     ACCESS:      18586 HIT:       1799 MISS:      16787
cpu0_L1D WRITE        ACCESS:   25988263 HIT:   24869210 MISS:    1119053
cpu0_L1D TRANSLATION  ACCESS:     891145 HIT:     145157 MISS:     745988
cpu0_L1D PREFETCH REQUESTED:      18586 ISSUED:      18586 USEFUL:        921 USELESS:        769
cpu0_L1D AVERAGE MISS LATENCY: 666.2 cycles
cpu0_L1D TOTAL        ACCESS:          0 HIT:          0 MISS:          0
cpu0_L1D LOAD         ACCESS:          0 HIT:          0 MISS:          0
cpu0_L1D RFO          ACCESS:          0 HIT:          0 MISS:          0
cpu0_L1D PREFETCH     ACCESS:          0 HIT:          0 MISS:          0
cpu0_L1D WRITE        ACCESS:          0 HIT:          0 MISS:          0
cpu0_L1D TRANSLATION  ACCESS:          0 HIT:          0 MISS:          0
cpu0_L1D PREFETCH REQUESTED:      18586 ISSUED:      18586 USEFUL:        921 USELESS:        769
cpu0_L1D AVERAGE MISS LATENCY: 666.2 cycles
cpu0_L1D TOTAL        ACCESS:          0 HIT:          0 MISS:          0
cpu0_L1D LOAD         ACCESS:          0 HIT:          0 MISS:          0
cpu0_L1D RFO          ACCESS:          0 HIT:          0 MISS:          0
cpu0_L1D PREFETCH     ACCESS:          0 HIT:          0 MISS:          0
cpu0_L1D WRITE        ACCESS:          0 HIT:          0 MISS:          0
cpu0_L1D TRANSLATION  ACCESS:          0 HIT:          0 MISS:          0
cpu0_L1D PREFETCH REQUESTED:      18586 ISSUED:      18586 USEFUL:        921 USELESS:        769
cpu0_L1D AVERAGE MISS LATENCY: 666.2 cycles
cpu0_L1D TOTAL        ACCESS:          0 HIT:          0 MISS:          0
cpu0_L1D LOAD         ACCESS:          0 HIT:          0 MISS:          0
cpu0_L1D RFO          ACCESS:          0 HIT:          0 MISS:          0
cpu0_L1D PREFETCH     ACCESS:          0 HIT:          0 MISS:          0
cpu0_L1D WRITE        ACCESS:          0 HIT:          0 MISS:          0
cpu0_L1D TRANSLATION  ACCESS:          0 HIT:          0 MISS:          0
cpu0_L1D PREFETCH REQUESTED:      18586 ISSUED:      18586 USEFUL:        921 USELESS:        769
cpu0_L1D AVERAGE MISS LATENCY: 666.2 cycles
cpu0_L1I TOTAL        ACCESS:   12878395 HIT:   12804322 MISS:      74073
cpu0_L1I LOAD         ACCESS:   12878395 HIT:   12804322 MISS:      74073
cpu0_L1I RFO          ACCESS:          0 HIT:          0 MISS:          0
cpu0_L1I PREFETCH     ACCESS:          0 HIT:          0 MISS:          0
cpu0_L1I WRITE        ACCESS:          0 HIT:          0 MISS:          0
cpu0_L1I TRANSLATION  ACCESS:          0 HIT:          0 MISS:          0
cpu0_L1I PREFETCH REQUESTED:          0 ISSUED:          0 USEFUL:          0 USELESS:          0
cpu0_L1I AVERAGE MISS LATENCY: 144.6 cycles
cpu0_L1I TOTAL        ACCESS:          0 HIT:          0 MISS:          0
cpu0_L1I LOAD         ACCESS:          0 HIT:          0 MISS:          0
cpu0_L1I RFO          ACCESS:          0 HIT:          0 MISS:          0
cpu0_L1I PREFETCH     ACCESS:          0 HIT:          0 MISS:          0
cpu0_L1I WRITE        ACCESS:          0 HIT:          0 MISS:          0
cpu0_L1I TRANSLATION  ACCESS:          0 HIT:          0 MISS:          0
cpu0_L1I PREFETCH REQUESTED:          0 ISSUED:          0 USEFUL:          0 USELESS:          0
cpu0_L1I AVERAGE MISS LATENCY: 144.6 cycles
cpu0_L1I TOTAL        ACCESS:          0 HIT:          0 MISS:          0
cpu0_L1I LOAD         ACCESS:          0 HIT:          0 MISS:          0
cpu0_L1I RFO          ACCESS:          0 HIT:          0 MISS:          0
cpu0_L1I PREFETCH     ACCESS:          0 HIT:          0 MISS:          0
cpu0_L1I WRITE        ACCESS:          0 HIT:          0 MISS:          0
cpu0_L1I TRANSLATION  ACCESS:          0 HIT:          0 MISS:          0
cpu0_L1I PREFETCH REQUESTED:          0 ISSUED:          0 USEFUL:          0 USELESS:          0
cpu0_L1I AVERAGE MISS LATENCY: 144.6 cycles
cpu0_L1I TOTAL        ACCESS:          0 HIT:          0 MISS:          0
cpu0_L1I LOAD         ACCESS:          0 HIT:          0 MISS:          0
cpu0_L1I RFO          ACCESS:          0 HIT:          0 MISS:          0
cpu0_L1I PREFETCH     ACCESS:          0 HIT:          0 MISS:          0
cpu0_L1I WRITE        ACCESS:          0 HIT:          0 MISS:          0
cpu0_L1I TRANSLATION  ACCESS:          0 HIT:          0 MISS:          0
cpu0_L1I PREFETCH REQUESTED:          0 ISSUED:          0 USEFUL:          0 USELESS:          0
cpu0_L1I AVERAGE MISS LATENCY: 144.6 cycles
cpu0_L2C TOTAL        ACCESS:    5063674 HIT:    2511253 MISS:    2552421
cpu0_L2C LOAD         ACCESS:    2538936 HIT:     853402 MISS:    1685534
cpu0_L2C RFO          ACCESS:     365239 HIT:     107846 MISS:     257393
cpu0_L2C PREFETCH     ACCESS:      16151 HIT:       5108 MISS:      11043
cpu0_L2C WRITE        ACCESS:    1398155 HIT:    1395746 MISS:       2409
cpu0_L2C TRANSLATION  ACCESS:     745193 HIT:     149151 MISS:     596042
cpu0_L2C PREFETCH REQUESTED:          0 ISSUED:          0 USEFUL:          0 USELESS:          0
cpu0_L2C AVERAGE MISS LATENCY: 1322 cycles
cpu0_L2C TOTAL        ACCESS:          0 HIT:          0 MISS:          0
cpu0_L2C LOAD         ACCESS:          0 HIT:          0 MISS:          0
cpu0_L2C RFO          ACCESS:          0 HIT:          0 MISS:          0
cpu0_L2C PREFETCH     ACCESS:          0 HIT:          0 MISS:          0
cpu0_L2C WRITE        ACCESS:          0 HIT:          0 MISS:          0
cpu0_L2C TRANSLATION  ACCESS:          0 HIT:          0 MISS:          0
cpu0_L2C PREFETCH REQUESTED:          0 ISSUED:          0 USEFUL:          0 USELESS:          0
cpu0_L2C AVERAGE MISS LATENCY: 1322 cycles
cpu0_L2C TOTAL        ACCESS:          0 HIT:          0 MISS:          0
cpu0_L2C LOAD         ACCESS:          0 HIT:          0 MISS:          0
cpu0_L2C RFO          ACCESS:          0 HIT:          0 MISS:          0
cpu0_L2C PREFETCH     ACCESS:          0 HIT:          0 MISS:          0
cpu0_L2C WRITE        ACCESS:          0 HIT:          0 MISS:          0
cpu0_L2C TRANSLATION  ACCESS:          0 HIT:          0 MISS:          0
cpu0_L2C PREFETCH REQUESTED:          0 ISSUED:          0 USEFUL:          0 USELESS:          0
cpu0_L2C AVERAGE MISS LATENCY: 1322 cycles
cpu0_L2C TOTAL        ACCESS:          0 HIT:          0 MISS:          0
cpu0_L2C LOAD         ACCESS:          0 HIT:          0 MISS:          0
cpu0_L2C RFO          ACCESS:          0 HIT:          0 MISS:          0
cpu0_L2C PREFETCH     ACCESS:          0 HIT:          0 MISS:          0
cpu0_L2C WRITE        ACCESS:          0 HIT:          0 MISS:          0
cpu0_L2C TRANSLATION  ACCESS:          0 HIT:          0 MISS:          0
cpu0_L2C PREFETCH REQUESTED:          0 ISSUED:          0 USEFUL:          0 USELESS:          0
cpu0_L2C AVERAGE MISS LATENCY: 1322 cycles
cpu0_STLB TOTAL        ACCESS:    3015078 HIT:    2372647 MISS:     642431
cpu0_STLB LOAD         ACCESS:    3015078 HIT:    2372647 MISS:     642431
cpu0_STLB RFO          ACCESS:          0 HIT:          0 MISS:          0
cpu0_STLB PREFETCH     ACCESS:          0 HIT:          0 MISS:          0
cpu0_STLB WRITE        ACCESS:          0 HIT:          0 MISS:          0
cpu0_STLB TRANSLATION  ACCESS:          0 HIT:          0 MISS:          0
cpu0_STLB PREFETCH REQUESTED:          0 ISSUED:          0 USEFUL:          0 USELESS:          0
cpu0_STLB AVERAGE MISS LATENCY: 1349 cycles
cpu0_STLB TOTAL        ACCESS:          0 HIT:          0 MISS:          0
cpu0_STLB LOAD         ACCESS:          0 HIT:          0 MISS:          0
cpu0_STLB RFO          ACCESS:          0 HIT:          0 MISS:          0
cpu0_STLB PREFETCH     ACCESS:          0 HIT:          0 MISS:          0
cpu0_STLB WRITE        ACCESS:          0 HIT:          0 MISS:          0
cpu0_STLB TRANSLATION  ACCESS:          0 HIT:          0 MISS:          0
cpu0_STLB PREFETCH REQUESTED:          0 ISSUED:          0 USEFUL:          0 USELESS:          0
cpu0_STLB AVERAGE MISS LATENCY: 1349 cycles
cpu0_STLB TOTAL        ACCESS:          0 HIT:          0 MISS:          0
cpu0_STLB LOAD         ACCESS:          0 HIT:          0 MISS:          0
cpu0_STLB RFO          ACCESS:          0 HIT:          0 MISS:          0
cpu0_STLB PREFETCH     ACCESS:          0 HIT:          0 MISS:          0
cpu0_STLB WRITE        ACCESS:          0 HIT:          0 MISS:          0
cpu0_STLB TRANSLATION  ACCESS:          0 HIT:          0 MISS:          0
cpu0_STLB PREFETCH REQUESTED:          0 ISSUED:          0 USEFUL:          0 USELESS:          0
cpu0_STLB AVERAGE MISS LATENCY: 1349 cycles
cpu0_STLB TOTAL        ACCESS:          0 HIT:          0 MISS:          0
cpu0_STLB LOAD         ACCESS:          0 HIT:          0 MISS:          0
cpu0_STLB RFO          ACCESS:          0 HIT:          0 MISS:          0
cpu0_STLB PREFETCH     ACCESS:          0 HIT:          0 MISS:          0
cpu0_STLB WRITE        ACCESS:          0 HIT:          0 MISS:          0
cpu0_STLB TRANSLATION  ACCESS:          0 HIT:          0 MISS:          0
cpu0_STLB PREFETCH REQUESTED:          0 ISSUED:          0 USEFUL:          0 USELESS:          0
cpu0_STLB AVERAGE MISS LATENCY: 1349 cycles
cpu1_DTLB TOTAL        ACCESS:          0 HIT:          0 MISS:          0
cpu1_DTLB LOAD         ACCESS:          0 HIT:          0 MISS:          0
cpu1_DTLB RFO          ACCESS:          0 HIT:          0 MISS:          0
cpu1_DTLB PREFETCH     ACCESS:          0 HIT:          0 MISS:          0
cpu1_DTLB WRITE        ACCESS:          0 HIT:          0 MISS:          0
cpu1_DTLB TRANSLATION  ACCESS:          0 HIT:          0 MISS:          0
cpu1_DTLB PREFETCH REQUESTED:          0 ISSUED:          0 USEFUL:          0 USELESS:          0
cpu1_DTLB AVERAGE MISS LATENCY: 8.808 cycles
cpu1_DTLB TOTAL        ACCESS:  152416261 HIT:   88962153 MISS:   63454108
cpu1_DTLB LOAD         ACCESS:  152416261 HIT:   88962153 MISS:   63454108
cpu1_DTLB RFO          ACCESS:          0 HIT:          0 MISS:          0
cpu1_DTLB PREFETCH     ACCESS:          0 HIT:          0 MISS:          0
cpu1_DTLB WRITE        ACCESS:          0 HIT:          0 MISS:          0
cpu1_DTLB TRANSLATION  ACCESS:          0 HIT:          0 MISS:          0
cpu1_DTLB PREFETCH REQUESTED:          0 ISSUED:          0 USEFUL:          0 USELESS:          0
cpu1_DTLB AVERAGE MISS LATENCY: 8.808 cycles
cpu1_DTLB TOTAL        ACCESS:          0 HIT:          0 MISS:          0
cpu1_DTLB LOAD         ACCESS:          0 HIT:          0 MISS:          0
cpu1_DTLB RFO          ACCESS:          0 HIT:          0 MISS:          0
cpu1_DTLB PREFETCH     ACCESS:          0 HIT:          0 MISS:          0
cpu1_DTLB WRITE        ACCESS:          0 HIT:          0 MISS:          0
cpu1_DTLB TRANSLATION  ACCESS:          0 HIT:          0 MISS:          0
cpu1_DTLB PREFETCH REQUESTED:          0 ISSUED:          0 USEFUL:          0 USELESS:          0
cpu1_DTLB AVERAGE MISS LATENCY: 8.808 cycles
cpu1_DTLB TOTAL        ACCESS:          0 HIT:          0 MISS:          0
cpu1_DTLB LOAD         ACCESS:          0 HIT:          0 MISS:          0
cpu1_DTLB RFO          ACCESS:          0 HIT:          0 MISS:          0
cpu1_DTLB PREFETCH     ACCESS:          0 HIT:          0 MISS:          0
cpu1_DTLB WRITE        ACCESS:          0 HIT:          0 MISS:          0
cpu1_DTLB TRANSLATION  ACCESS:          0 HIT:          0 MISS:          0
cpu1_DTLB PREFETCH REQUESTED:          0 ISSUED:          0 USEFUL:          0 USELESS:          0
cpu1_DTLB AVERAGE MISS LATENCY: 8.808 cycles
cpu1_ITLB TOTAL        ACCESS:          0 HIT:          0 MISS:          0
cpu1_ITLB LOAD         ACCESS:          0 HIT:          0 MISS:          0
cpu1_ITLB RFO          ACCESS:          0 HIT:          0 MISS:          0
cpu1_ITLB PREFETCH     ACCESS:          0 HIT:          0 MISS:          0
cpu1_ITLB WRITE        ACCESS:          0 HIT:          0 MISS:          0
cpu1_ITLB TRANSLATION  ACCESS:          0 HIT:          0 MISS:          0
cpu1_ITLB PREFETCH REQUESTED:          0 ISSUED:          0 USEFUL:          0 USELESS:          0
cpu1_ITLB AVERAGE MISS LATENCY: -nan cycles
cpu1_ITLB TOTAL        ACCESS:   94793053 HIT:   94793053 MISS:          0
cpu1_ITLB LOAD         ACCESS:   94793053 HIT:   94793053 MISS:          0
cpu1_ITLB RFO          ACCESS:          0 HIT:          0 MISS:          0
cpu1_ITLB PREFETCH     ACCESS:          0 HIT:          0 MISS:          0
cpu1_ITLB WRITE        ACCESS:          0 HIT:          0 MISS:          0
cpu1_ITLB TRANSLATION  ACCESS:          0 HIT:          0 MISS:          0
cpu1_ITLB PREFETCH REQUESTED:          0 ISSUED:          0 USEFUL:          0 USELESS:          0
cpu1_ITLB AVERAGE MISS LATENCY: -nan cycles
cpu1_ITLB TOTAL        ACCESS:          0 HIT:          0 MISS:          0
cpu1_ITLB LOAD         ACCESS:          0 HIT:          0 MISS:          0
cpu1_ITLB RFO          ACCESS:          0 HIT:          0 MISS:          0
cpu1_ITLB PREFETCH     ACCESS:          0 HIT:          0 MISS:          0
cpu1_ITLB WRITE        ACCESS:          0 HIT:          0 MISS:          0
cpu1_ITLB TRANSLATION  ACCESS:          0 HIT:          0 MISS:          0
cpu1_ITLB PREFETCH REQUESTED:          0 ISSUED:          0 USEFUL:          0 USELESS:          0
cpu1_ITLB AVERAGE MISS LATENCY: -nan cycles
cpu1_ITLB TOTAL        ACCESS:          0 HIT:          0 MISS:          0
cpu1_ITLB LOAD         ACCESS:          0 HIT:          0 MISS:          0
cpu1_ITLB RFO          ACCESS:          0 HIT:          0 MISS:          0
cpu1_ITLB PREFETCH     ACCESS:          0 HIT:          0 MISS:          0
cpu1_ITLB WRITE        ACCESS:          0 HIT:          0 MISS:          0
cpu1_ITLB TRANSLATION  ACCESS:          0 HIT:          0 MISS:          0
cpu1_ITLB PREFETCH REQUESTED:          0 ISSUED:          0 USEFUL:          0 USELESS:          0
cpu1_ITLB AVERAGE MISS LATENCY: -nan cycles
cpu1_L1D TOTAL        ACCESS:          0 HIT:          0 MISS:          0
cpu1_L1D LOAD         ACCESS:          0 HIT:          0 MISS:          0
cpu1_L1D RFO          ACCESS:          0 HIT:          0 MISS:          0
cpu1_L1D PREFETCH     ACCESS:          0 HIT:          0 MISS:          0
cpu1_L1D WRITE        ACCESS:          0 HIT:          0 MISS:          0
cpu1_L1D TRANSLATION  ACCESS:          0 HIT:          0 MISS:          0
cpu1_L1D PREFETCH REQUESTED:          0 ISSUED:          0 USEFUL:          0 USELESS:          0
cpu1_L1D AVERAGE MISS LATENCY: 182.2 cycles
cpu1_L1D TOTAL        ACCESS:  189675373 HIT:  105455597 MISS:   84219776
cpu1_L1D LOAD         ACCESS:  106783742 HIT:   26989061 MISS:   79794681
cpu1_L1D RFO          ACCESS:          0 HIT:          0 MISS:          0
cpu1_L1D PREFETCH     ACCESS:          0 HIT:          0 MISS:          0
cpu1_L1D WRITE        ACCESS:   82754627 HIT:   78465337 MISS:    4289290
cpu1_L1D TRANSLATION  ACCESS:     137004 HIT:       1199 MISS:     135805
cpu1_L1D PREFETCH REQUESTED:          0 ISSUED:          0 USEFUL:          0 USELESS:          0
cpu1_L1D AVERAGE MISS LATENCY: 182.2 cycles
cpu1_L1D TOTAL        ACCESS:          0 HIT:          0 MISS:          0
cpu1_L1D LOAD         ACCESS:          0 HIT:          0 MISS:          0
cpu1_L1D RFO          ACCESS:          0 HIT:          0 MISS:          0
cpu1_L1D PREFETCH     ACCESS:          0 HIT:          0 MISS:          0
cpu1_L1D WRITE        ACCESS:          0 HIT:          0 MISS:          0
cpu1_L1D TRANSLATION  ACCESS:          0 HIT:          0 MISS:          0
cpu1_L1D PREFETCH REQUESTED:          0 ISSUED:          0 USEFUL:          0 USELESS:          0
cpu1_L1D AVERAGE MISS LATENCY: 182.2 cycles
cpu1_L1D TOTAL        ACCESS:          0 HIT:          0 MISS:          0
cpu1_L1D LOAD         ACCESS:          0 HIT:          0 MISS:          0
cpu1_L1D RFO          ACCESS:          0 HIT:          0 MISS:          0
cpu1_L1D PREFETCH     ACCESS:          0 HIT:          0 MISS:          0
cpu1_L1D WRITE        ACCESS:          0 HIT:          0 MISS:          0
cpu1_L1D TRANSLATION  ACCESS:          0 HIT:          0 MISS:          0
cpu1_L1D PREFETCH REQUESTED:          0 ISSUED:          0 USEFUL:          0 USELESS:          0
cpu1_L1D AVERAGE MISS LATENCY: 182.2 cycles
cpu1_L1I TOTAL        ACCESS:          0 HIT:          0 MISS:          0
cpu1_L1I LOAD         ACCESS:          0 HIT:          0 MISS:          0
cpu1_L1I RFO          ACCESS:          0 HIT:          0 MISS:          0
cpu1_L1I PREFETCH     ACCESS:          0 HIT:          0 MISS:          0
cpu1_L1I WRITE        ACCESS:          0 HIT:          0 MISS:          0
cpu1_L1I TRANSLATION  ACCESS:          0 HIT:          0 MISS:          0
cpu1_L1I PREFETCH REQUESTED:          0 ISSUED:          0 USEFUL:          0 USELESS:          0
cpu1_L1I AVERAGE MISS LATENCY: -nan cycles
cpu1_L1I TOTAL        ACCESS:  124113784 HIT:  124113784 MISS:          0
cpu1_L1I LOAD         ACCESS:  124113784 HIT:  124113784 MISS:          0
cpu1_L1I RFO          ACCESS:          0 HIT:          0 MISS:          0
cpu1_L1I PREFETCH     ACCESS:          0 HIT:          0 MISS:          0
cpu1_L1I WRITE        ACCESS:          0 HIT:          0 MISS:          0
cpu1_L1I TRANSLATION  ACCESS:          0 HIT:          0 MISS:          0
cpu1_L1I PREFETCH REQUESTED:          0 ISSUED:          0 USEFUL:          0 USELESS:          0
cpu1_L1I AVERAGE MISS LATENCY: -nan cycles
cpu1_L1I TOTAL        ACCESS:          0 HIT:          0 MISS:          0
cpu1_L1I LOAD         ACCESS:          0 HIT:          0 MISS:          0
cpu1_L1I RFO          ACCESS:          0 HIT:          0 MISS:          0
cpu1_L1I PREFETCH     ACCESS:          0 HIT:          0 MISS:          0
cpu1_L1I WRITE        ACCESS:          0 HIT:          0 MISS:          0
cpu1_L1I TRANSLATION  ACCESS:          0 HIT:          0 MISS:          0
cpu1_L1I PREFETCH REQUESTED:          0 ISSUED:          0 USEFUL:          0 USELESS:          0
cpu1_L1I AVERAGE MISS LATENCY: -nan cycles
cpu1_L1I TOTAL        ACCESS:          0 HIT:          0 MISS:          0
cpu1_L1I LOAD         ACCESS:          0 HIT:          0 MISS:          0
cpu1_L1I RFO          ACCESS:          0 HIT:          0 MISS:          0
cpu1_L1I PREFETCH     ACCESS:          0 HIT:          0 MISS:          0
cpu1_L1I WRITE        ACCESS:          0 HIT:          0 MISS:          0
cpu1_L1I TRANSLATION  ACCESS:          0 HIT:          0 MISS:          0
cpu1_L1I PREFETCH REQUESTED:          0 ISSUED:          0 USEFUL:          0 USELESS:          0
cpu1_L1I AVERAGE MISS LATENCY: -nan cycles
cpu1_L2C TOTAL        ACCESS:          0 HIT:          0 MISS:          0
cpu1_L2C LOAD         ACCESS:          0 HIT:          0 MISS:          0
cpu1_L2C RFO          ACCESS:          0 HIT:          0 MISS:          0
cpu1_L2C PREFETCH     ACCESS:          0 HIT:          0 MISS:          0
cpu1_L2C WRITE        ACCESS:          0 HIT:          0 MISS:          0
cpu1_L2C TRANSLATION  ACCESS:          0 HIT:          0 MISS:          0
cpu1_L2C PREFETCH REQUESTED:          0 ISSUED:          0 USEFUL:          0 USELESS:          0
cpu1_L2C AVERAGE MISS LATENCY: 1884 cycles
cpu1_L2C TOTAL        ACCESS:   88463799 HIT:   80767211 MISS:    7696588
cpu1_L2C LOAD         ACCESS:   78870009 HIT:   71300702 MISS:    7569307
cpu1_L2C RFO          ACCESS:    3188952 HIT:    3170832 MISS:      18120
cpu1_L2C PREFETCH     ACCESS:          0 HIT:          0 MISS:          0
cpu1_L2C WRITE        ACCESS:    6269122 HIT:    6269122 MISS:          0
cpu1_L2C TRANSLATION  ACCESS:     135716 HIT:      26555 MISS:     109161
cpu1_L2C PREFETCH REQUESTED:          0 ISSUED:          0 USEFUL:          0 USELESS:          0
cpu1_L2C AVERAGE MISS LATENCY: 1884 cycles
cpu1_L2C TOTAL        ACCESS:          0 HIT:          0 MISS:          0
cpu1_L2C LOAD         ACCESS:          0 HIT:          0 MISS:          0
cpu1_L2C RFO          ACCESS:          0 HIT:          0 MISS:          0
cpu1_L2C PREFETCH     ACCESS:          0 HIT:          0 MISS:          0
cpu1_L2C WRITE        ACCESS:          0 HIT:          0 MISS:          0
cpu1_L2C TRANSLATION  ACCESS:          0 HIT:          0 MISS:          0
cpu1_L2C PREFETCH REQUESTED:          0 ISSUED:          0 USEFUL:          0 USELESS:          0
cpu1_L2C AVERAGE MISS LATENCY: 1884 cycles
cpu1_L2C TOTAL        ACCESS:          0 HIT:          0 MISS:          0
cpu1_L2C LOAD         ACCESS:          0 HIT:          0 MISS:          0
cpu1_L2C RFO          ACCESS:          0 HIT:          0 MISS:          0
cpu1_L2C PREFETCH     ACCESS:          0 HIT:          0 MISS:          0
cpu1_L2C WRITE        ACCESS:          0 HIT:          0 MISS:          0
cpu1_L2C TRANSLATION  ACCESS:          0 HIT:          0 MISS:          0
cpu1_L2C PREFETCH REQUESTED:          0 ISSUED:          0 USEFUL:          0 USELESS:          0
cpu1_L2C AVERAGE MISS LATENCY: 1884 cycles
cpu1_STLB TOTAL        ACCESS:          0 HIT:          0 MISS:          0
cpu1_STLB LOAD         ACCESS:          0 HIT:          0 MISS:          0
cpu1_STLB RFO          ACCESS:          0 HIT:          0 MISS:          0
cpu1_STLB PREFETCH     ACCESS:          0 HIT:          0 MISS:          0
cpu1_STLB WRITE        ACCESS:          0 HIT:          0 MISS:          0
cpu1_STLB TRANSLATION  ACCESS:          0 HIT:          0 MISS:          0
cpu1_STLB PREFETCH REQUESTED:          0 ISSUED:          0 USEFUL:          0 USELESS:          0
cpu1_STLB AVERAGE MISS LATENCY: 1914 cycles
cpu1_STLB TOTAL        ACCESS:   54652882 HIT:   54564782 MISS:      88100
cpu1_STLB LOAD         ACCESS:   54652882 HIT:   54564782 MISS:      88100
cpu1_STLB RFO          ACCESS:          0 HIT:          0 MISS:          0
cpu1_STLB PREFETCH     ACCESS:          0 HIT:          0 MISS:          0
cpu1_STLB WRITE        ACCESS:          0 HIT:          0 MISS:          0
cpu1_STLB TRANSLATION  ACCESS:          0 HIT:          0 MISS:          0
cpu1_STLB PREFETCH REQUESTED:          0 ISSUED:          0 USEFUL:          0 USELESS:          0
cpu1_STLB AVERAGE MISS LATENCY: 1914 cycles
cpu1_STLB TOTAL        ACCESS:          0 HIT:          0 MISS:          0
cpu1_STLB LOAD         ACCESS:          0 HIT:          0 MISS:          0
cpu1_STLB RFO          ACCESS:          0 HIT:          0 MISS:          0
cpu1_STLB PREFETCH     ACCESS:          0 HIT:          0 MISS:          0
cpu1_STLB WRITE        ACCESS:          0 HIT:          0 MISS:          0
cpu1_STLB TRANSLATION  ACCESS:          0 HIT:          0 MISS:          0
cpu1_STLB PREFETCH REQUESTED:          0 ISSUED:          0 USEFUL:          0 USELESS:          0
cpu1_STLB AVERAGE MISS LATENCY: 1914 cycles
cpu1_STLB TOTAL        ACCESS:          0 HIT:          0 MISS:          0
cpu1_STLB LOAD         ACCESS:          0 HIT:          0 MISS:          0
cpu1_STLB RFO          ACCESS:          0 HIT:          0 MISS:          0
cpu1_STLB PREFETCH     ACCESS:          0 HIT:          0 MISS:          0
cpu1_STLB WRITE        ACCESS:          0 HIT:          0 MISS:          0
cpu1_STLB TRANSLATION  ACCESS:          0 HIT:          0 MISS:          0
cpu1_STLB PREFETCH REQUESTED:          0 ISSUED:          0 USEFUL:          0 USELESS:          0
cpu1_STLB AVERAGE MISS LATENCY: 1914 cycles
cpu2_DTLB TOTAL        ACCESS:          0 HIT:          0 MISS:          0
cpu2_DTLB LOAD         ACCESS:          0 HIT:          0 MISS:          0
cpu2_DTLB RFO          ACCESS:          0 HIT:          0 MISS:          0
cpu2_DTLB PREFETCH     ACCESS:          0 HIT:          0 MISS:          0
cpu2_DTLB WRITE        ACCESS:          0 HIT:          0 MISS:          0
cpu2_DTLB TRANSLATION  ACCESS:          0 HIT:          0 MISS:          0
cpu2_DTLB PREFETCH REQUESTED:          0 ISSUED:          0 USEFUL:          0 USELESS:          0
cpu2_DTLB AVERAGE MISS LATENCY: 73.87 cycles
cpu2_DTLB TOTAL        ACCESS:          0 HIT:          0 MISS:          0
cpu2_DTLB LOAD         ACCESS:          0 HIT:          0 MISS:          0
cpu2_DTLB RFO          ACCESS:          0 HIT:          0 MISS:          0
cpu2_DTLB PREFETCH     ACCESS:          0 HIT:          0 MISS:          0
cpu2_DTLB WRITE        ACCESS:          0 HIT:          0 MISS:          0
cpu2_DTLB TRANSLATION  ACCESS:          0 HIT:          0 MISS:          0
cpu2_DTLB PREFETCH REQUESTED:          0 ISSUED:          0 USEFUL:          0 USELESS:          0
cpu2_DTLB AVERAGE MISS LATENCY: 73.87 cycles
cpu2_DTLB TOTAL        ACCESS:  192616898 HIT:  191799283 MISS:     817615
cpu2_DTLB LOAD         ACCESS:  192616898 HIT:  191799283 MISS:     817615
cpu2_DTLB RFO          ACCESS:          0 HIT:          0 MISS:          0
cpu2_DTLB PREFETCH     ACCESS:          0 HIT:          0 MISS:          0
cpu2_DTLB WRITE        ACCESS:          0 HIT:          0 MISS:          0
cpu2_DTLB TRANSLATION  ACCESS:          0 HIT:          0 MISS:          0
cpu2_DTLB PREFETCH REQUESTED:          0 ISSUED:          0 USEFUL:          0 USELESS:          0
cpu2_DTLB AVERAGE MISS LATENCY: 73.87 cycles
cpu2_DTLB TOTAL        ACCESS:          0 HIT:          0 MISS:          0
cpu2_DTLB LOAD         ACCESS:          0 HIT:          0 MISS:          0
cpu2_DTLB RFO          ACCESS:          0 HIT:          0 MISS:          0
cpu2_DTLB PREFETCH     ACCESS:          0 HIT:          0 MISS:          0
cpu2_DTLB WRITE        ACCESS:          0 HIT:          0 MISS:          0
cpu2_DTLB TRANSLATION  ACCESS:          0 HIT:          0 MISS:          0
cpu2_DTLB PREFETCH REQUESTED:          0 ISSUED:          0 USEFUL:          0 USELESS:          0
cpu2_DTLB AVERAGE MISS LATENCY: 73.87 cycles
cpu2_ITLB TOTAL        ACCESS:          0 HIT:          0 MISS:          0
cpu2_ITLB LOAD         ACCESS:          0 HIT:          0 MISS:          0
cpu2_ITLB RFO          ACCESS:          0 HIT:          0 MISS:          0
cpu2_ITLB PREFETCH     ACCESS:          0 HIT:          0 MISS:          0
cpu2_ITLB WRITE        ACCESS:          0 HIT:          0 MISS:          0
cpu2_ITLB TRANSLATION  ACCESS:          0 HIT:          0 MISS:          0
cpu2_ITLB PREFETCH REQUESTED:          0 ISSUED:          0 USEFUL:          0 USELESS:          0
cpu2_ITLB AVERAGE MISS LATENCY: 790.9 cycles
cpu2_ITLB TOTAL        ACCESS:          0 HIT:          0 MISS:          0
cpu2_ITLB LOAD         ACCESS:          0 HIT:          0 MISS:          0
cpu2_ITLB RFO          ACCESS:          0 HIT:          0 MISS:          0
cpu2_ITLB PREFETCH     ACCESS:          0 HIT:          0 MISS:          0
cpu2_ITLB WRITE        ACCESS:          0 HIT:          0 MISS:          0
cpu2_ITLB TRANSLATION  ACCESS:          0 HIT:          0 MISS:          0
cpu2_ITLB PREFETCH REQUESTED:          0 ISSUED:          0 USEFUL:          0 USELESS:          0
cpu2_ITLB AVERAGE MISS LATENCY: 790.9 cycles
cpu2_ITLB TOTAL        ACCESS:    3928706 HIT:    3928696 MISS:         10
cpu2_ITLB LOAD         ACCESS:    3928706 HIT:    3928696 MISS:         10
cpu2_ITLB RFO          ACCESS:          0 HIT:          0 MISS:          0
cpu2_ITLB PREFETCH     ACCESS:          0 HIT:          0 MISS:          0
cpu2_ITLB WRITE        ACCESS:          0 HIT:          0 MISS:          0
cpu2_ITLB TRANSLATION  ACCESS:          0 HIT:          0 MISS:          0
cpu2_ITLB PREFETCH REQUESTED:          0 ISSUED:          0 USEFUL:          0 USELESS:          0
cpu2_ITLB AVERAGE MISS LATENCY: 790.9 cycles
cpu2_ITLB TOTAL        ACCESS:          0 HIT:          0 MISS:          0
cpu2_ITLB LOAD         ACCESS:          0 HIT:          0 MISS:          0
cpu2_ITLB RFO          ACCESS:          0 HIT:          0 MISS:          0
cpu2_ITLB PREFETCH     ACCESS:          0 HIT:          0 MISS:          0
cpu2_ITLB WRITE        ACCESS:          0 HIT:          0 MISS:          0
cpu2_ITLB TRANSLATION  ACCESS:          0 HIT:          0 MISS:          0
cpu2_ITLB PREFETCH REQUESTED:          0 ISSUED:          0 USEFUL:          0 USELESS:          0
cpu2_ITLB AVERAGE MISS LATENCY: 790.9 cycles
cpu2_L1D TOTAL        ACCESS:          0 HIT:          0 MISS:          0
cpu2_L1D LOAD         ACCESS:          0 HIT:          0 MISS:          0
cpu2_L1D RFO          ACCESS:          0 HIT:          0 MISS:          0
cpu2_L1D PREFETCH     ACCESS:          0 HIT:          0 MISS:          0
cpu2_L1D WRITE        ACCESS:          0 HIT:          0 MISS:          0
cpu2_L1D TRANSLATION  ACCESS:          0 HIT:          0 MISS:          0
cpu2_L1D PREFETCH REQUESTED:  216485497 ISSUED:   54607203 USEFUL:    2961584 USELESS:     554073
cpu2_L1D AVERAGE MISS LATENCY: 294.8 cycles
cpu2_L1D TOTAL        ACCESS:          0 HIT:          0 MISS:          0
cpu2_L1D LOAD         ACCESS:          0 HIT:          0 MISS:          0
cpu2_L1D RFO          ACCESS:          0 HIT:          0 MISS:          0
cpu2_L1D PREFETCH     ACCESS:          0 HIT:          0 MISS:          0
cpu2_L1D WRITE        ACCESS:          0 HIT:          0 MISS:          0
cpu2_L1D TRANSLATION  ACCESS:          0 HIT:          0 MISS:          0
cpu2_L1D PREFETCH REQUESTED:  216485497 ISSUED:   54607203 USEFUL:    2961584 USELESS:     554073
cpu2_L1D AVERAGE MISS LATENCY: 294.8 cycles
cpu2_L1D TOTAL        ACCESS:  304648167 HIT:  263629133 MISS:   41019034
cpu2_L1D LOAD         ACCESS:  135404194 HIT:  130380339 MISS:    5023855
cpu2_L1D RFO          ACCESS:          0 HIT:          0 MISS:          0
cpu2_L1D PREFETCH     ACCESS:   54607203 HIT:   35930581 MISS:   18676622
cpu2_L1D WRITE        ACCESS:  114481394 HIT:   97232127 MISS:   17249267
cpu2_L1D TRANSLATION  ACCESS:     155376 HIT:      86086 MISS:      69290
cpu2_L1D PREFETCH REQUESTED:  216485497 ISSUED:   54607203 USEFUL:    2961584 USELESS:     554073
cpu2_L1D AVERAGE MISS LATENCY: 294.8 cycles
cpu2_L1D TOTAL        ACCESS:          0 HIT:          0 MISS:          0
cpu2_L1D LOAD         ACCESS:          0 HIT:          0 MISS:          0
cpu2_L1D RFO          ACCESS:          0 HIT:          0 MISS:          0
cpu2_L1D PREFETCH     ACCESS:          0 HIT:          0 MISS:          0
cpu2_L1D WRITE        ACCESS:          0 HIT:          0 MISS:          0
cpu2_L1D TRANSLATION  ACCESS:          0 HIT:          0 MISS:          0
cpu2_L1D PREFETCH REQUESTED:  216485497 ISSUED:   54607203 USEFUL:    2961584 USELESS:     554073
cpu2_L1D AVERAGE MISS LATENCY: 294.8 cycles
cpu2_L1I TOTAL        ACCESS:          0 HIT:          0 MISS:          0
cpu2_L1I LOAD         ACCESS:          0 HIT:          0 MISS:          0
cpu2_L1I RFO          ACCESS:          0 HIT:          0 MISS:          0
cpu2_L1I PREFETCH     ACCESS:          0 HIT:          0 MISS:          0
cpu2_L1I WRITE        ACCESS:          0 HIT:          0 MISS:          0
cpu2_L1I TRANSLATION  ACCESS:          0 HIT:          0 MISS:          0
cpu2_L1I PREFETCH REQUESTED:          0 ISSUED:          0 USEFUL:          0 USELESS:          0
cpu2_L1I AVERAGE MISS LATENCY: 720.8 cycles
cpu2_L1I TOTAL        ACCESS:          0 HIT:          0 MISS:          0
cpu2_L1I LOAD         ACCESS:          0 HIT:          0 MISS:          0
[...]
cpu2_L2C PREFETCH     ACCESS:          0 HIT:          0 MISS:          0
cpu2_L2C WRITE        ACCESS:          0 HIT:          0 MISS:          0
cpu2_L2C TRANSLATION  ACCESS:          0 HIT:          0 MISS:          0
cpu2_L2C PREFETCH REQUESTED:          0 ISSUED:          0 USEFUL:          0 USELESS:          0
cpu2_L2C AVERAGE MISS LATENCY: 1072 cycles
cpu2_L2C TOTAL        ACCESS:          0 HIT:          0 MISS:          0
cpu2_L2C LOAD         ACCESS:          0 HIT:          0 MISS:          0
cpu2_L2C RFO          ACCESS:          0 HIT:          0 MISS:          0
cpu2_L2C PREFETCH     ACCESS:          0 HIT:          0 MISS:          0
cpu2_L2C WRITE        ACCESS:          0 HIT:          0 MISS:          0
cpu2_L2C TRANSLATION  ACCESS:          0 HIT:          0 MISS:          0
cpu2_L2C PREFETCH REQUESTED:          0 ISSUED:          0 USEFUL:          0 USELESS:          0
cpu2_L2C AVERAGE MISS LATENCY: 1072 cycles
cpu2_L2C TOTAL        ACCESS:     135883 HIT:      76818 MISS:      59065
cpu2_L2C LOAD         ACCESS:       2504 HIT:       1255 MISS:       1249
cpu2_L2C RFO          ACCESS:       8737 HIT:        499 MISS:       8238
cpu2_L2C PREFETCH     ACCESS:     115802 HIT:      66274 MISS:      49528
cpu2_L2C WRITE        ACCESS:       8786 HIT:       8786 MISS:          0
cpu2_L2C TRANSLATION  ACCESS:         54 HIT:          4 MISS:         50
cpu2_L2C PREFETCH REQUESTED:          0 ISSUED:          0 USEFUL:          0 USELESS:          0
cpu2_L2C AVERAGE MISS LATENCY: 1072 cycles
cpu2_L2C TOTAL        ACCESS:          0 HIT:          0 MISS:          0
cpu2_L2C LOAD         ACCESS:          0 HIT:          0 MISS:          0
cpu2_L2C RFO          ACCESS:          0 HIT:          0 MISS:          0
cpu2_L2C PREFETCH     ACCESS:          0 HIT:          0 MISS:          0
cpu2_L2C WRITE        ACCESS:          0 HIT:          0 MISS:          0
cpu2_L2C TRANSLATION  ACCESS:          0 HIT:          0 MISS:          0
cpu2_L2C PREFETCH REQUESTED:          0 ISSUED:          0 USEFUL:          0 USELESS:          0
cpu2_L2C AVERAGE MISS LATENCY: 1072 cycles
cpu2_STLB TOTAL        ACCESS:          0 HIT:          0 MISS:          0
cpu2_STLB LOAD         ACCESS:          0 HIT:          0 MISS:          0
cpu2_STLB RFO          ACCESS:          0 HIT:          0 MISS:          0
cpu2_STLB PREFETCH     ACCESS:          0 HIT:          0 MISS:          0
cpu2_STLB WRITE        ACCESS:          0 HIT:          0 MISS:          0
cpu2_STLB TRANSLATION  ACCESS:          0 HIT:          0 MISS:          0
cpu2_STLB PREFETCH REQUESTED:          0 ISSUED:          0 USEFUL:          0 USELESS:          0
cpu2_STLB AVERAGE MISS LATENCY: 534.6 cycles
cpu2_STLB TOTAL        ACCESS:          0 HIT:          0 MISS:          0
cpu2_STLB LOAD         ACCESS:          0 HIT:          0 MISS:          0
cpu2_STLB RFO          ACCESS:          0 HIT:          0 MISS:          0
cpu2_STLB PREFETCH     ACCESS:          0 HIT:          0 MISS:          0
cpu2_STLB WRITE        ACCESS:          0 HIT:          0 MISS:          0
cpu2_STLB TRANSLATION  ACCESS:          0 HIT:          0 MISS:          0
cpu2_STLB PREFETCH REQUESTED:          0 ISSUED:          0 USEFUL:          0 USELESS:          0
cpu2_STLB AVERAGE MISS LATENCY: 534.6 cycles
cpu2_STLB TOTAL        ACCESS:        483 HIT:         48 MISS:        435
cpu2_STLB LOAD         ACCESS:        483 HIT:         48 MISS:        435
cpu2_STLB RFO          ACCESS:          0 HIT:          0 MISS:          0
cpu2_STLB PREFETCH     ACCESS:          0 HIT:          0 MISS:          0
cpu2_STLB WRITE        ACCESS:          0 HIT:          0 MISS:          0
cpu2_STLB TRANSLATION  ACCESS:          0 HIT:          0 MISS:          0
cpu2_STLB PREFETCH REQUESTED:          0 ISSUED:          0 USEFUL:          0 USELESS:          0
cpu2_STLB AVERAGE MISS LATENCY: 534.6 cycles
cpu2_STLB TOTAL        ACCESS:          0 HIT:          0 MISS:          0
cpu2_STLB LOAD         ACCESS:          0 HIT:          0 MISS:          0
cpu2_STLB RFO          ACCESS:          0 HIT:          0 MISS:          0
cpu2_STLB PREFETCH     ACCESS:          0 HIT:          0 MISS:          0
cpu2_STLB WRITE        ACCESS:          0 HIT:          0 MISS:          0
cpu2_STLB TRANSLATION  ACCESS:          0 HIT:          0 MISS:          0
cpu2_STLB PREFETCH REQUESTED:          0 ISSUED:          0 USEFUL:          0 USELESS:          0
cpu2_STLB AVERAGE MISS LATENCY: 534.6 cycles
cpu3_DTLB TOTAL        ACCESS:          0 HIT:          0 MISS:          0
cpu3_DTLB LOAD         ACCESS:          0 HIT:          0 MISS:          0
cpu3_DTLB RFO          ACCESS:          0 HIT:          0 MISS:          0
cpu3_DTLB PREFETCH     ACCESS:          0 HIT:          0 MISS:          0
cpu3_DTLB WRITE        ACCESS:          0 HIT:          0 MISS:          0
cpu3_DTLB TRANSLATION  ACCESS:          0 HIT:          0 MISS:          0
cpu3_DTLB PREFETCH REQUESTED:          0 ISSUED:          0 USEFUL:          0 USELESS:          0
cpu3_DTLB AVERAGE MISS LATENCY: 12.6 cycles
cpu3_DTLB TOTAL        ACCESS:          0 HIT:          0 MISS:          0
cpu3_DTLB LOAD         ACCESS:          0 HIT:          0 MISS:          0
cpu3_DTLB RFO          ACCESS:          0 HIT:          0 MISS:          0
cpu3_DTLB PREFETCH     ACCESS:          0 HIT:          0 MISS:          0
cpu3_DTLB WRITE        ACCESS:          0 HIT:          0 MISS:          0
cpu3_DTLB TRANSLATION  ACCESS:          0 HIT:          0 MISS:          0
cpu3_DTLB PREFETCH REQUESTED:          0 ISSUED:          0 USEFUL:          0 USELESS:          0
cpu3_DTLB AVERAGE MISS LATENCY: 12.6 cycles
cpu3_DTLB TOTAL        ACCESS:          0 HIT:          0 MISS:          0
cpu3_DTLB LOAD         ACCESS:          0 HIT:          0 MISS:          0
cpu3_DTLB RFO          ACCESS:          0 HIT:          0 MISS:          0
cpu3_DTLB PREFETCH     ACCESS:          0 HIT:          0 MISS:          0
cpu3_DTLB WRITE        ACCESS:          0 HIT:          0 MISS:          0
cpu3_DTLB TRANSLATION  ACCESS:          0 HIT:          0 MISS:          0
cpu3_DTLB PREFETCH REQUESTED:          0 ISSUED:          0 USEFUL:          0 USELESS:          0
cpu3_DTLB AVERAGE MISS LATENCY: 12.6 cycles
cpu3_DTLB TOTAL        ACCESS:   40855721 HIT:   38309550 MISS:    2546171
cpu3_DTLB LOAD         ACCESS:   40855721 HIT:   38309550 MISS:    2546171
cpu3_DTLB RFO          ACCESS:          0 HIT:          0 MISS:          0
cpu3_DTLB PREFETCH     ACCESS:          0 HIT:          0 MISS:          0
cpu3_DTLB WRITE        ACCESS:          0 HIT:          0 MISS:          0
cpu3_DTLB TRANSLATION  ACCESS:          0 HIT:          0 MISS:          0
cpu3_DTLB PREFETCH REQUESTED:          0 ISSUED:          0 USEFUL:          0 USELESS:          0
cpu3_DTLB AVERAGE MISS LATENCY: 12.6 cycles
cpu3_ITLB TOTAL        ACCESS:          0 HIT:          0 MISS:          0
cpu3_ITLB LOAD         ACCESS:          0 HIT:          0 MISS:          0
cpu3_ITLB RFO          ACCESS:          0 HIT:          0 MISS:          0
cpu3_ITLB PREFETCH     ACCESS:          0 HIT:          0 MISS:          0
cpu3_ITLB WRITE        ACCESS:          0 HIT:          0 MISS:          0
cpu3_ITLB TRANSLATION  ACCESS:          0 HIT:          0 MISS:          0
cpu3_ITLB PREFETCH REQUESTED:          0 ISSUED:          0 USEFUL:          0 USELESS:          0
cpu3_ITLB AVERAGE MISS LATENCY: -nan cycles
cpu3_ITLB TOTAL        ACCESS:          0 HIT:          0 MISS:          0
cpu3_ITLB LOAD         ACCESS:          0 HIT:          0 MISS:          0
cpu3_ITLB RFO          ACCESS:          0 HIT:          0 MISS:          0
cpu3_ITLB PREFETCH     ACCESS:          0 HIT:          0 MISS:          0
cpu3_ITLB WRITE        ACCESS:          0 HIT:          0 MISS:          0
cpu3_ITLB TRANSLATION  ACCESS:          0 HIT:          0 MISS:          0
cpu3_ITLB PREFETCH REQUESTED:          0 ISSUED:          0 USEFUL:          0 USELESS:          0
cpu3_ITLB AVERAGE MISS LATENCY: -nan cycles
cpu3_ITLB TOTAL        ACCESS:          0 HIT:          0 MISS:          0
cpu3_ITLB LOAD         ACCESS:          0 HIT:          0 MISS:          0
cpu3_ITLB RFO          ACCESS:          0 HIT:          0 MISS:          0
cpu3_ITLB PREFETCH     ACCESS:          0 HIT:          0 MISS:          0
cpu3_ITLB WRITE        ACCESS:          0 HIT:          0 MISS:          0
cpu3_ITLB TRANSLATION  ACCESS:          0 HIT:          0 MISS:          0
cpu3_ITLB PREFETCH REQUESTED:          0 ISSUED:          0 USEFUL:          0 USELESS:          0
cpu3_ITLB AVERAGE MISS LATENCY: -nan cycles
cpu3_ITLB TOTAL        ACCESS:      48005 HIT:      48005 MISS:          0
cpu3_ITLB LOAD         ACCESS:      48005 HIT:      48005 MISS:          0
cpu3_ITLB RFO          ACCESS:          0 HIT:          0 MISS:          0
cpu3_ITLB PREFETCH     ACCESS:          0 HIT:          0 MISS:          0
cpu3_ITLB WRITE        ACCESS:          0 HIT:          0 MISS:          0
cpu3_ITLB TRANSLATION  ACCESS:          0 HIT:          0 MISS:          0
cpu3_ITLB PREFETCH REQUESTED:          0 ISSUED:          0 USEFUL:          0 USELESS:          0
cpu3_ITLB AVERAGE MISS LATENCY: -nan cycles
cpu3_L1D TOTAL        ACCESS:          0 HIT:          0 MISS:          0
cpu3_L1D LOAD         ACCESS:          0 HIT:          0 MISS:          0
cpu3_L1D RFO          ACCESS:          0 HIT:          0 MISS:          0
cpu3_L1D PREFETCH     ACCESS:          0 HIT:          0 MISS:          0
cpu3_L1D WRITE        ACCESS:          0 HIT:          0 MISS:          0
cpu3_L1D TRANSLATION  ACCESS:          0 HIT:          0 MISS:          0
cpu3_L1D PREFETCH REQUESTED:   43962570 ISSUED:   38820689 USEFUL:    1322303 USELESS:     205118
cpu3_L1D AVERAGE MISS LATENCY: 173.7 cycles
cpu3_L1D TOTAL        ACCESS:          0 HIT:          0 MISS:          0
cpu3_L1D LOAD         ACCESS:          0 HIT:          0 MISS:          0
cpu3_L1D RFO          ACCESS:          0 HIT:          0 MISS:          0
cpu3_L1D PREFETCH     ACCESS:          0 HIT:          0 MISS:          0
cpu3_L1D WRITE        ACCESS:          0 HIT:          0 MISS:          0
cpu3_L1D TRANSLATION  ACCESS:          0 HIT:          0 MISS:          0
cpu3_L1D PREFETCH REQUESTED:   43962570 ISSUED:   38820689 USEFUL:    1322303 USELESS:     205118
cpu3_L1D AVERAGE MISS LATENCY: 173.7 cycles
cpu3_L1D TOTAL        ACCESS:          0 HIT:          0 MISS:          0
cpu3_L1D LOAD         ACCESS:          0 HIT:          0 MISS:          0
cpu3_L1D RFO          ACCESS:          0 HIT:          0 MISS:          0
cpu3_L1D PREFETCH     ACCESS:          0 HIT:          0 MISS:          0
cpu3_L1D WRITE        ACCESS:          0 HIT:          0 MISS:          0
cpu3_L1D TRANSLATION  ACCESS:          0 HIT:          0 MISS:          0
cpu3_L1D PREFETCH REQUESTED:   43962570 ISSUED:   38820689 USEFUL:    1322303 USELESS:     205118
cpu3_L1D AVERAGE MISS LATENCY: 173.7 cycles
cpu3_L1D TOTAL        ACCESS:   83467095 HIT:   71336289 MISS:   12130806
cpu3_L1D LOAD         ACCESS:   34803409 HIT:   31159135 MISS:    3644274
cpu3_L1D RFO          ACCESS:          0 HIT:          0 MISS:          0
cpu3_L1D PREFETCH     ACCESS:   30937360 HIT:   24038393 MISS:    6898967
cpu3_L1D WRITE        ACCESS:   17694905 HIT:   16124469 MISS:    1570436
cpu3_L1D TRANSLATION  ACCESS:      31421 HIT:      14292 MISS:      17129
cpu3_L1D PREFETCH REQUESTED:   43962570 ISSUED:   38820689 USEFUL:    1322303 USELESS:     205118
cpu3_L1D AVERAGE MISS LATENCY: 173.7 cycles
cpu3_L1I TOTAL        ACCESS:          0 HIT:          0 MISS:          0
cpu3_L1I LOAD         ACCESS:          0 HIT:          0 MISS:          0
cpu3_L1I RFO          ACCESS:          0 HIT:          0 MISS:          0
cpu3_L1I PREFETCH     ACCESS:          0 HIT:          0 MISS:          0
cpu3_L1I WRITE        ACCESS:          0 HIT:          0 MISS:          0
cpu3_L1I TRANSLATION  ACCESS:          0 HIT:          0 MISS:          0
cpu3_L1I PREFETCH REQUESTED:          0 ISSUED:          0 USEFUL:          0 USELESS:          0
cpu3_L1I AVERAGE MISS LATENCY: 2338 cycles
cpu3_L1I TOTAL        ACCESS:          0 HIT:          0 MISS:          0
cpu3_L1I LOAD         ACCESS:          0 HIT:          0 MISS:          0
cpu3_L1I RFO          ACCESS:          0 HIT:          0 MISS:          0
cpu3_L1I PREFETCH     ACCESS:          0 HIT:          0 MISS:          0
cpu3_L1I WRITE        ACCESS:          0 HIT:          0 MISS:          0
cpu3_L1I TRANSLATION  ACCESS:          0 HIT:          0 MISS:          0
cpu3_L1I PREFETCH REQUESTED:          0 ISSUED:          0 USEFUL:          0 USELESS:          0
cpu3_L1I AVERAGE MISS LATENCY: 2338 cycles
cpu3_L1I TOTAL        ACCESS:          0 HIT:          0 MISS:          0
cpu3_L1I LOAD         ACCESS:          0 HIT:          0 MISS:          0
cpu3_L1I RFO          ACCESS:          0 HIT:          0 MISS:          0
cpu3_L1I PREFETCH     ACCESS:          0 HIT:          0 MISS:          0
cpu3_L1I WRITE        ACCESS:          0 HIT:          0 MISS:          0
cpu3_L1I TRANSLATION  ACCESS:          0 HIT:          0 MISS:          0
cpu3_L1I PREFETCH REQUESTED:          0 ISSUED:          0 USEFUL:          0 USELESS:          0
cpu3_L1I AVERAGE MISS LATENCY: 2338 cycles
cpu3_L1I TOTAL        ACCESS:      53815 HIT:      53813 MISS:          2
cpu3_L1I LOAD         ACCESS:      53815 HIT:      53813 MISS:          2
cpu3_L1I RFO          ACCESS:          0 HIT:          0 MISS:          0
cpu3_L1I PREFETCH     ACCESS:          0 HIT:          0 MISS:          0
cpu3_L1I WRITE        ACCESS:          0 HIT:          0 MISS:          0
cpu3_L1I TRANSLATION  ACCESS:          0 HIT:          0 MISS:          0
cpu3_L1I PREFETCH REQUESTED:          0 ISSUED:          0 USEFUL:          0 USELESS:          0
cpu3_L1I AVERAGE MISS LATENCY: 2338 cycles
cpu3_L2C TOTAL        ACCESS:          0 HIT:          0 MISS:          0
cpu3_L2C LOAD         ACCESS:          0 HIT:          0 MISS:          0
cpu3_L2C RFO          ACCESS:          0 HIT:          0 MISS:          0
cpu3_L2C PREFETCH     ACCESS:          0 HIT:          0 MISS:          0
cpu3_L2C WRITE        ACCESS:          0 HIT:          0 MISS:          0
cpu3_L2C TRANSLATION  ACCESS:          0 HIT:          0 MISS:          0
cpu3_L2C PREFETCH REQUESTED:          0 ISSUED:          0 USEFUL:          0 USELESS:          0
cpu3_L2C AVERAGE MISS LATENCY: 869 cycles
cpu3_L2C TOTAL        ACCESS:          0 HIT:          0 MISS:          0
cpu3_L2C LOAD         ACCESS:          0 HIT:          0 MISS:          0
cpu3_L2C RFO          ACCESS:          0 HIT:          0 MISS:          0
cpu3_L2C PREFETCH     ACCESS:          0 HIT:          0 MISS:          0
cpu3_L2C WRITE        ACCESS:          0 HIT:          0 MISS:          0
cpu3_L2C TRANSLATION  ACCESS:          0 HIT:          0 MISS:          0
cpu3_L2C PREFETCH REQUESTED:          0 ISSUED:          0 USEFUL:          0 USELESS:          0
cpu3_L2C AVERAGE MISS LATENCY: 869 cycles
cpu3_L2C TOTAL        ACCESS:          0 HIT:          0 MISS:          0
cpu3_L2C LOAD         ACCESS:          0 HIT:          0 MISS:          0
cpu3_L2C RFO          ACCESS:          0 HIT:          0 MISS:          0
cpu3_L2C PREFETCH     ACCESS:          0 HIT:          0 MISS:          0
cpu3_L2C WRITE        ACCESS:          0 HIT:          0 MISS:          0
cpu3_L2C TRANSLATION  ACCESS:          0 HIT:          0 MISS:          0
cpu3_L2C PREFETCH REQUESTED:          0 ISSUED:          0 USEFUL:          0 USELESS:          0
cpu3_L2C AVERAGE MISS LATENCY: 869 cycles
cpu3_L2C TOTAL        ACCESS:   11807906 HIT:    8033793 MISS:    3774113
cpu3_L2C LOAD         ACCESS:    3561805 HIT:    1576623 MISS:    1985182
cpu3_L2C RFO          ACCESS:     573655 HIT:     314929 MISS:     258726
cpu3_L2C PREFETCH     ACCESS:    6877766 HIT:    5362271 MISS:    1515495
cpu3_L2C WRITE        ACCESS:     777553 HIT:     777085 MISS:        468
cpu3_L2C TRANSLATION  ACCESS:      17127 HIT:       2885 MISS:      14242
cpu3_L2C PREFETCH REQUESTED:          0 ISSUED:          0 USEFUL:          0 USELESS:          0
cpu3_L2C AVERAGE MISS LATENCY: 869 cycles
cpu3_STLB TOTAL        ACCESS:          0 HIT:          0 MISS:          0
cpu3_STLB LOAD         ACCESS:          0 HIT:          0 MISS:          0
cpu3_STLB RFO          ACCESS:          0 HIT:          0 MISS:          0
cpu3_STLB PREFETCH     ACCESS:          0 HIT:          0 MISS:          0
cpu3_STLB WRITE        ACCESS:          0 HIT:          0 MISS:          0
cpu3_STLB TRANSLATION  ACCESS:          0 HIT:          0 MISS:          0
cpu3_STLB PREFETCH REQUESTED:          0 ISSUED:          0 USEFUL:          0 USELESS:          0
cpu3_STLB AVERAGE MISS LATENCY: 531.5 cycles
cpu3_STLB TOTAL        ACCESS:          0 HIT:          0 MISS:          0
cpu3_STLB LOAD         ACCESS:          0 HIT:          0 MISS:          0
cpu3_STLB RFO          ACCESS:          0 HIT:          0 MISS:          0
cpu3_STLB PREFETCH     ACCESS:          0 HIT:          0 MISS:          0
cpu3_STLB WRITE        ACCESS:          0 HIT:          0 MISS:          0
cpu3_STLB TRANSLATION  ACCESS:          0 HIT:          0 MISS:          0
cpu3_STLB PREFETCH REQUESTED:          0 ISSUED:          0 USEFUL:          0 USELESS:          0
cpu3_STLB AVERAGE MISS LATENCY: 531.5 cycles
cpu3_STLB TOTAL        ACCESS:          0 HIT:          0 MISS:          0
cpu3_STLB LOAD         ACCESS:          0 HIT:          0 MISS:          0
cpu3_STLB RFO          ACCESS:          0 HIT:          0 MISS:          0
cpu3_STLB PREFETCH     ACCESS:          0 HIT:          0 MISS:          0
cpu3_STLB WRITE        ACCESS:          0 HIT:          0 MISS:          0
cpu3_STLB TRANSLATION  ACCESS:          0 HIT:          0 MISS:          0
cpu3_STLB PREFETCH REQUESTED:          0 ISSUED:          0 USEFUL:          0 USELESS:          0
cpu3_STLB AVERAGE MISS LATENCY: 531.5 cycles
cpu3_STLB TOTAL        ACCESS:    2225508 HIT:    2194326 MISS:      31182
cpu3_STLB LOAD         ACCESS:    2225508 HIT:    2194326 MISS:      31182
cpu3_STLB RFO          ACCESS:          0 HIT:          0 MISS:          0
cpu3_STLB PREFETCH     ACCESS:          0 HIT:          0 MISS:          0
cpu3_STLB WRITE        ACCESS:          0 HIT:          0 MISS:          0
cpu3_STLB TRANSLATION  ACCESS:          0 HIT:          0 MISS:          0
cpu3_STLB PREFETCH REQUESTED:          0 ISSUED:          0 USEFUL:          0 USELESS:          0
cpu3_STLB AVERAGE MISS LATENCY: 531.5 cycles

DRAM Statistics

Channel 0 RQ ROW_BUFFER_HIT:    2905224
  ROW_BUFFER_MISS:   15341437
 AVG DBUS CONGESTED CYCLE: 3.985
WQ ROW_BUFFER_HIT: Channel 0 
  ROW_BUFFER_MISS:      81532
  FULL:    3941990
BERTI TO_L1: 80175666 TO_L2: 187391915 TO_L2_BC_MSHR: 69806354
BERTI AVG_LAT: 636.353 NUM_TRACK_LATENCY: 99011158 NUM_CANT_TRACK_LATENCY: 1130372
BERTI CROSS_PAGE 35057270 NO_CROSS_PAGE: 232510311
BERTI FOUND_BERTI: 93557880 NO_FOUND_BERTI: 292077919
BERTI AVERAGE_ISSUED: 6.55027
BERTI TO_L1: 80175666 TO_L2: 187391915 TO_L2_BC_MSHR: 69806354
BERTI AVG_LAT: 636.353 NUM_TRACK_LATENCY: 99011158 NUM_CANT_TRACK_LATENCY: 1130372
BERTI CROSS_PAGE 35057270 NO_CROSS_PAGE: 232510311
BERTI FOUND_BERTI: 93557880 NO_FOUND_BERTI: 292077919
BERTI AVERAGE_ISSUED: 6.55027
BERTI TO_L1: 80175666 TO_L2: 187391915 TO_L2_BC_MSHR: 69806354
BERTI AVG_LAT: 636.353 NUM_TRACK_LATENCY: 99011158 NUM_CANT_TRACK_LATENCY: 1130372
BERTI CROSS_PAGE 35057270 NO_CROSS_PAGE: 232510311
BERTI FOUND_BERTI: 93557880 NO_FOUND_BERTI: 292077919
BERTI AVERAGE_ISSUED: 6.55027
BERTI TO_L1: 80175666 TO_L2: 187391915 TO_L2_BC_MSHR: 69806354
BERTI AVG_LAT: 636.353 NUM_TRACK_LATENCY: 99011158 NUM_CANT_TRACK_LATENCY: 1130372
BERTI CROSS_PAGE 35057270 NO_CROSS_PAGE: 232510311
BERTI FOUND_BERTI: 93557880 NO_FOUND_BERTI: 292077919
BERTI AVERAGE_ISSUED: 6.55027
