WARNING: physical memory size is smaller than virtual memory size.
WARNING: option --warmup_instructions is deprecated. Use --warmup-instructions instead.
WARNING: option --simulation_instructions is deprecated. Use --simulation-instructions instead.

*** ChampSim Multicore Out-of-Order Simulator ***
Warmup Instructions: 50000000
Simulation Instructions: 150000000
Number of CPUs: 4
Page size: 4096

Berti Prefetcher
BERTI HASH ORIGINAL
BERTI IP MASK ffff
Berti Prefetcher
BERTI HASH ORIGINAL
BERTI IP MASK ffff
Berti Prefetcher
BERTI HASH ORIGINAL
BERTI IP MASK ffff
Berti Prefetcher
BERTI HASH ORIGINAL
BERTI IP MASK ffff
Off-chip DRAM Size: 4 GiB Channels: 1 Width: 64-bit Data Race: 3200 MT/s
Heartbeat CPU 3 instructions: 10000000 cycles: 2653766 heartbeat IPC: 3.768 cumulative IPC: 3.768 (Simulation time: 00 hr 02 min 33 sec)
Heartbeat CPU 2 instructions: 10000004 cycles: 3014880 heartbeat IPC: 3.317 cumulative IPC: 3.317 (Simulation time: 00 hr 02 min 55 sec)
Heartbeat CPU 1 instructions: 10000002 cycles: 3681220 heartbeat IPC: 2.716 cumulative IPC: 2.716 (Simulation time: 00 hr 03 min 34 sec)
Heartbeat CPU 0 instructions: 10000002 cycles: 4174738 heartbeat IPC: 2.395 cumulative IPC: 2.395 (Simulation time: 00 hr 04 min 03 sec)
Heartbeat CPU 3 instructions: 20000000 cycles: 5307532 heartbeat IPC: 3.768 cumulative IPC: 3.768 (Simulation time: 00 hr 05 min 12 sec)
Heartbeat CPU 2 instructions: 20000004 cycles: 6038995 heartbeat IPC: 3.307 cumulative IPC: 3.312 (Simulation time: 00 hr 05 min 55 sec)
Heartbeat CPU 1 instructions: 20000003 cycles: 7362898 heartbeat IPC: 2.716 cumulative IPC: 2.716 (Simulation time: 00 hr 07 min 16 sec)
Heartbeat CPU 3 instructions: 30000003 cycles: 7960593 heartbeat IPC: 3.769 cumulative IPC: 3.769 (Simulation time: 00 hr 07 min 52 sec)
Heartbeat CPU 0 instructions: 20000004 cycles: 8348435 heartbeat IPC: 2.396 cumulative IPC: 2.396 (Simulation time: 00 hr 08 min 14 sec)
Heartbeat CPU 2 instructions: 30000000 cycles: 9054859 heartbeat IPC: 3.316 cumulative IPC: 3.313 (Simulation time: 00 hr 08 min 58 sec)
Heartbeat CPU 3 instructions: 40000001 cycles: 10613369 heartbeat IPC: 3.77 cumulative IPC: 3.769 (Simulation time: 00 hr 10 min 35 sec)
Heartbeat CPU 1 instructions: 30000002 cycles: 11044859 heartbeat IPC: 2.716 cumulative IPC: 2.716 (Simulation time: 00 hr 11 min 00 sec)
Heartbeat CPU 2 instructions: 40000002 cycles: 12068646 heartbeat IPC: 3.318 cumulative IPC: 3.314 (Simulation time: 00 hr 12 min 02 sec)
Heartbeat CPU 0 instructions: 30000001 cycles: 12521913 heartbeat IPC: 2.396 cumulative IPC: 2.396 (Simulation time: 00 hr 12 min 28 sec)
Heartbeat CPU 3 instructions: 50000001 cycles: 13267143 heartbeat IPC: 3.768 cumulative IPC: 3.769 (Simulation time: 00 hr 13 min 15 sec)
Warmup finished CPU 3 instructions: 50000001 cycles: 13267144 cumulative IPC: 3.769 (Simulation time: 00 hr 13 min 15 sec)
Heartbeat CPU 1 instructions: 40000001 cycles: 14723758 heartbeat IPC: 2.718 cumulative IPC: 2.717 (Simulation time: 00 hr 14 min 41 sec)
Heartbeat CPU 2 instructions: 50000001 cycles: 15072347 heartbeat IPC: 3.329 cumulative IPC: 3.317 (Simulation time: 00 hr 15 min 01 sec)
Warmup finished CPU 2 instructions: 50000001 cycles: 15072348 cumulative IPC: 3.317 (Simulation time: 00 hr 15 min 01 sec)
Heartbeat CPU 3 instructions: 60000000 cycles: 15923404 heartbeat IPC: 3.765 cumulative IPC: 3.768 (Simulation time: 00 hr 15 min 52 sec)
Heartbeat CPU 0 instructions: 40000000 cycles: 16708513 heartbeat IPC: 2.389 cumulative IPC: 2.394 (Simulation time: 00 hr 16 min 38 sec)
Heartbeat CPU 2 instructions: 60000003 cycles: 18088472 heartbeat IPC: 3.316 cumulative IPC: 3.317 (Simulation time: 00 hr 18 min 02 sec)
Heartbeat CPU 1 instructions: 50000002 cycles: 18407423 heartbeat IPC: 2.715 cumulative IPC: 2.716 (Simulation time: 00 hr 18 min 20 sec)
Warmup finished CPU 1 instructions: 50000002 cycles: 18407424 cumulative IPC: 2.716 (Simulation time: 00 hr 18 min 20 sec)
Heartbeat CPU 3 instructions: 70000000 cycles: 18584735 heartbeat IPC: 3.758 cumulative IPC: 3.767 (Simulation time: 00 hr 18 min 30 sec)
Heartbeat CPU 0 instructions: 50000003 cycles: 20874496 heartbeat IPC: 2.4 cumulative IPC: 2.395 (Simulation time: 00 hr 20 min 43 sec)
Warmup finished CPU 0 instructions: 50000003 cycles: 20874497 cumulative IPC: 2.395 (Simulation time: 00 hr 20 min 43 sec)
Warmup complete CPU 0 instructions: 50000003 cycles: 20874497 cumulative IPC: 2.395 (Simulation time: 00 hr 20 min 43 sec)
Warmup complete CPU 1 instructions: 56458505 cycles: 20874497 cumulative IPC: 2.705 (Simulation time: 00 hr 20 min 43 sec)
Warmup complete CPU 2 instructions: 69235703 cycles: 20874497 cumulative IPC: 3.317 (Simulation time: 00 hr 20 min 43 sec)
Warmup complete CPU 3 instructions: 78827277 cycles: 20874497 cumulative IPC: 3.776 (Simulation time: 00 hr 20 min 43 sec)
Heartbeat CPU 3 instructions: 80000000 cycles: 22193807 heartbeat IPC: 2.771 cumulative IPC: 0.8889 (Simulation time: 00 hr 21 min 16 sec)
Heartbeat CPU 2 instructions: 70000000 cycles: 23956107 heartbeat IPC: 1.704 cumulative IPC: 0.248 (Simulation time: 00 hr 22 min 03 sec)
Heartbeat CPU 1 instructions: 60000004 cycles: 25977193 heartbeat IPC: 1.321 cumulative IPC: 0.694 (Simulation time: 00 hr 22 min 59 sec)
Heartbeat CPU 3 instructions: 90000000 cycles: 28535294 heartbeat IPC: 1.577 cumulative IPC: 1.458 (Simulation time: 00 hr 24 min 14 sec)
Heartbeat CPU 3 instructions: 100000002 cycles: 37063261 heartbeat IPC: 1.173 cumulative IPC: 1.308 (Simulation time: 00 hr 28 min 10 sec)
Heartbeat CPU 1 instructions: 70000004 cycles: 42065975 heartbeat IPC: 0.6216 cumulative IPC: 0.639 (Simulation time: 00 hr 30 min 25 sec)
Heartbeat CPU 3 instructions: 110000001 cycles: 45815809 heartbeat IPC: 1.143 cumulative IPC: 1.25 (Simulation time: 00 hr 32 min 17 sec)
Heartbeat CPU 3 instructions: 120000003 cycles: 55305530 heartbeat IPC: 1.054 cumulative IPC: 1.196 (Simulation time: 00 hr 36 min 31 sec)
Heartbeat CPU 1 instructions: 80000000 cycles: 61271559 heartbeat IPC: 0.5207 cumulative IPC: 0.5828 (Simulation time: 00 hr 39 min 15 sec)
Heartbeat CPU 3 instructions: 130000002 cycles: 63023021 heartbeat IPC: 1.296 cumulative IPC: 1.214 (Simulation time: 00 hr 40 min 02 sec)
Heartbeat CPU 3 instructions: 140000003 cycles: 69165863 heartbeat IPC: 1.628 cumulative IPC: 1.267 (Simulation time: 00 hr 42 min 57 sec)
Heartbeat CPU 3 instructions: 150000000 cycles: 75684012 heartbeat IPC: 1.534 cumulative IPC: 1.299 (Simulation time: 00 hr 45 min 55 sec)
Heartbeat CPU 1 instructions: 90000000 cycles: 77982205 heartbeat IPC: 0.5984 cumulative IPC: 0.5873 (Simulation time: 00 hr 46 min 58 sec)
Heartbeat CPU 3 instructions: 160000000 cycles: 82997045 heartbeat IPC: 1.367 cumulative IPC: 1.307 (Simulation time: 00 hr 49 min 12 sec)
Heartbeat CPU 3 instructions: 170000000 cycles: 88287496 heartbeat IPC: 1.89 cumulative IPC: 1.352 (Simulation time: 00 hr 51 min 53 sec)
Heartbeat CPU 1 instructions: 100000001 cycles: 92974361 heartbeat IPC: 0.667 cumulative IPC: 0.6039 (Simulation time: 00 hr 54 min 04 sec)
Heartbeat CPU 2 instructions: 80000000 cycles: 97870219 heartbeat IPC: 0.1353 cumulative IPC: 0.1398 (Simulation time: 00 hr 56 min 20 sec)
Heartbeat CPU 3 instructions: 180000000 cycles: 98499061 heartbeat IPC: 0.9793 cumulative IPC: 1.303 (Simulation time: 00 hr 56 min 38 sec)
Heartbeat CPU 0 instructions: 60000000 cycles: 98510911 heartbeat IPC: 0.1288 cumulative IPC: 0.1288 (Simulation time: 00 hr 56 min 39 sec)
Heartbeat CPU 3 instructions: 190000004 cycles: 107179924 heartbeat IPC: 1.152 cumulative IPC: 1.288 (Simulation time: 01 hr 00 min 53 sec)
Heartbeat CPU 1 instructions: 110000003 cycles: 107436204 heartbeat IPC: 0.6915 cumulative IPC: 0.6185 (Simulation time: 01 hr 01 min 01 sec)
Heartbeat CPU 3 instructions: 200000002 cycles: 115776001 heartbeat IPC: 1.163 cumulative IPC: 1.277 (Simulation time: 01 hr 05 min 15 sec)
Heartbeat CPU 1 instructions: 120000004 cycles: 121039494 heartbeat IPC: 0.7351 cumulative IPC: 0.6344 (Simulation time: 01 hr 07 min 49 sec)
Heartbeat CPU 3 instructions: 210000000 cycles: 124409102 heartbeat IPC: 1.158 cumulative IPC: 1.267 (Simulation time: 01 hr 09 min 52 sec)
Heartbeat CPU 3 instructions: 220000001 cycles: 132921383 heartbeat IPC: 1.175 cumulative IPC: 1.26 (Simulation time: 01 hr 14 min 31 sec)
Heartbeat CPU 1 instructions: 130000004 cycles: 134923234 heartbeat IPC: 0.7203 cumulative IPC: 0.6448 (Simulation time: 01 hr 15 min 51 sec)
Simulation finished CPU 3 instructions: 150000003 cycles: 119636464 cumulative IPC: 1.254 (Simulation time: 01 hr 19 min 41 sec)
Heartbeat CPU 3 instructions: 230000000 cycles: 141522178 heartbeat IPC: 1.163 cumulative IPC: 1.253 (Simulation time: 01 hr 20 min 11 sec)
Heartbeat CPU 1 instructions: 140000002 cycles: 148862985 heartbeat IPC: 0.7174 cumulative IPC: 0.6527 (Simulation time: 01 hr 24 min 58 sec)
Heartbeat CPU 3 instructions: 240000002 cycles: 150451464 heartbeat IPC: 1.12 cumulative IPC: 1.244 (Simulation time: 01 hr 26 min 03 sec)
Heartbeat CPU 2 instructions: 90000004 cycles: 151932379 heartbeat IPC: 0.185 cumulative IPC: 0.1584 (Simulation time: 01 hr 26 min 57 sec)
Heartbeat CPU 0 instructions: 70000004 cycles: 157525850 heartbeat IPC: 0.1694 cumulative IPC: 0.1464 (Simulation time: 01 hr 30 min 22 sec)
Heartbeat CPU 3 instructions: 250000000 cycles: 158707890 heartbeat IPC: 1.211 cumulative IPC: 1.242 (Simulation time: 01 hr 31 min 07 sec)
Heartbeat CPU 1 instructions: 150000002 cycles: 163410524 heartbeat IPC: 0.6874 cumulative IPC: 0.6563 (Simulation time: 01 hr 34 min 03 sec)
Heartbeat CPU 3 instructions: 260000003 cycles: 165773537 heartbeat IPC: 1.415 cumulative IPC: 1.25 (Simulation time: 01 hr 35 min 20 sec)
Heartbeat CPU 3 instructions: 270000001 cycles: 171492706 heartbeat IPC: 1.749 cumulative IPC: 1.269 (Simulation time: 01 hr 38 min 34 sec)
Heartbeat CPU 1 instructions: 160000004 cycles: 178999323 heartbeat IPC: 0.6415 cumulative IPC: 0.6548 (Simulation time: 01 hr 43 min 35 sec)
Heartbeat CPU 3 instructions: 280000004 cycles: 180150168 heartbeat IPC: 1.155 cumulative IPC: 1.263 (Simulation time: 01 hr 44 min 19 sec)
Heartbeat CPU 3 instructions: 290000000 cycles: 188946389 heartbeat IPC: 1.137 cumulative IPC: 1.256 (Simulation time: 01 hr 50 min 07 sec)
Heartbeat CPU 1 instructions: 170000000 cycles: 197458265 heartbeat IPC: 0.5417 cumulative IPC: 0.643 (Simulation time: 01 hr 54 min 25 sec)
Heartbeat CPU 3 instructions: 300000000 cycles: 197915064 heartbeat IPC: 1.115 cumulative IPC: 1.249 (Simulation time: 01 hr 54 min 38 sec)
Heartbeat CPU 3 instructions: 310000002 cycles: 206130475 heartbeat IPC: 1.217 cumulative IPC: 1.248 (Simulation time: 01 hr 59 min 03 sec)
Heartbeat CPU 2 instructions: 100000000 cycles: 207819040 heartbeat IPC: 0.1789 cumulative IPC: 0.1646 (Simulation time: 02 hr 00 min 05 sec)
Heartbeat CPU 3 instructions: 320000003 cycles: 212757464 heartbeat IPC: 1.509 cumulative IPC: 1.257 (Simulation time: 02 hr 02 min 22 sec)
Heartbeat CPU 1 instructions: 180000001 cycles: 214131239 heartbeat IPC: 0.5998 cumulative IPC: 0.6393 (Simulation time: 02 hr 03 min 04 sec)
Heartbeat CPU 3 instructions: 330000002 cycles: 219385978 heartbeat IPC: 1.509 cumulative IPC: 1.265 (Simulation time: 02 hr 05 min 42 sec)
Heartbeat CPU 3 instructions: 340000000 cycles: 227490711 heartbeat IPC: 1.234 cumulative IPC: 1.264 (Simulation time: 02 hr 09 min 21 sec)
Heartbeat CPU 1 instructions: 190000003 cycles: 230552393 heartbeat IPC: 0.609 cumulative IPC: 0.6369 (Simulation time: 02 hr 11 min 25 sec)
Heartbeat CPU 3 instructions: 350000000 cycles: 232595848 heartbeat IPC: 1.959 cumulative IPC: 1.281 (Simulation time: 02 hr 12 min 33 sec)
Heartbeat CPU 0 instructions: 80000002 cycles: 235192379 heartbeat IPC: 0.1288 cumulative IPC: 0.14 (Simulation time: 02 hr 14 min 03 sec)
Heartbeat CPU 3 instructions: 360000001 cycles: 242551290 heartbeat IPC: 1.004 cumulative IPC: 1.268 (Simulation time: 02 hr 17 min 45 sec)
Heartbeat CPU 1 instructions: 200000002 cycles: 245844955 heartbeat IPC: 0.6539 cumulative IPC: 0.638 (Simulation time: 02 hr 19 min 31 sec)
Heartbeat CPU 3 instructions: 370000002 cycles: 251292777 heartbeat IPC: 1.144 cumulative IPC: 1.264 (Simulation time: 02 hr 22 min 17 sec)
Simulation finished CPU 1 instructions: 150000002 cycles: 233792644 cumulative IPC: 0.6416 (Simulation time: 02 hr 24 min 03 sec)
Heartbeat CPU 2 instructions: 110000000 cycles: 257185157 heartbeat IPC: 0.2026 cumulative IPC: 0.1725 (Simulation time: 02 hr 25 min 17 sec)
Heartbeat CPU 1 instructions: 210000002 cycles: 259529331 heartbeat IPC: 0.7308 cumulative IPC: 0.6434 (Simulation time: 02 hr 26 min 27 sec)
Heartbeat CPU 3 instructions: 380000003 cycles: 259777654 heartbeat IPC: 1.179 cumulative IPC: 1.261 (Simulation time: 02 hr 26 min 34 sec)
Heartbeat CPU 3 instructions: 390000000 cycles: 268340682 heartbeat IPC: 1.168 cumulative IPC: 1.257 (Simulation time: 02 hr 30 min 53 sec)
Heartbeat CPU 1 instructions: 220000003 cycles: 273184093 heartbeat IPC: 0.7323 cumulative IPC: 0.6482 (Simulation time: 02 hr 33 min 17 sec)
Heartbeat CPU 3 instructions: 400000001 cycles: 276889064 heartbeat IPC: 1.17 cumulative IPC: 1.255 (Simulation time: 02 hr 35 min 08 sec)
Heartbeat CPU 3 instructions: 410000003 cycles: 285262833 heartbeat IPC: 1.194 cumulative IPC: 1.253 (Simulation time: 02 hr 39 min 19 sec)
Heartbeat CPU 1 instructions: 230000002 cycles: 286638824 heartbeat IPC: 0.7432 cumulative IPC: 0.653 (Simulation time: 02 hr 40 min 01 sec)
Heartbeat CPU 0 instructions: 90000001 cycles: 293816418 heartbeat IPC: 0.1706 cumulative IPC: 0.1466 (Simulation time: 02 hr 44 min 04 sec)
Heartbeat CPU 3 instructions: 420000004 cycles: 293857855 heartbeat IPC: 1.163 cumulative IPC: 1.25 (Simulation time: 02 hr 44 min 06 sec)
Heartbeat CPU 2 instructions: 120000003 cycles: 299392697 heartbeat IPC: 0.2369 cumulative IPC: 0.1823 (Simulation time: 02 hr 46 min 57 sec)
Heartbeat CPU 1 instructions: 240000003 cycles: 300497917 heartbeat IPC: 0.7215 cumulative IPC: 0.6564 (Simulation time: 02 hr 47 min 32 sec)
Heartbeat CPU 3 instructions: 430000000 cycles: 302327565 heartbeat IPC: 1.181 cumulative IPC: 1.248 (Simulation time: 02 hr 48 min 26 sec)
Heartbeat CPU 3 instructions: 440000002 cycles: 308713440 heartbeat IPC: 1.566 cumulative IPC: 1.255 (Simulation time: 02 hr 51 min 37 sec)
Heartbeat CPU 1 instructions: 250000003 cycles: 314858700 heartbeat IPC: 0.6963 cumulative IPC: 0.6583 (Simulation time: 02 hr 54 min 48 sec)
Heartbeat CPU 3 instructions: 450000001 cycles: 315204363 heartbeat IPC: 1.541 cumulative IPC: 1.261 (Simulation time: 02 hr 55 min 01 sec)
Heartbeat CPU 3 instructions: 460000002 cycles: 322768399 heartbeat IPC: 1.322 cumulative IPC: 1.263 (Simulation time: 02 hr 58 min 46 sec)
Heartbeat CPU 3 instructions: 470000001 cycles: 331633983 heartbeat IPC: 1.128 cumulative IPC: 1.259 (Simulation time: 03 hr 02 min 59 sec)
Heartbeat CPU 1 instructions: 260000004 cycles: 331803176 heartbeat IPC: 0.5902 cumulative IPC: 0.6546 (Simulation time: 03 hr 03 min 04 sec)
Heartbeat CPU 3 instructions: 480000001 cycles: 342049014 heartbeat IPC: 0.9602 cumulative IPC: 1.249 (Simulation time: 03 hr 07 min 41 sec)
Heartbeat CPU 3 instructions: 490000000 cycles: 348334051 heartbeat IPC: 1.591 cumulative IPC: 1.256 (Simulation time: 03 hr 10 min 31 sec)
Heartbeat CPU 1 instructions: 270000002 cycles: 350397681 heartbeat IPC: 0.5378 cumulative IPC: 0.648 (Simulation time: 03 hr 11 min 26 sec)
Heartbeat CPU 2 instructions: 130000000 cycles: 355571068 heartbeat IPC: 0.178 cumulative IPC: 0.1816 (Simulation time: 03 hr 13 min 44 sec)
Heartbeat CPU 3 instructions: 500000003 cycles: 356778247 heartbeat IPC: 1.184 cumulative IPC: 1.254 (Simulation time: 03 hr 14 min 21 sec)
Heartbeat CPU 3 instructions: 510000001 cycles: 362129829 heartbeat IPC: 1.869 cumulative IPC: 1.263 (Simulation time: 03 hr 16 min 45 sec)
Heartbeat CPU 1 instructions: 280000000 cycles: 367158006 heartbeat IPC: 0.5966 cumulative IPC: 0.6455 (Simulation time: 03 hr 19 min 00 sec)
Heartbeat CPU 3 instructions: 520000001 cycles: 371572633 heartbeat IPC: 1.059 cumulative IPC: 1.258 (Simulation time: 03 hr 20 min 49 sec)
Heartbeat CPU 0 instructions: 100000000 cycles: 372099962 heartbeat IPC: 0.1277 cumulative IPC: 0.1424 (Simulation time: 03 hr 21 min 06 sec)
Heartbeat CPU 3 instructions: 530000001 cycles: 376321470 heartbeat IPC: 2.106 cumulative IPC: 1.269 (Simulation time: 03 hr 23 min 10 sec)
Heartbeat CPU 1 instructions: 290000001 cycles: 382681394 heartbeat IPC: 0.6442 cumulative IPC: 0.6455 (Simulation time: 03 hr 26 min 06 sec)
Heartbeat CPU 3 instructions: 540000004 cycles: 385177072 heartbeat IPC: 1.129 cumulative IPC: 1.266 (Simulation time: 03 hr 27 min 10 sec)
Heartbeat CPU 3 instructions: 550000004 cycles: 393984609 heartbeat IPC: 1.135 cumulative IPC: 1.263 (Simulation time: 03 hr 31 min 23 sec)
Heartbeat CPU 1 instructions: 300000001 cycles: 397018000 heartbeat IPC: 0.6975 cumulative IPC: 0.6475 (Simulation time: 03 hr 32 min 51 sec)
Heartbeat CPU 3 instructions: 560000003 cycles: 402678422 heartbeat IPC: 1.15 cumulative IPC: 1.26 (Simulation time: 03 hr 35 min 33 sec)
Heartbeat CPU 2 instructions: 140000002 cycles: 404655566 heartbeat IPC: 0.2037 cumulative IPC: 0.1844 (Simulation time: 03 hr 36 min 31 sec)
Heartbeat CPU 1 instructions: 310000003 cycles: 411106358 heartbeat IPC: 0.7098 cumulative IPC: 0.6497 (Simulation time: 03 hr 39 min 38 sec)
Heartbeat CPU 3 instructions: 570000000 cycles: 411404098 heartbeat IPC: 1.146 cumulative IPC: 1.258 (Simulation time: 03 hr 39 min 45 sec)
Heartbeat CPU 3 instructions: 580000003 cycles: 420112180 heartbeat IPC: 1.148 cumulative IPC: 1.255 (Simulation time: 03 hr 43 min 50 sec)
Heartbeat CPU 1 instructions: 320000002 cycles: 425024666 heartbeat IPC: 0.7185 cumulative IPC: 0.6521 (Simulation time: 03 hr 46 min 17 sec)
Heartbeat CPU 3 instructions: 590000000 cycles: 428528344 heartbeat IPC: 1.188 cumulative IPC: 1.254 (Simulation time: 03 hr 47 min 55 sec)
Heartbeat CPU 0 instructions: 110000004 cycles: 433795865 heartbeat IPC: 0.1621 cumulative IPC: 0.1453 (Simulation time: 03 hr 50 min 32 sec)
Heartbeat CPU 3 instructions: 600000001 cycles: 436808682 heartbeat IPC: 1.208 cumulative IPC: 1.253 (Simulation time: 03 hr 51 min 58 sec)
Heartbeat CPU 1 instructions: 330000001 cycles: 438814816 heartbeat IPC: 0.7252 cumulative IPC: 0.6545 (Simulation time: 03 hr 52 min 59 sec)
Heartbeat CPU 3 instructions: 610000000 cycles: 445251085 heartbeat IPC: 1.184 cumulative IPC: 1.252 (Simulation time: 03 hr 56 min 12 sec)
Heartbeat CPU 2 instructions: 150000000 cycles: 447366186 heartbeat IPC: 0.2341 cumulative IPC: 0.1894 (Simulation time: 03 hr 57 min 16 sec)
Heartbeat CPU 3 instructions: 620000004 cycles: 451140612 heartbeat IPC: 1.698 cumulative IPC: 1.258 (Simulation time: 03 hr 59 min 19 sec)
Heartbeat CPU 1 instructions: 340000000 cycles: 453150100 heartbeat IPC: 0.6976 cumulative IPC: 0.6559 (Simulation time: 04 hr 00 min 20 sec)
Heartbeat CPU 3 instructions: 630000000 cycles: 459163615 heartbeat IPC: 1.246 cumulative IPC: 1.258 (Simulation time: 04 hr 03 min 23 sec)
Heartbeat CPU 3 instructions: 640000000 cycles: 466146560 heartbeat IPC: 1.432 cumulative IPC: 1.26 (Simulation time: 04 hr 06 min 50 sec)
Heartbeat CPU 1 instructions: 350000002 cycles: 468707300 heartbeat IPC: 0.6428 cumulative IPC: 0.6555 (Simulation time: 04 hr 08 min 20 sec)
Heartbeat CPU 3 instructions: 650000000 cycles: 474638821 heartbeat IPC: 1.178 cumulative IPC: 1.259 (Simulation time: 04 hr 12 min 11 sec)
Heartbeat CPU 3 instructions: 660000002 cycles: 486307877 heartbeat IPC: 0.857 cumulative IPC: 1.249 (Simulation time: 04 hr 18 min 24 sec)
Heartbeat CPU 1 instructions: 360000004 cycles: 487392629 heartbeat IPC: 0.5352 cumulative IPC: 0.6507 (Simulation time: 04 hr 19 min 06 sec)
Heartbeat CPU 3 instructions: 670000003 cycles: 492459634 heartbeat IPC: 1.626 cumulative IPC: 1.254 (Simulation time: 04 hr 22 min 06 sec)
Heartbeat CPU 3 instructions: 680000000 cycles: 501548242 heartbeat IPC: 1.1 cumulative IPC: 1.251 (Simulation time: 04 hr 27 min 04 sec)
Heartbeat CPU 2 instructions: 160000002 cycles: 502217874 heartbeat IPC: 0.1823 cumulative IPC: 0.1886 (Simulation time: 04 hr 27 min 36 sec)
Heartbeat CPU 1 instructions: 370000001 cycles: 504051354 heartbeat IPC: 0.6003 cumulative IPC: 0.6489 (Simulation time: 04 hr 28 min 55 sec)
Heartbeat CPU 3 instructions: 690000000 cycles: 505170262 heartbeat IPC: 2.761 cumulative IPC: 1.262 (Simulation time: 04 hr 29 min 38 sec)
Heartbeat CPU 0 instructions: 120000004 cycles: 508435392 heartbeat IPC: 0.134 cumulative IPC: 0.1436 (Simulation time: 04 hr 31 min 38 sec)
Heartbeat CPU 3 instructions: 700000000 cycles: 512845394 heartbeat IPC: 1.303 cumulative IPC: 1.263 (Simulation time: 04 hr 34 min 09 sec)
Heartbeat CPU 1 instructions: 380000002 cycles: 520647521 heartbeat IPC: 0.6025 cumulative IPC: 0.6474 (Simulation time: 04 hr 39 min 17 sec)
Heartbeat CPU 3 instructions: 710000000 cycles: 520686837 heartbeat IPC: 1.275 cumulative IPC: 1.263 (Simulation time: 04 hr 39 min 19 sec)
Heartbeat CPU 3 instructions: 720000003 cycles: 526660723 heartbeat IPC: 1.674 cumulative IPC: 1.268 (Simulation time: 04 hr 43 min 22 sec)
Heartbeat CPU 1 instructions: 390000001 cycles: 535992374 heartbeat IPC: 0.6517 cumulative IPC: 0.6475 (Simulation time: 04 hr 48 min 16 sec)
Heartbeat CPU 3 instructions: 730000000 cycles: 537241077 heartbeat IPC: 0.9451 cumulative IPC: 1.261 (Simulation time: 04 hr 48 min 54 sec)
Heartbeat CPU 3 instructions: 740000004 cycles: 545446245 heartbeat IPC: 1.219 cumulative IPC: 1.26 (Simulation time: 04 hr 53 min 29 sec)
Heartbeat CPU 1 instructions: 400000003 cycles: 549730334 heartbeat IPC: 0.7279 cumulative IPC: 0.6496 (Simulation time: 04 hr 56 min 30 sec)
Heartbeat CPU 2 instructions: 170000000 cycles: 551300240 heartbeat IPC: 0.2037 cumulative IPC: 0.19 (Simulation time: 04 hr 57 min 40 sec)
Heartbeat CPU 3 instructions: 750000002 cycles: 553709767 heartbeat IPC: 1.21 cumulative IPC: 1.26 (Simulation time: 04 hr 59 min 16 sec)
Heartbeat CPU 3 instructions: 760000003 cycles: 562177250 heartbeat IPC: 1.181 cumulative IPC: 1.258 (Simulation time: 05 hr 04 min 56 sec)
Heartbeat CPU 1 instructions: 410000002 cycles: 563248877 heartbeat IPC: 0.7397 cumulative IPC: 0.6518 (Simulation time: 05 hr 05 min 42 sec)
Heartbeat CPU 3 instructions: 770000002 cycles: 570507664 heartbeat IPC: 1.2 cumulative IPC: 1.258 (Simulation time: 05 hr 10 min 20 sec)
Heartbeat CPU 0 instructions: 130000002 cycles: 572480596 heartbeat IPC: 0.1561 cumulative IPC: 0.145 (Simulation time: 05 hr 11 min 37 sec)
Heartbeat CPU 1 instructions: 420000000 cycles: 577033049 heartbeat IPC: 0.7255 cumulative IPC: 0.6537 (Simulation time: 05 hr 14 min 22 sec)
Heartbeat CPU 3 instructions: 780000000 cycles: 578811644 heartbeat IPC: 1.204 cumulative IPC: 1.257 (Simulation time: 05 hr 15 min 15 sec)
Heartbeat CPU 3 instructions: 790000004 cycles: 587529640 heartbeat IPC: 1.147 cumulative IPC: 1.255 (Simulation time: 05 hr 19 min 31 sec)
Heartbeat CPU 1 instructions: 430000002 cycles: 590941091 heartbeat IPC: 0.719 cumulative IPC: 0.6553 (Simulation time: 05 hr 21 min 08 sec)
Heartbeat CPU 2 instructions: 180000001 cycles: 592753805 heartbeat IPC: 0.2412 cumulative IPC: 0.1937 (Simulation time: 05 hr 22 min 04 sec)
Heartbeat CPU 3 instructions: 800000001 cycles: 594616957 heartbeat IPC: 1.411 cumulative IPC: 1.257 (Simulation time: 05 hr 23 min 00 sec)
Heartbeat CPU 3 instructions: 810000000 cycles: 602552072 heartbeat IPC: 1.26 cumulative IPC: 1.257 (Simulation time: 05 hr 27 min 35 sec)
Heartbeat CPU 1 instructions: 440000003 cycles: 605039606 heartbeat IPC: 0.7093 cumulative IPC: 0.6566 (Simulation time: 05 hr 28 min 56 sec)
Heartbeat CPU 3 instructions: 820000001 cycles: 608245186 heartbeat IPC: 1.757 cumulative IPC: 1.262 (Simulation time: 05 hr 30 min 27 sec)
Heartbeat CPU 3 instructions: 830000001 cycles: 616135281 heartbeat IPC: 1.267 cumulative IPC: 1.262 (Simulation time: 05 hr 34 min 11 sec)
Heartbeat CPU 1 instructions: 450000002 cycles: 621970586 heartbeat IPC: 0.5906 cumulative IPC: 0.6547 (Simulation time: 05 hr 36 min 51 sec)
Heartbeat CPU 3 instructions: 840000003 cycles: 625123504 heartbeat IPC: 1.113 cumulative IPC: 1.26 (Simulation time: 05 hr 38 min 42 sec)
Heartbeat CPU 3 instructions: 850000001 cycles: 633711265 heartbeat IPC: 1.164 cumulative IPC: 1.258 (Simulation time: 05 hr 43 min 57 sec)
Heartbeat CPU 1 instructions: 460000001 cycles: 640855886 heartbeat IPC: 0.5295 cumulative IPC: 0.6509 (Simulation time: 05 hr 47 min 34 sec)
Heartbeat CPU 3 instructions: 860000002 cycles: 641999714 heartbeat IPC: 1.206 cumulative IPC: 1.258 (Simulation time: 05 hr 48 min 16 sec)
Heartbeat CPU 0 instructions: 140000001 cycles: 643717008 heartbeat IPC: 0.1404 cumulative IPC: 0.1445 (Simulation time: 05 hr 49 min 12 sec)
Heartbeat CPU 3 instructions: 870000000 cycles: 648462111 heartbeat IPC: 1.547 cumulative IPC: 1.261 (Simulation time: 05 hr 51 min 54 sec)
Heartbeat CPU 2 instructions: 190000003 cycles: 649557796 heartbeat IPC: 0.176 cumulative IPC: 0.1921 (Simulation time: 05 hr 52 min 39 sec)
Heartbeat CPU 3 instructions: 880000004 cycles: 655516051 heartbeat IPC: 1.418 cumulative IPC: 1.262 (Simulation time: 05 hr 56 min 15 sec)
Heartbeat CPU 1 instructions: 470000001 cycles: 657369497 heartbeat IPC: 0.6056 cumulative IPC: 0.6497 (Simulation time: 05 hr 57 min 25 sec)
Heartbeat CPU 3 instructions: 890000000 cycles: 664021319 heartbeat IPC: 1.176 cumulative IPC: 1.261 (Simulation time: 06 hr 01 min 16 sec)
Heartbeat CPU 3 instructions: 900000001 cycles: 669191869 heartbeat IPC: 1.934 cumulative IPC: 1.267 (Simulation time: 06 hr 04 min 38 sec)
Heartbeat CPU 1 instructions: 480000001 cycles: 672969692 heartbeat IPC: 0.641 cumulative IPC: 0.6495 (Simulation time: 06 hr 07 min 03 sec)
Heartbeat CPU 3 instructions: 910000002 cycles: 678862380 heartbeat IPC: 1.034 cumulative IPC: 1.263 (Simulation time: 06 hr 10 min 34 sec)
Heartbeat CPU 3 instructions: 920000004 cycles: 687391144 heartbeat IPC: 1.173 cumulative IPC: 1.262 (Simulation time: 06 hr 16 min 01 sec)
Heartbeat CPU 1 instructions: 490000001 cycles: 687543439 heartbeat IPC: 0.6862 cumulative IPC: 0.6503 (Simulation time: 06 hr 16 min 07 sec)
Heartbeat CPU 3 instructions: 930000002 cycles: 695692196 heartbeat IPC: 1.205 cumulative IPC: 1.261 (Simulation time: 06 hr 21 min 24 sec)
Heartbeat CPU 2 instructions: 200000000 cycles: 698170001 heartbeat IPC: 0.2057 cumulative IPC: 0.1931 (Simulation time: 06 hr 22 min 58 sec)
Heartbeat CPU 1 instructions: 500000001 cycles: 701173774 heartbeat IPC: 0.7337 cumulative IPC: 0.652 (Simulation time: 06 hr 24 min 56 sec)
Heartbeat CPU 3 instructions: 940000002 cycles: 703893005 heartbeat IPC: 1.219 cumulative IPC: 1.261 (Simulation time: 06 hr 26 min 38 sec)
Heartbeat CPU 0 instructions: 150000003 cycles: 709872181 heartbeat IPC: 0.1512 cumulative IPC: 0.1451 (Simulation time: 06 hr 30 min 31 sec)
Heartbeat CPU 3 instructions: 950000004 cycles: 712154550 heartbeat IPC: 1.21 cumulative IPC: 1.26 (Simulation time: 06 hr 31 min 53 sec)
Heartbeat CPU 1 instructions: 510000004 cycles: 714963744 heartbeat IPC: 0.7252 cumulative IPC: 0.6534 (Simulation time: 06 hr 33 min 39 sec)
Heartbeat CPU 3 instructions: 960000003 cycles: 720407235 heartbeat IPC: 1.212 cumulative IPC: 1.26 (Simulation time: 06 hr 37 min 03 sec)
Heartbeat CPU 1 instructions: 520000001 cycles: 728954393 heartbeat IPC: 0.7148 cumulative IPC: 0.6546 (Simulation time: 06 hr 42 min 15 sec)
Heartbeat CPU 3 instructions: 970000001 cycles: 729002564 heartbeat IPC: 1.163 cumulative IPC: 1.258 (Simulation time: 06 hr 42 min 16 sec)
Heartbeat CPU 3 instructions: 980000002 cycles: 737506865 heartbeat IPC: 1.176 cumulative IPC: 1.258 (Simulation time: 06 hr 47 min 27 sec)
Heartbeat CPU 2 instructions: 210000000 cycles: 741395484 heartbeat IPC: 0.2313 cumulative IPC: 0.1954 (Simulation time: 06 hr 49 min 54 sec)
Heartbeat CPU 1 instructions: 530000003 cycles: 743035488 heartbeat IPC: 0.7102 cumulative IPC: 0.6557 (Simulation time: 06 hr 50 min 52 sec)
Heartbeat CPU 3 instructions: 990000000 cycles: 743753256 heartbeat IPC: 1.601 cumulative IPC: 1.26 (Simulation time: 06 hr 51 min 14 sec)
Heartbeat CPU 3 instructions: 1000000000 cycles: 750509655 heartbeat IPC: 1.48 cumulative IPC: 1.263 (Simulation time: 06 hr 55 min 19 sec)
Heartbeat CPU 3 instructions: 1010000002 cycles: 758098799 heartbeat IPC: 1.318 cumulative IPC: 1.263 (Simulation time: 06 hr 59 min 49 sec)
Heartbeat CPU 1 instructions: 540000001 cycles: 758610569 heartbeat IPC: 0.6421 cumulative IPC: 0.6554 (Simulation time: 07 hr 00 min 11 sec)
Heartbeat CPU 3 instructions: 1020000003 cycles: 766633626 heartbeat IPC: 1.172 cumulative IPC: 1.262 (Simulation time: 07 hr 04 min 50 sec)
Heartbeat CPU 3 instructions: 1030000001 cycles: 776837276 heartbeat IPC: 0.98 cumulative IPC: 1.258 (Simulation time: 07 hr 10 min 08 sec)
Heartbeat CPU 1 instructions: 550000000 cycles: 777236993 heartbeat IPC: 0.5369 cumulative IPC: 0.6525 (Simulation time: 07 hr 10 min 19 sec)
Heartbeat CPU 0 instructions: 160000002 cycles: 780156937 heartbeat IPC: 0.1423 cumulative IPC: 0.1449 (Simulation time: 07 hr 11 min 55 sec)
Heartbeat CPU 3 instructions: 1040000004 cycles: 783361142 heartbeat IPC: 1.533 cumulative IPC: 1.261 (Simulation time: 07 hr 13 min 47 sec)
Heartbeat CPU 3 instructions: 1050000000 cycles: 792350647 heartbeat IPC: 1.112 cumulative IPC: 1.259 (Simulation time: 07 hr 18 min 49 sec)
Simulation finished CPU 2 instructions: 150000000 cycles: 772506423 cumulative IPC: 0.1942 (Simulation time: 07 hr 19 min 30 sec)
Heartbeat CPU 1 instructions: 560000004 cycles: 793965765 heartbeat IPC: 0.5978 cumulative IPC: 0.6513 (Simulation time: 07 hr 19 min 54 sec)
Heartbeat CPU 2 instructions: 220000004 cycles: 797266442 heartbeat IPC: 0.179 cumulative IPC: 0.1942 (Simulation time: 07 hr 21 min 48 sec)
Heartbeat CPU 3 instructions: 1060000002 cycles: 797314271 heartbeat IPC: 2.015 cumulative IPC: 1.264 (Simulation time: 07 hr 21 min 50 sec)
Heartbeat CPU 3 instructions: 1070000001 cycles: 807818828 heartbeat IPC: 0.952 cumulative IPC: 1.26 (Simulation time: 07 hr 27 min 31 sec)
Heartbeat CPU 1 instructions: 570000000 cycles: 811035526 heartbeat IPC: 0.5858 cumulative IPC: 0.6499 (Simulation time: 07 hr 29 min 09 sec)
Heartbeat CPU 3 instructions: 1080000000 cycles: 812670601 heartbeat IPC: 2.061 cumulative IPC: 1.264 (Simulation time: 07 hr 29 min 56 sec)
Heartbeat CPU 3 instructions: 1090000000 cycles: 820243052 heartbeat IPC: 1.321 cumulative IPC: 1.265 (Simulation time: 07 hr 33 min 34 sec)
Heartbeat CPU 1 instructions: 580000003 cycles: 826326337 heartbeat IPC: 0.654 cumulative IPC: 0.65 (Simulation time: 07 hr 36 min 21 sec)
Heartbeat CPU 3 instructions: 1100000002 cycles: 829918924 heartbeat IPC: 1.033 cumulative IPC: 1.262 (Simulation time: 07 hr 38 min 04 sec)
Heartbeat CPU 3 instructions: 1110000000 cycles: 838416754 heartbeat IPC: 1.177 cumulative IPC: 1.261 (Simulation time: 07 hr 42 min 17 sec)
Heartbeat CPU 1 instructions: 590000003 cycles: 840291021 heartbeat IPC: 0.7161 cumulative IPC: 0.6511 (Simulation time: 07 hr 43 min 09 sec)
Heartbeat CPU 2 instructions: 230000000 cycles: 845529442 heartbeat IPC: 0.2072 cumulative IPC: 0.1949 (Simulation time: 07 hr 45 min 45 sec)
Heartbeat CPU 3 instructions: 1120000002 cycles: 846812486 heartbeat IPC: 1.191 cumulative IPC: 1.261 (Simulation time: 07 hr 46 min 25 sec)
Heartbeat CPU 0 instructions: 170000001 cycles: 847876701 heartbeat IPC: 0.1477 cumulative IPC: 0.1451 (Simulation time: 07 hr 46 min 55 sec)
Heartbeat CPU 1 instructions: 600000004 cycles: 853965411 heartbeat IPC: 0.7313 cumulative IPC: 0.6524 (Simulation time: 07 hr 49 min 50 sec)
Heartbeat CPU 3 instructions: 1130000004 cycles: 855208019 heartbeat IPC: 1.191 cumulative IPC: 1.26 (Simulation time: 07 hr 50 min 29 sec)
Heartbeat CPU 3 instructions: 1140000002 cycles: 863563918 heartbeat IPC: 1.197 cumulative IPC: 1.259 (Simulation time: 07 hr 54 min 34 sec)
Heartbeat CPU 1 instructions: 610000001 cycles: 867655796 heartbeat IPC: 0.7304 cumulative IPC: 0.6537 (Simulation time: 07 hr 56 min 36 sec)
Heartbeat CPU 3 instructions: 1150000000 cycles: 871907541 heartbeat IPC: 1.199 cumulative IPC: 1.259 (Simulation time: 07 hr 58 min 37 sec)
Heartbeat CPU 3 instructions: 1160000004 cycles: 880430869 heartbeat IPC: 1.173 cumulative IPC: 1.258 (Simulation time: 08 hr 02 min 42 sec)
Heartbeat CPU 1 instructions: 620000000 cycles: 881556618 heartbeat IPC: 0.7194 cumulative IPC: 0.6548 (Simulation time: 08 hr 03 min 16 sec)
Heartbeat CPU 2 instructions: 240000002 cycles: 883704639 heartbeat IPC: 0.262 cumulative IPC: 0.1979 (Simulation time: 08 hr 04 min 19 sec)
Heartbeat CPU 3 instructions: 1170000002 cycles: 886770222 heartbeat IPC: 1.577 cumulative IPC: 1.26 (Simulation time: 08 hr 05 min 54 sec)
Heartbeat CPU 3 instructions: 1180000003 cycles: 894803769 heartbeat IPC: 1.245 cumulative IPC: 1.26 (Simulation time: 08 hr 09 min 38 sec)
Heartbeat CPU 1 instructions: 630000003 cycles: 895903951 heartbeat IPC: 0.697 cumulative IPC: 0.6555 (Simulation time: 08 hr 10 min 14 sec)
Heartbeat CPU 3 instructions: 1190000000 cycles: 901909600 heartbeat IPC: 1.407 cumulative IPC: 1.261 (Simulation time: 08 hr 13 min 12 sec)
Heartbeat CPU 3 instructions: 1200000001 cycles: 909943463 heartbeat IPC: 1.245 cumulative IPC: 1.261 (Simulation time: 08 hr 17 min 17 sec)
Heartbeat CPU 0 instructions: 180000001 cycles: 910197659 heartbeat IPC: 0.1605 cumulative IPC: 0.1462 (Simulation time: 08 hr 17 min 24 sec)
Heartbeat CPU 1 instructions: 640000004 cycles: 912368837 heartbeat IPC: 0.6074 cumulative IPC: 0.6546 (Simulation time: 08 hr 18 min 23 sec)
Heartbeat CPU 3 instructions: 1210000000 cycles: 920550753 heartbeat IPC: 0.9427 cumulative IPC: 1.257 (Simulation time: 08 hr 21 min 59 sec)
Heartbeat CPU 3 instructions: 1220000001 cycles: 927899068 heartbeat IPC: 1.361 cumulative IPC: 1.258 (Simulation time: 08 hr 25 min 26 sec)
Heartbeat CPU 1 instructions: 650000002 cycles: 931044678 heartbeat IPC: 0.5355 cumulative IPC: 0.6521 (Simulation time: 08 hr 26 min 56 sec)
Heartbeat CPU 2 instructions: 250000000 cycles: 937333339 heartbeat IPC: 0.1865 cumulative IPC: 0.1972 (Simulation time: 08 hr 29 min 40 sec)
Heartbeat CPU 3 instructions: 1230000001 cycles: 937492067 heartbeat IPC: 1.042 cumulative IPC: 1.256 (Simulation time: 08 hr 29 min 45 sec)
Heartbeat CPU 3 instructions: 1240000002 cycles: 941040070 heartbeat IPC: 2.818 cumulative IPC: 1.262 (Simulation time: 08 hr 31 min 34 sec)
Heartbeat CPU 1 instructions: 660000002 cycles: 948034376 heartbeat IPC: 0.5886 cumulative IPC: 0.651 (Simulation time: 08 hr 34 min 37 sec)
Heartbeat CPU 3 instructions: 1250000000 cycles: 949473152 heartbeat IPC: 1.186 cumulative IPC: 1.261 (Simulation time: 08 hr 35 min 18 sec)
Heartbeat CPU 3 instructions: 1260000002 cycles: 957207513 heartbeat IPC: 1.293 cumulative IPC: 1.261 (Simulation time: 08 hr 38 min 43 sec)
Heartbeat CPU 3 instructions: 1270000002 cycles: 962887489 heartbeat IPC: 1.761 cumulative IPC: 1.264 (Simulation time: 08 hr 41 min 31 sec)
Heartbeat CPU 1 instructions: 670000004 cycles: 963677486 heartbeat IPC: 0.6393 cumulative IPC: 0.6508 (Simulation time: 08 hr 41 min 54 sec)
Heartbeat CPU 3 instructions: 1280000000 cycles: 972881518 heartbeat IPC: 1.001 cumulative IPC: 1.262 (Simulation time: 08 hr 46 min 09 sec)
Heartbeat CPU 1 instructions: 680000002 cycles: 978182856 heartbeat IPC: 0.6894 cumulative IPC: 0.6513 (Simulation time: 08 hr 48 min 46 sec)
Heartbeat CPU 3 instructions: 1290000003 cycles: 981194961 heartbeat IPC: 1.203 cumulative IPC: 1.261 (Simulation time: 08 hr 50 min 14 sec)
Heartbeat CPU 2 instructions: 260000003 cycles: 982989715 heartbeat IPC: 0.219 cumulative IPC: 0.1983 (Simulation time: 08 hr 51 min 06 sec)
Heartbeat CPU 0 instructions: 190000003 cycles: 985279828 heartbeat IPC: 0.1332 cumulative IPC: 0.1452 (Simulation time: 08 hr 52 min 16 sec)
Heartbeat CPU 3 instructions: 1300000001 cycles: 989512599 heartbeat IPC: 1.202 cumulative IPC: 1.261 (Simulation time: 08 hr 54 min 23 sec)
Heartbeat CPU 1 instructions: 690000004 cycles: 991936423 heartbeat IPC: 0.7271 cumulative IPC: 0.6524 (Simulation time: 08 hr 55 min 34 sec)
Heartbeat CPU 3 instructions: 1310000002 cycles: 997761790 heartbeat IPC: 1.212 cumulative IPC: 1.26 (Simulation time: 08 hr 58 min 29 sec)
Heartbeat CPU 1 instructions: 700000003 cycles: 1005606022 heartbeat IPC: 0.7316 cumulative IPC: 0.6535 (Simulation time: 09 hr 02 min 21 sec)
Heartbeat CPU 3 instructions: 1320000001 cycles: 1005879521 heartbeat IPC: 1.232 cumulative IPC: 1.26 (Simulation time: 09 hr 02 min 29 sec)
Heartbeat CPU 3 instructions: 1330000004 cycles: 1014080855 heartbeat IPC: 1.219 cumulative IPC: 1.26 (Simulation time: 09 hr 06 min 32 sec)
Heartbeat CPU 1 instructions: 710000002 cycles: 1019437010 heartbeat IPC: 0.723 cumulative IPC: 0.6545 (Simulation time: 09 hr 09 min 11 sec)
Heartbeat CPU 3 instructions: 1340000003 cycles: 1022656251 heartbeat IPC: 1.166 cumulative IPC: 1.259 (Simulation time: 09 hr 10 min 41 sec)
Heartbeat CPU 2 instructions: 270000004 cycles: 1023034793 heartbeat IPC: 0.2497 cumulative IPC: 0.2003 (Simulation time: 09 hr 10 min 52 sec)
Heartbeat CPU 3 instructions: 1350000002 cycles: 1030657168 heartbeat IPC: 1.25 cumulative IPC: 1.259 (Simulation time: 09 hr 14 min 37 sec)
Heartbeat CPU 1 instructions: 720000000 cycles: 1033162696 heartbeat IPC: 0.7286 cumulative IPC: 0.6555 (Simulation time: 09 hr 15 min 57 sec)
Heartbeat CPU 3 instructions: 1360000000 cycles: 1038038328 heartbeat IPC: 1.355 cumulative IPC: 1.26 (Simulation time: 09 hr 18 min 11 sec)
Heartbeat CPU 0 instructions: 200000001 cycles: 1043667264 heartbeat IPC: 0.1713 cumulative IPC: 0.1467 (Simulation time: 09 hr 21 min 00 sec)
Simulation finished CPU 0 instructions: 150000003 cycles: 1022792769 cumulative IPC: 0.1467 (Simulation time: 09 hr 21 min 00 sec)
Simulation complete CPU 0 instructions: 150000003 cycles: 1022792769 cumulative IPC: 0.1467 (Simulation time: 09 hr 21 min 00 sec)
Simulation complete CPU 1 instructions: 670694156 cycles: 1022792769 cumulative IPC: 0.6557 (Simulation time: 09 hr 21 min 00 sec)
Simulation complete CPU 2 instructions: 205686965 cycles: 1022792769 cumulative IPC: 0.2011 (Simulation time: 09 hr 21 min 00 sec)
Simulation complete CPU 3 instructions: 1290639229 cycles: 1022792769 cumulative IPC: 1.262 (Simulation time: 09 hr 21 min 00 sec)

ChampSim completed all CPUs

=== Simulation ===
CPU 0 runs /home/das/dpc3_traces/620.omnetpp_s-874B.champsimtrace.xzCPU 1 runs /home/das/dpc3_traces/607.cactuBSSN_s-2421B.champsimtrace.xzCPU 2 runs /home/das/dpc3_traces/605.mcf_s-665B.champsimtrace.xzCPU 3 runs /home/das/dpc3_traces/628.pop2_s-17B.champsimtrace.xz
Total Simulation Statistics (not including warmup)

CPU 0 cumulative IPC: 0.1467 instructions: 150000003 cycles: 1022792769
CPU 0 Branch Prediction Accuracy: 94.9% MPKI: 10.6 Average ROB Occupancy at Mispredict: 84.06
Branch type MPKI
BRANCH_DIRECT_JUMP: 0.923
BRANCH_INDIRECT: 0.128
BRANCH_CONDITIONAL: 8.42
BRANCH_DIRECT_CALL: 0.00016
BRANCH_INDIRECT_CALL: 0.734
BRANCH_RETURN: 0.399


CPU 1 cumulative IPC: 0.6557 instructions: 670694156 cycles: 1022792769
CPU 1 Branch Prediction Accuracy: 99.85% MPKI: 0.001803 Average ROB Occupancy at Mispredict: 348.7
Branch type MPKI
BRANCH_DIRECT_JUMP: 1.49e-06
BRANCH_INDIRECT: 7.45e-06
BRANCH_CONDITIONAL: 0.00179
BRANCH_DIRECT_CALL: 0
BRANCH_INDIRECT_CALL: 0
BRANCH_RETURN: 0


CPU 2 cumulative IPC: 0.2011 instructions: 205686965 cycles: 1022792769
CPU 2 Branch Prediction Accuracy: 90.43% MPKI: 23.65 Average ROB Occupancy at Mispredict: 18.77
Branch type MPKI
BRANCH_DIRECT_JUMP: 0.253
BRANCH_INDIRECT: 0
BRANCH_CONDITIONAL: 23.4
BRANCH_DIRECT_CALL: 0
BRANCH_INDIRECT_CALL: 0.000501
BRANCH_RETURN: 0


CPU 3 cumulative IPC: 1.262 instructions: 1290639229 cycles: 1022792769
CPU 3 Branch Prediction Accuracy: 97.46% MPKI: 3.943 Average ROB Occupancy at Mispredict: 98.45
Branch type MPKI
BRANCH_DIRECT_JUMP: 0.0286
BRANCH_INDIRECT: 0.000679
BRANCH_CONDITIONAL: 3.85
BRANCH_DIRECT_CALL: 0.00018
BRANCH_INDIRECT_CALL: 0
BRANCH_RETURN: 0.0634

LLC TOTAL        ACCESS:    3520243 HIT:    1308010 MISS:    2212233
LLC LOAD         ACCESS:    1685640 HIT:     282699 MISS:    1402941
LLC RFO          ACCESS:     257941 HIT:      78322 MISS:     179619
LLC PREFETCH     ACCESS:      11592 HIT:        819 MISS:      10773
LLC WRITE        ACCESS:     968978 HIT:     906029 MISS:      62949
LLC TRANSLATION  ACCESS:     596092 HIT:      40141 MISS:     555951
LLC PREFETCH REQUESTED:          0 ISSUED:          0 USEFUL:          0 USELESS:          0
LLC AVERAGE MISS LATENCY: 1869 cycles
LLC TOTAL        ACCESS:    7811154 HIT:    2616140 MISS:    5195014
LLC LOAD         ACCESS:    7021442 HIT:    1887695 MISS:    5133747
LLC RFO          ACCESS:      17938 HIT:      17938 MISS:          0
LLC PREFETCH     ACCESS:          0 HIT:          0 MISS:          0
LLC WRITE        ACCESS:     670528 HIT:     670373 MISS:        155
LLC TRANSLATION  ACCESS:     101246 HIT:      40134 MISS:      61112
LLC PREFETCH REQUESTED:          0 ISSUED:          0 USEFUL:          0 USELESS:          0
LLC AVERAGE MISS LATENCY: 1869 cycles
LLC TOTAL        ACCESS:    5613554 HIT:    3083660 MISS:    2529894
LLC LOAD         ACCESS:    2723534 HIT:    1927399 MISS:     796135
LLC RFO          ACCESS:     382486 HIT:     375893 MISS:       6593
LLC PREFETCH     ACCESS:    1895649 HIT:     195839 MISS:    1699810
LLC WRITE        ACCESS:     593044 HIT:     574410 MISS:      18634
LLC TRANSLATION  ACCESS:      18841 HIT:      10119 MISS:       8722
LLC PREFETCH REQUESTED:          0 ISSUED:          0 USEFUL:          0 USELESS:          0
LLC AVERAGE MISS LATENCY: 1869 cycles
LLC TOTAL        ACCESS:   13477035 HIT:    8873525 MISS:    4603510
LLC LOAD         ACCESS:    3500377 HIT:    2461379 MISS:    1038998
LLC RFO          ACCESS:    2713499 HIT:    1091948 MISS:    1621551
LLC PREFETCH     ACCESS:    3297178 HIT:    1407597 MISS:    1889581
LLC WRITE        ACCESS:    3928238 HIT:    3897787 MISS:      30451
LLC TRANSLATION  ACCESS:      37743 HIT:      14814 MISS:      22929
LLC PREFETCH REQUESTED:          0 ISSUED:          0 USEFUL:          0 USELESS:          0
LLC AVERAGE MISS LATENCY: 1869 cycles
cpu0_DTLB TOTAL        ACCESS:   38348349 HIT:   35050382 MISS:    3297967
cpu0_DTLB LOAD         ACCESS:   38348349 HIT:   35050382 MISS:    3297967
cpu0_DTLB RFO          ACCESS:          0 HIT:          0 MISS:          0
cpu0_DTLB PREFETCH     ACCESS:          0 HIT:          0 MISS:          0
cpu0_DTLB WRITE        ACCESS:          0 HIT:          0 MISS:          0
cpu0_DTLB TRANSLATION  ACCESS:          0 HIT:          0 MISS:          0
cpu0_DTLB PREFETCH REQUESTED:          0 ISSUED:          0 USEFUL:          0 USELESS:          0
cpu0_DTLB AVERAGE MISS LATENCY: 223.4 cycles
cpu0_DTLB TOTAL        ACCESS:          0 HIT:          0 MISS:          0
cpu0_DTLB LOAD         ACCESS:          0 HIT:          0 MISS:          0
cpu0_DTLB RFO          ACCESS:          0 HIT:          0 MISS:          0
cpu0_DTLB PREFETCH     ACCESS:          0 HIT:          0 MISS:          0
cpu0_DTLB WRITE        ACCESS:          0 HIT:          0 MISS:          0
cpu0_DTLB TRANSLATION  ACCESS:          0 HIT:          0 MISS:          0
cpu0_DTLB PREFETCH REQUESTED:          0 ISSUED:          0 USEFUL:          0 USELESS:          0
cpu0_DTLB AVERAGE MISS LATENCY: 223.4 cycles
cpu0_DTLB TOTAL        ACCESS:          0 HIT:          0 MISS:          0
cpu0_DTLB LOAD         ACCESS:          0 HIT:          0 MISS:          0
cpu0_DTLB RFO          ACCESS:          0 HIT:          0 MISS:          0
cpu0_DTLB PREFETCH     ACCESS:          0 HIT:          0 MISS:          0
cpu0_DTLB WRITE        ACCESS:          0 HIT:          0 MISS:          0
cpu0_DTLB TRANSLATION  ACCESS:          0 HIT:          0 MISS:          0
cpu0_DTLB PREFETCH REQUESTED:          0 ISSUED:          0 USEFUL:          0 USELESS:          0
cpu0_DTLB AVERAGE MISS LATENCY: 223.4 cycles
cpu0_DTLB TOTAL        ACCESS:          0 HIT:          0 MISS:          0
cpu0_DTLB LOAD         ACCESS:          0 HIT:          0 MISS:          0
cpu0_DTLB RFO          ACCESS:          0 HIT:          0 MISS:          0
cpu0_DTLB PREFETCH     ACCESS:          0 HIT:          0 MISS:          0
cpu0_DTLB WRITE        ACCESS:          0 HIT:          0 MISS:          0
cpu0_DTLB TRANSLATION  ACCESS:          0 HIT:          0 MISS:          0
cpu0_DTLB PREFETCH REQUESTED:          0 ISSUED:          0 USEFUL:          0 USELESS:          0
cpu0_DTLB AVERAGE MISS LATENCY: 223.4 cycles
cpu0_ITLB TOTAL        ACCESS:   10796629 HIT:   10524446 MISS:     272183
cpu0_ITLB LOAD         ACCESS:   10796629 HIT:   10524446 MISS:     272183
cpu0_ITLB RFO          ACCESS:          0 HIT:          0 MISS:          0
cpu0_ITLB PREFETCH     ACCESS:          0 HIT:          0 MISS:          0
cpu0_ITLB WRITE        ACCESS:          0 HIT:          0 MISS:          0
cpu0_ITLB TRANSLATION  ACCESS:          0 HIT:          0 MISS:          0
cpu0_ITLB PREFETCH REQUESTED:          0 ISSUED:          0 USEFUL:          0 USELESS:          0
cpu0_ITLB AVERAGE MISS LATENCY: 15.97 cycles
cpu0_ITLB TOTAL        ACCESS:          0 HIT:          0 MISS:          0
cpu0_ITLB LOAD         ACCESS:          0 HIT:          0 MISS:          0
cpu0_ITLB RFO          ACCESS:          0 HIT:          0 MISS:          0
cpu0_ITLB PREFETCH     ACCESS:          0 HIT:          0 MISS:          0
cpu0_ITLB WRITE        ACCESS:          0 HIT:          0 MISS:          0
cpu0_ITLB TRANSLATION  ACCESS:          0 HIT:          0 MISS:          0
cpu0_ITLB PREFETCH REQUESTED:          0 ISSUED:          0 USEFUL:          0 USELESS:          0
cpu0_ITLB AVERAGE MISS LATENCY: 15.97 cycles
cpu0_ITLB TOTAL        ACCESS:          0 HIT:          0 MISS:          0
cpu0_ITLB LOAD         ACCESS:          0 HIT:          0 MISS:          0
cpu0_ITLB RFO          ACCESS:          0 HIT:          0 MISS:          0
cpu0_ITLB PREFETCH     ACCESS:          0 HIT:          0 MISS:          0
cpu0_ITLB WRITE        ACCESS:          0 HIT:          0 MISS:          0
cpu0_ITLB TRANSLATION  ACCESS:          0 HIT:          0 MISS:          0
cpu0_ITLB PREFETCH REQUESTED:          0 ISSUED:          0 USEFUL:          0 USELESS:          0
cpu0_ITLB AVERAGE MISS LATENCY: 15.97 cycles
cpu0_ITLB TOTAL        ACCESS:          0 HIT:          0 MISS:          0
cpu0_ITLB LOAD         ACCESS:          0 HIT:          0 MISS:          0
cpu0_ITLB RFO          ACCESS:          0 HIT:          0 MISS:          0
cpu0_ITLB PREFETCH     ACCESS:          0 HIT:          0 MISS:          0
cpu0_ITLB WRITE        ACCESS:          0 HIT:          0 MISS:          0
cpu0_ITLB TRANSLATION  ACCESS:          0 HIT:          0 MISS:          0
cpu0_ITLB PREFETCH REQUESTED:          0 ISSUED:          0 USEFUL:          0 USELESS:          0
cpu0_ITLB AVERAGE MISS LATENCY: 15.97 cycles
cpu0_L1D TOTAL        ACCESS:   49901563 HIT:   44928335 MISS:    4973228
cpu0_L1D LOAD         ACCESS:   23010926 HIT:   19923334 MISS:    3087592
cpu0_L1D RFO          ACCESS:          0 HIT:          0 MISS:          0
cpu0_L1D PREFETCH     ACCESS:      20273 HIT:       2124 MISS:      18149
cpu0_L1D WRITE        ACCESS:   25979212 HIT:   24857731 MISS:    1121481
cpu0_L1D TRANSLATION  ACCESS:     891152 HIT:     145146 MISS:     746006
cpu0_L1D PREFETCH REQUESTED:      20273 ISSUED:      20273 USEFUL:        953 USELESS:        759
cpu0_L1D AVERAGE MISS LATENCY: 557.6 cycles
cpu0_L1D TOTAL        ACCESS:          0 HIT:          0 MISS:          0
cpu0_L1D LOAD         ACCESS:          0 HIT:          0 MISS:          0
cpu0_L1D RFO          ACCESS:          0 HIT:          0 MISS:          0
cpu0_L1D PREFETCH     ACCESS:          0 HIT:          0 MISS:          0
cpu0_L1D WRITE        ACCESS:          0 HIT:          0 MISS:          0
cpu0_L1D TRANSLATION  ACCESS:          0 HIT:          0 MISS:          0
cpu0_L1D PREFETCH REQUESTED:      20273 ISSUED:      20273 USEFUL:        953 USELESS:        759
cpu0_L1D AVERAGE MISS LATENCY: 557.6 cycles
cpu0_L1D TOTAL        ACCESS:          0 HIT:          0 MISS:          0
cpu0_L1D LOAD         ACCESS:          0 HIT:          0 MISS:          0
cpu0_L1D RFO          ACCESS:          0 HIT:          0 MISS:          0
cpu0_L1D PREFETCH     ACCESS:          0 HIT:          0 MISS:          0
cpu0_L1D WRITE        ACCESS:          0 HIT:          0 MISS:          0
cpu0_L1D TRANSLATION  ACCESS:          0 HIT:          0 MISS:          0
cpu0_L1D PREFETCH REQUESTED:      20273 ISSUED:      20273 USEFUL:        953 USELESS:        759
cpu0_L1D AVERAGE MISS LATENCY: 557.6 cycles
cpu0_L1D TOTAL        ACCESS:          0 HIT:          0 MISS:          0
cpu0_L1D LOAD         ACCESS:          0 HIT:          0 MISS:          0
cpu0_L1D RFO          ACCESS:          0 HIT:          0 MISS:          0
cpu0_L1D PREFETCH     ACCESS:          0 HIT:          0 MISS:          0
cpu0_L1D WRITE        ACCESS:          0 HIT:          0 MISS:          0
cpu0_L1D TRANSLATION  ACCESS:          0 HIT:          0 MISS:          0
cpu0_L1D PREFETCH REQUESTED:      20273 ISSUED:      20273 USEFUL:        953 USELESS:        759
cpu0_L1D AVERAGE MISS LATENCY: 557.6 cycles
cpu0_L1I TOTAL        ACCESS:   12878783 HIT:   12804750 MISS:      74033
cpu0_L1I LOAD         ACCESS:   12878783 HIT:   12804750 MISS:      74033
cpu0_L1I RFO          ACCESS:          0 HIT:          0 MISS:          0
cpu0_L1I PREFETCH     ACCESS:          0 HIT:          0 MISS:          0
cpu0_L1I WRITE        ACCESS:          0 HIT:          0 MISS:          0
cpu0_L1I TRANSLATION  ACCESS:          0 HIT:          0 MISS:          0
cpu0_L1I PREFETCH REQUESTED:          0 ISSUED:          0 USEFUL:          0 USELESS:          0
cpu0_L1I AVERAGE MISS LATENCY: 111.2 cycles
cpu0_L1I TOTAL        ACCESS:          0 HIT:          0 MISS:          0
cpu0_L1I LOAD         ACCESS:          0 HIT:          0 MISS:          0
cpu0_L1I RFO          ACCESS:          0 HIT:          0 MISS:          0
cpu0_L1I PREFETCH     ACCESS:          0 HIT:          0 MISS:          0
cpu0_L1I WRITE        ACCESS:          0 HIT:          0 MISS:          0
cpu0_L1I TRANSLATION  ACCESS:          0 HIT:          0 MISS:          0
cpu0_L1I PREFETCH REQUESTED:          0 ISSUED:          0 USEFUL:          0 USELESS:          0
cpu0_L1I AVERAGE MISS LATENCY: 111.2 cycles
cpu0_L1I TOTAL        ACCESS:          0 HIT:          0 MISS:          0
cpu0_L1I LOAD         ACCESS:          0 HIT:          0 MISS:          0
cpu0_L1I RFO          ACCESS:          0 HIT:          0 MISS:          0
cpu0_L1I PREFETCH     ACCESS:          0 HIT:          0 MISS:          0
cpu0_L1I WRITE        ACCESS:          0 HIT:          0 MISS:          0
cpu0_L1I TRANSLATION  ACCESS:          0 HIT:          0 MISS:          0
cpu0_L1I PREFETCH REQUESTED:          0 ISSUED:          0 USEFUL:          0 USELESS:          0
cpu0_L1I AVERAGE MISS LATENCY: 111.2 cycles
cpu0_L1I TOTAL        ACCESS:          0 HIT:          0 MISS:          0
cpu0_L1I LOAD         ACCESS:          0 HIT:          0 MISS:          0
cpu0_L1I RFO          ACCESS:          0 HIT:          0 MISS:          0
cpu0_L1I PREFETCH     ACCESS:          0 HIT:          0 MISS:          0
cpu0_L1I WRITE        ACCESS:          0 HIT:          0 MISS:          0
cpu0_L1I TRANSLATION  ACCESS:          0 HIT:          0 MISS:          0
cpu0_L1I PREFETCH REQUESTED:          0 ISSUED:          0 USEFUL:          0 USELESS:          0
cpu0_L1I AVERAGE MISS LATENCY: 111.2 cycles
cpu0_L2C TOTAL        ACCESS:    5065390 HIT:    2511036 MISS:    2554354
cpu0_L2C LOAD         ACCESS:    2538642 HIT:     852446 MISS:    1686196
cpu0_L2C RFO          ACCESS:     365415 HIT:     107474 MISS:     257941
cpu0_L2C PREFETCH     ACCESS:      17467 HIT:       5559 MISS:      11908
cpu0_L2C WRITE        ACCESS:    1398636 HIT:    1396419 MISS:       2217
cpu0_L2C TRANSLATION  ACCESS:     745230 HIT:     149138 MISS:     596092
cpu0_L2C PREFETCH REQUESTED:          0 ISSUED:          0 USEFUL:          0 USELESS:          0
cpu0_L2C AVERAGE MISS LATENCY: 1103 cycles
cpu0_L2C TOTAL        ACCESS:          0 HIT:          0 MISS:          0
cpu0_L2C LOAD         ACCESS:          0 HIT:          0 MISS:          0
cpu0_L2C RFO          ACCESS:          0 HIT:          0 MISS:          0
cpu0_L2C PREFETCH     ACCESS:          0 HIT:          0 MISS:          0
cpu0_L2C WRITE        ACCESS:          0 HIT:          0 MISS:          0
cpu0_L2C TRANSLATION  ACCESS:          0 HIT:          0 MISS:          0
cpu0_L2C PREFETCH REQUESTED:          0 ISSUED:          0 USEFUL:          0 USELESS:          0
cpu0_L2C AVERAGE MISS LATENCY: 1103 cycles
cpu0_L2C TOTAL        ACCESS:          0 HIT:          0 MISS:          0
cpu0_L2C LOAD         ACCESS:          0 HIT:          0 MISS:          0
cpu0_L2C RFO          ACCESS:          0 HIT:          0 MISS:          0
cpu0_L2C PREFETCH     ACCESS:          0 HIT:          0 MISS:          0
cpu0_L2C WRITE        ACCESS:          0 HIT:          0 MISS:          0
cpu0_L2C TRANSLATION  ACCESS:          0 HIT:          0 MISS:          0
cpu0_L2C PREFETCH REQUESTED:          0 ISSUED:          0 USEFUL:          0 USELESS:          0
cpu0_L2C AVERAGE MISS LATENCY: 1103 cycles
cpu0_L2C TOTAL        ACCESS:          0 HIT:          0 MISS:          0
cpu0_L2C LOAD         ACCESS:          0 HIT:          0 MISS:          0
cpu0_L2C RFO          ACCESS:          0 HIT:          0 MISS:          0
cpu0_L2C PREFETCH     ACCESS:          0 HIT:          0 MISS:          0
cpu0_L2C WRITE        ACCESS:          0 HIT:          0 MISS:          0
cpu0_L2C TRANSLATION  ACCESS:          0 HIT:          0 MISS:          0
cpu0_L2C PREFETCH REQUESTED:          0 ISSUED:          0 USEFUL:          0 USELESS:          0
cpu0_L2C AVERAGE MISS LATENCY: 1103 cycles
cpu0_STLB TOTAL        ACCESS:    3014620 HIT:    2372202 MISS:     642418
cpu0_STLB LOAD         ACCESS:    3014620 HIT:    2372202 MISS:     642418
cpu0_STLB RFO          ACCESS:          0 HIT:          0 MISS:          0
cpu0_STLB PREFETCH     ACCESS:          0 HIT:          0 MISS:          0
cpu0_STLB WRITE        ACCESS:          0 HIT:          0 MISS:          0
cpu0_STLB TRANSLATION  ACCESS:          0 HIT:          0 MISS:          0
cpu0_STLB PREFETCH REQUESTED:          0 ISSUED:          0 USEFUL:          0 USELESS:          0
cpu0_STLB AVERAGE MISS LATENCY: 1142 cycles
cpu0_STLB TOTAL        ACCESS:          0 HIT:          0 MISS:          0
cpu0_STLB LOAD         ACCESS:          0 HIT:          0 MISS:          0
cpu0_STLB RFO          ACCESS:          0 HIT:          0 MISS:          0
cpu0_STLB PREFETCH     ACCESS:          0 HIT:          0 MISS:          0
cpu0_STLB WRITE        ACCESS:          0 HIT:          0 MISS:          0
cpu0_STLB TRANSLATION  ACCESS:          0 HIT:          0 MISS:          0
cpu0_STLB PREFETCH REQUESTED:          0 ISSUED:          0 USEFUL:          0 USELESS:          0
cpu0_STLB AVERAGE MISS LATENCY: 1142 cycles
cpu0_STLB TOTAL        ACCESS:          0 HIT:          0 MISS:          0
cpu0_STLB LOAD         ACCESS:          0 HIT:          0 MISS:          0
cpu0_STLB RFO          ACCESS:          0 HIT:          0 MISS:          0
cpu0_STLB PREFETCH     ACCESS:          0 HIT:          0 MISS:          0
cpu0_STLB WRITE        ACCESS:          0 HIT:          0 MISS:          0
cpu0_STLB TRANSLATION  ACCESS:          0 HIT:          0 MISS:          0
cpu0_STLB PREFETCH REQUESTED:          0 ISSUED:          0 USEFUL:          0 USELESS:          0
cpu0_STLB AVERAGE MISS LATENCY: 1142 cycles
cpu0_STLB TOTAL        ACCESS:          0 HIT:          0 MISS:          0
cpu0_STLB LOAD         ACCESS:          0 HIT:          0 MISS:          0
cpu0_STLB RFO          ACCESS:          0 HIT:          0 MISS:          0
cpu0_STLB PREFETCH     ACCESS:          0 HIT:          0 MISS:          0
cpu0_STLB WRITE        ACCESS:          0 HIT:          0 MISS:          0
cpu0_STLB TRANSLATION  ACCESS:          0 HIT:          0 MISS:          0
cpu0_STLB PREFETCH REQUESTED:          0 ISSUED:          0 USEFUL:          0 USELESS:          0
cpu0_STLB AVERAGE MISS LATENCY: 1142 cycles
cpu1_DTLB TOTAL        ACCESS:          0 HIT:          0 MISS:          0
cpu1_DTLB LOAD         ACCESS:          0 HIT:          0 MISS:          0
cpu1_DTLB RFO          ACCESS:          0 HIT:          0 MISS:          0
cpu1_DTLB PREFETCH     ACCESS:          0 HIT:          0 MISS:          0
cpu1_DTLB WRITE        ACCESS:          0 HIT:          0 MISS:          0
cpu1_DTLB TRANSLATION  ACCESS:          0 HIT:          0 MISS:          0
cpu1_DTLB PREFETCH REQUESTED:          0 ISSUED:          0 USEFUL:          0 USELESS:          0
cpu1_DTLB AVERAGE MISS LATENCY: 8.176 cycles
cpu1_DTLB TOTAL        ACCESS:  142116889 HIT:   83723737 MISS:   58393152
cpu1_DTLB LOAD         ACCESS:  142116889 HIT:   83723737 MISS:   58393152
cpu1_DTLB RFO          ACCESS:          0 HIT:          0 MISS:          0
cpu1_DTLB PREFETCH     ACCESS:          0 HIT:          0 MISS:          0
cpu1_DTLB WRITE        ACCESS:          0 HIT:          0 MISS:          0
cpu1_DTLB TRANSLATION  ACCESS:          0 HIT:          0 MISS:          0
cpu1_DTLB PREFETCH REQUESTED:          0 ISSUED:          0 USEFUL:          0 USELESS:          0
cpu1_DTLB AVERAGE MISS LATENCY: 8.176 cycles
cpu1_DTLB TOTAL        ACCESS:          0 HIT:          0 MISS:          0
cpu1_DTLB LOAD         ACCESS:          0 HIT:          0 MISS:          0
cpu1_DTLB RFO          ACCESS:          0 HIT:          0 MISS:          0
cpu1_DTLB PREFETCH     ACCESS:          0 HIT:          0 MISS:          0
cpu1_DTLB WRITE        ACCESS:          0 HIT:          0 MISS:          0
cpu1_DTLB TRANSLATION  ACCESS:          0 HIT:          0 MISS:          0
cpu1_DTLB PREFETCH REQUESTED:          0 ISSUED:          0 USEFUL:          0 USELESS:          0
cpu1_DTLB AVERAGE MISS LATENCY: 8.176 cycles
cpu1_DTLB TOTAL        ACCESS:          0 HIT:          0 MISS:          0
cpu1_DTLB LOAD         ACCESS:          0 HIT:          0 MISS:          0
cpu1_DTLB RFO          ACCESS:          0 HIT:          0 MISS:          0
cpu1_DTLB PREFETCH     ACCESS:          0 HIT:          0 MISS:          0
cpu1_DTLB WRITE        ACCESS:          0 HIT:          0 MISS:          0
cpu1_DTLB TRANSLATION  ACCESS:          0 HIT:          0 MISS:          0
cpu1_DTLB PREFETCH REQUESTED:          0 ISSUED:          0 USEFUL:          0 USELESS:          0
cpu1_DTLB AVERAGE MISS LATENCY: 8.176 cycles
cpu1_ITLB TOTAL        ACCESS:          0 HIT:          0 MISS:          0
cpu1_ITLB LOAD         ACCESS:          0 HIT:          0 MISS:          0
cpu1_ITLB RFO          ACCESS:          0 HIT:          0 MISS:          0
cpu1_ITLB PREFETCH     ACCESS:          0 HIT:          0 MISS:          0
cpu1_ITLB WRITE        ACCESS:          0 HIT:          0 MISS:          0
cpu1_ITLB TRANSLATION  ACCESS:          0 HIT:          0 MISS:          0
cpu1_ITLB PREFETCH REQUESTED:          0 ISSUED:          0 USEFUL:          0 USELESS:          0
cpu1_ITLB AVERAGE MISS LATENCY: -nan cycles
cpu1_ITLB TOTAL        ACCESS:   87286846 HIT:   87286846 MISS:          0
cpu1_ITLB LOAD         ACCESS:   87286846 HIT:   87286846 MISS:          0
cpu1_ITLB RFO          ACCESS:          0 HIT:          0 MISS:          0
cpu1_ITLB PREFETCH     ACCESS:          0 HIT:          0 MISS:          0
cpu1_ITLB WRITE        ACCESS:          0 HIT:          0 MISS:          0
cpu1_ITLB TRANSLATION  ACCESS:          0 HIT:          0 MISS:          0
cpu1_ITLB PREFETCH REQUESTED:          0 ISSUED:          0 USEFUL:          0 USELESS:          0
cpu1_ITLB AVERAGE MISS LATENCY: -nan cycles
cpu1_ITLB TOTAL        ACCESS:          0 HIT:          0 MISS:          0
cpu1_ITLB LOAD         ACCESS:          0 HIT:          0 MISS:          0
cpu1_ITLB RFO          ACCESS:          0 HIT:          0 MISS:          0
cpu1_ITLB PREFETCH     ACCESS:          0 HIT:          0 MISS:          0
cpu1_ITLB WRITE        ACCESS:          0 HIT:          0 MISS:          0
cpu1_ITLB TRANSLATION  ACCESS:          0 HIT:          0 MISS:          0
cpu1_ITLB PREFETCH REQUESTED:          0 ISSUED:          0 USEFUL:          0 USELESS:          0
cpu1_ITLB AVERAGE MISS LATENCY: -nan cycles
cpu1_ITLB TOTAL        ACCESS:          0 HIT:          0 MISS:          0
cpu1_ITLB LOAD         ACCESS:          0 HIT:          0 MISS:          0
cpu1_ITLB RFO          ACCESS:          0 HIT:          0 MISS:          0
cpu1_ITLB PREFETCH     ACCESS:          0 HIT:          0 MISS:          0
cpu1_ITLB WRITE        ACCESS:          0 HIT:          0 MISS:          0
cpu1_ITLB TRANSLATION  ACCESS:          0 HIT:          0 MISS:          0
cpu1_ITLB PREFETCH REQUESTED:          0 ISSUED:          0 USEFUL:          0 USELESS:          0
cpu1_ITLB AVERAGE MISS LATENCY: -nan cycles
cpu1_L1D TOTAL        ACCESS:          0 HIT:          0 MISS:          0
cpu1_L1D LOAD         ACCESS:          0 HIT:          0 MISS:          0
cpu1_L1D RFO          ACCESS:          0 HIT:          0 MISS:          0
cpu1_L1D PREFETCH     ACCESS:          0 HIT:          0 MISS:          0
cpu1_L1D WRITE        ACCESS:          0 HIT:          0 MISS:          0
cpu1_L1D TRANSLATION  ACCESS:          0 HIT:          0 MISS:          0
cpu1_L1D PREFETCH REQUESTED:          0 ISSUED:          0 USEFUL:          0 USELESS:          0
cpu1_L1D AVERAGE MISS LATENCY: 164.1 cycles
cpu1_L1D TOTAL        ACCESS:  175152042 HIT:   97156353 MISS:   77995689
cpu1_L1D LOAD         ACCESS:   98397106 HIT:   24537254 MISS:   73859852
cpu1_L1D RFO          ACCESS:          0 HIT:          0 MISS:          0
cpu1_L1D PREFETCH     ACCESS:          0 HIT:          0 MISS:          0
cpu1_L1D WRITE        ACCESS:   76627874 HIT:   72617969 MISS:    4009905
cpu1_L1D TRANSLATION  ACCESS:     127062 HIT:       1130 MISS:     125932
cpu1_L1D PREFETCH REQUESTED:          0 ISSUED:          0 USEFUL:          0 USELESS:          0
cpu1_L1D AVERAGE MISS LATENCY: 164.1 cycles
cpu1_L1D TOTAL        ACCESS:          0 HIT:          0 MISS:          0
cpu1_L1D LOAD         ACCESS:          0 HIT:          0 MISS:          0
cpu1_L1D RFO          ACCESS:          0 HIT:          0 MISS:          0
cpu1_L1D PREFETCH     ACCESS:          0 HIT:          0 MISS:          0
cpu1_L1D WRITE        ACCESS:          0 HIT:          0 MISS:          0
cpu1_L1D TRANSLATION  ACCESS:          0 HIT:          0 MISS:          0
cpu1_L1D PREFETCH REQUESTED:          0 ISSUED:          0 USEFUL:          0 USELESS:          0
cpu1_L1D AVERAGE MISS LATENCY: 164.1 cycles
cpu1_L1D TOTAL        ACCESS:          0 HIT:          0 MISS:          0
cpu1_L1D LOAD         ACCESS:          0 HIT:          0 MISS:          0
cpu1_L1D RFO          ACCESS:          0 HIT:          0 MISS:          0
cpu1_L1D PREFETCH     ACCESS:          0 HIT:          0 MISS:          0
cpu1_L1D WRITE        ACCESS:          0 HIT:          0 MISS:          0
cpu1_L1D TRANSLATION  ACCESS:          0 HIT:          0 MISS:          0
cpu1_L1D PREFETCH REQUESTED:          0 ISSUED:          0 USEFUL:          0 USELESS:          0
cpu1_L1D AVERAGE MISS LATENCY: 164.1 cycles
cpu1_L1I TOTAL        ACCESS:          0 HIT:          0 MISS:          0
cpu1_L1I LOAD         ACCESS:          0 HIT:          0 MISS:          0
cpu1_L1I RFO          ACCESS:          0 HIT:          0 MISS:          0
cpu1_L1I PREFETCH     ACCESS:          0 HIT:          0 MISS:          0
cpu1_L1I WRITE        ACCESS:          0 HIT:          0 MISS:          0
cpu1_L1I TRANSLATION  ACCESS:          0 HIT:          0 MISS:          0
cpu1_L1I PREFETCH REQUESTED:          0 ISSUED:          0 USEFUL:          0 USELESS:          0
cpu1_L1I AVERAGE MISS LATENCY: -nan cycles
cpu1_L1I TOTAL        ACCESS:  114592887 HIT:  114592887 MISS:          0
cpu1_L1I LOAD         ACCESS:  114592887 HIT:  114592887 MISS:          0
cpu1_L1I RFO          ACCESS:          0 HIT:          0 MISS:          0
cpu1_L1I PREFETCH     ACCESS:          0 HIT:          0 MISS:          0
cpu1_L1I WRITE        ACCESS:          0 HIT:          0 MISS:          0
cpu1_L1I TRANSLATION  ACCESS:          0 HIT:          0 MISS:          0
cpu1_L1I PREFETCH REQUESTED:          0 ISSUED:          0 USEFUL:          0 USELESS:          0
cpu1_L1I AVERAGE MISS LATENCY: -nan cycles
cpu1_L1I TOTAL        ACCESS:          0 HIT:          0 MISS:          0
cpu1_L1I LOAD         ACCESS:          0 HIT:          0 MISS:          0
cpu1_L1I RFO          ACCESS:          0 HIT:          0 MISS:          0
cpu1_L1I PREFETCH     ACCESS:          0 HIT:          0 MISS:          0
cpu1_L1I WRITE        ACCESS:          0 HIT:          0 MISS:          0
cpu1_L1I TRANSLATION  ACCESS:          0 HIT:          0 MISS:          0
cpu1_L1I PREFETCH REQUESTED:          0 ISSUED:          0 USEFUL:          0 USELESS:          0
cpu1_L1I AVERAGE MISS LATENCY: -nan cycles
cpu1_L1I TOTAL        ACCESS:          0 HIT:          0 MISS:          0
cpu1_L1I LOAD         ACCESS:          0 HIT:          0 MISS:          0
cpu1_L1I RFO          ACCESS:          0 HIT:          0 MISS:          0
cpu1_L1I PREFETCH     ACCESS:          0 HIT:          0 MISS:          0
cpu1_L1I WRITE        ACCESS:          0 HIT:          0 MISS:          0
cpu1_L1I TRANSLATION  ACCESS:          0 HIT:          0 MISS:          0
cpu1_L1I PREFETCH REQUESTED:          0 ISSUED:          0 USEFUL:          0 USELESS:          0
cpu1_L1I AVERAGE MISS LATENCY: -nan cycles
cpu1_L2C TOTAL        ACCESS:          0 HIT:          0 MISS:          0
cpu1_L2C LOAD         ACCESS:          0 HIT:          0 MISS:          0
cpu1_L2C RFO          ACCESS:          0 HIT:          0 MISS:          0
cpu1_L2C PREFETCH     ACCESS:          0 HIT:          0 MISS:          0
cpu1_L2C WRITE        ACCESS:          0 HIT:          0 MISS:          0
cpu1_L2C TRANSLATION  ACCESS:          0 HIT:          0 MISS:          0
cpu1_L2C PREFETCH REQUESTED:          0 ISSUED:          0 USEFUL:          0 USELESS:          0
cpu1_L2C AVERAGE MISS LATENCY: 1683 cycles
cpu1_L2C TOTAL        ACCESS:   81969688 HIT:   74828685 MISS:    7141003
cpu1_L2C LOAD         ACCESS:   73073777 HIT:   66052129 MISS:    7021648
cpu1_L2C RFO          ACCESS:    2948317 HIT:    2930208 MISS:      18109
cpu1_L2C PREFETCH     ACCESS:          0 HIT:          0 MISS:          0
cpu1_L2C WRITE        ACCESS:    5821749 HIT:    5821749 MISS:          0
cpu1_L2C TRANSLATION  ACCESS:     125845 HIT:      24599 MISS:     101246
cpu1_L2C PREFETCH REQUESTED:          0 ISSUED:          0 USEFUL:          0 USELESS:          0
cpu1_L2C AVERAGE MISS LATENCY: 1683 cycles
cpu1_L2C TOTAL        ACCESS:          0 HIT:          0 MISS:          0
cpu1_L2C LOAD         ACCESS:          0 HIT:          0 MISS:          0
cpu1_L2C RFO          ACCESS:          0 HIT:          0 MISS:          0
cpu1_L2C PREFETCH     ACCESS:          0 HIT:          0 MISS:          0
cpu1_L2C WRITE        ACCESS:          0 HIT:          0 MISS:          0
cpu1_L2C TRANSLATION  ACCESS:          0 HIT:          0 MISS:          0
cpu1_L2C PREFETCH REQUESTED:          0 ISSUED:          0 USEFUL:          0 USELESS:          0
cpu1_L2C AVERAGE MISS LATENCY: 1683 cycles
cpu1_L2C TOTAL        ACCESS:          0 HIT:          0 MISS:          0
cpu1_L2C LOAD         ACCESS:          0 HIT:          0 MISS:          0
cpu1_L2C RFO          ACCESS:          0 HIT:          0 MISS:          0
cpu1_L2C PREFETCH     ACCESS:          0 HIT:          0 MISS:          0
cpu1_L2C WRITE        ACCESS:          0 HIT:          0 MISS:          0
cpu1_L2C TRANSLATION  ACCESS:          0 HIT:          0 MISS:          0
cpu1_L2C PREFETCH REQUESTED:          0 ISSUED:          0 USEFUL:          0 USELESS:          0
cpu1_L2C AVERAGE MISS LATENCY: 1683 cycles
cpu1_STLB TOTAL        ACCESS:          0 HIT:          0 MISS:          0
cpu1_STLB LOAD         ACCESS:          0 HIT:          0 MISS:          0
cpu1_STLB RFO          ACCESS:          0 HIT:          0 MISS:          0
cpu1_STLB PREFETCH     ACCESS:          0 HIT:          0 MISS:          0
cpu1_STLB WRITE        ACCESS:          0 HIT:          0 MISS:          0
cpu1_STLB TRANSLATION  ACCESS:          0 HIT:          0 MISS:          0
cpu1_STLB PREFETCH REQUESTED:          0 ISSUED:          0 USEFUL:          0 USELESS:          0
cpu1_STLB AVERAGE MISS LATENCY: 1719 cycles
cpu1_STLB TOTAL        ACCESS:   50607315 HIT:   50525615 MISS:      81700
cpu1_STLB LOAD         ACCESS:   50607315 HIT:   50525615 MISS:      81700
cpu1_STLB RFO          ACCESS:          0 HIT:          0 MISS:          0
cpu1_STLB PREFETCH     ACCESS:          0 HIT:          0 MISS:          0
cpu1_STLB WRITE        ACCESS:          0 HIT:          0 MISS:          0
cpu1_STLB TRANSLATION  ACCESS:          0 HIT:          0 MISS:          0
cpu1_STLB PREFETCH REQUESTED:          0 ISSUED:          0 USEFUL:          0 USELESS:          0
cpu1_STLB AVERAGE MISS LATENCY: 1719 cycles
cpu1_STLB TOTAL        ACCESS:          0 HIT:          0 MISS:          0
cpu1_STLB LOAD         ACCESS:          0 HIT:          0 MISS:          0
cpu1_STLB RFO          ACCESS:          0 HIT:          0 MISS:          0
cpu1_STLB PREFETCH     ACCESS:          0 HIT:          0 MISS:          0
cpu1_STLB WRITE        ACCESS:          0 HIT:          0 MISS:          0
cpu1_STLB TRANSLATION  ACCESS:          0 HIT:          0 MISS:          0
cpu1_STLB PREFETCH REQUESTED:          0 ISSUED:          0 USEFUL:          0 USELESS:          0
cpu1_STLB AVERAGE MISS LATENCY: 1719 cycles
cpu1_STLB TOTAL        ACCESS:          0 HIT:          0 MISS:          0
cpu1_STLB LOAD         ACCESS:          0 HIT:          0 MISS:          0
cpu1_STLB RFO          ACCESS:          0 HIT:          0 MISS:          0
cpu1_STLB PREFETCH     ACCESS:          0 HIT:          0 MISS:          0
cpu1_STLB WRITE        ACCESS:          0 HIT:          0 MISS:          0
cpu1_STLB TRANSLATION  ACCESS:          0 HIT:          0 MISS:          0
cpu1_STLB PREFETCH REQUESTED:          0 ISSUED:          0 USEFUL:          0 USELESS:          0
cpu1_STLB AVERAGE MISS LATENCY: 1719 cycles
cpu2_DTLB TOTAL        ACCESS:          0 HIT:          0 MISS:          0
cpu2_DTLB LOAD         ACCESS:          0 HIT:          0 MISS:          0
cpu2_DTLB RFO          ACCESS:          0 HIT:          0 MISS:          0
cpu2_DTLB PREFETCH     ACCESS:          0 HIT:          0 MISS:          0
cpu2_DTLB WRITE        ACCESS:          0 HIT:          0 MISS:          0
cpu2_DTLB TRANSLATION  ACCESS:          0 HIT:          0 MISS:          0
cpu2_DTLB PREFETCH REQUESTED:          0 ISSUED:          0 USEFUL:          0 USELESS:          0
cpu2_DTLB AVERAGE MISS LATENCY: 11.21 cycles
cpu2_DTLB TOTAL        ACCESS:          0 HIT:          0 MISS:          0
cpu2_DTLB LOAD         ACCESS:          0 HIT:          0 MISS:          0
cpu2_DTLB RFO          ACCESS:          0 HIT:          0 MISS:          0
cpu2_DTLB PREFETCH     ACCESS:          0 HIT:          0 MISS:          0
cpu2_DTLB WRITE        ACCESS:          0 HIT:          0 MISS:          0
cpu2_DTLB TRANSLATION  ACCESS:          0 HIT:          0 MISS:          0
cpu2_DTLB PREFETCH REQUESTED:          0 ISSUED:          0 USEFUL:          0 USELESS:          0
cpu2_DTLB AVERAGE MISS LATENCY: 11.21 cycles
cpu2_DTLB TOTAL        ACCESS:   56588339 HIT:   53077245 MISS:    3511094
cpu2_DTLB LOAD         ACCESS:   56588339 HIT:   53077245 MISS:    3511094
cpu2_DTLB RFO          ACCESS:          0 HIT:          0 MISS:          0
cpu2_DTLB PREFETCH     ACCESS:          0 HIT:          0 MISS:          0
cpu2_DTLB WRITE        ACCESS:          0 HIT:          0 MISS:          0
cpu2_DTLB TRANSLATION  ACCESS:          0 HIT:          0 MISS:          0
cpu2_DTLB PREFETCH REQUESTED:          0 ISSUED:          0 USEFUL:          0 USELESS:          0
cpu2_DTLB AVERAGE MISS LATENCY: 11.21 cycles
cpu2_DTLB TOTAL        ACCESS:          0 HIT:          0 MISS:          0
cpu2_DTLB LOAD         ACCESS:          0 HIT:          0 MISS:          0
cpu2_DTLB RFO          ACCESS:          0 HIT:          0 MISS:          0
cpu2_DTLB PREFETCH     ACCESS:          0 HIT:          0 MISS:          0
cpu2_DTLB WRITE        ACCESS:          0 HIT:          0 MISS:          0
cpu2_DTLB TRANSLATION  ACCESS:          0 HIT:          0 MISS:          0
cpu2_DTLB PREFETCH REQUESTED:          0 ISSUED:          0 USEFUL:          0 USELESS:          0
cpu2_DTLB AVERAGE MISS LATENCY: 11.21 cycles
cpu2_ITLB TOTAL        ACCESS:          0 HIT:          0 MISS:          0
cpu2_ITLB LOAD         ACCESS:          0 HIT:          0 MISS:          0
cpu2_ITLB RFO          ACCESS:          0 HIT:          0 MISS:          0
cpu2_ITLB PREFETCH     ACCESS:          0 HIT:          0 MISS:          0
cpu2_ITLB WRITE        ACCESS:          0 HIT:          0 MISS:          0
cpu2_ITLB TRANSLATION  ACCESS:          0 HIT:          0 MISS:          0
cpu2_ITLB PREFETCH REQUESTED:          0 ISSUED:          0 USEFUL:          0 USELESS:          0
cpu2_ITLB AVERAGE MISS LATENCY: -nan cycles
cpu2_ITLB TOTAL        ACCESS:          0 HIT:          0 MISS:          0
cpu2_ITLB LOAD         ACCESS:          0 HIT:          0 MISS:          0
cpu2_ITLB RFO          ACCESS:          0 HIT:          0 MISS:          0
cpu2_ITLB PREFETCH     ACCESS:          0 HIT:          0 MISS:          0
cpu2_ITLB WRITE        ACCESS:          0 HIT:          0 MISS:          0
cpu2_ITLB TRANSLATION  ACCESS:          0 HIT:          0 MISS:          0
cpu2_ITLB PREFETCH REQUESTED:          0 ISSUED:          0 USEFUL:          0 USELESS:          0
cpu2_ITLB AVERAGE MISS LATENCY: -nan cycles
cpu2_ITLB TOTAL        ACCESS:      63969 HIT:      63969 MISS:          0
cpu2_ITLB LOAD         ACCESS:      63969 HIT:      63969 MISS:          0
cpu2_ITLB RFO          ACCESS:          0 HIT:          0 MISS:          0
cpu2_ITLB PREFETCH     ACCESS:          0 HIT:          0 MISS:          0
cpu2_ITLB WRITE        ACCESS:          0 HIT:          0 MISS:          0
cpu2_ITLB TRANSLATION  ACCESS:          0 HIT:          0 MISS:          0
cpu2_ITLB PREFETCH REQUESTED:          0 ISSUED:          0 USEFUL:          0 USELESS:          0
cpu2_ITLB AVERAGE MISS LATENCY: -nan cycles
cpu2_ITLB TOTAL        ACCESS:          0 HIT:          0 MISS:          0
cpu2_ITLB LOAD         ACCESS:          0 HIT:          0 MISS:          0
cpu2_ITLB RFO          ACCESS:          0 HIT:          0 MISS:          0
cpu2_ITLB PREFETCH     ACCESS:          0 HIT:          0 MISS:          0
cpu2_ITLB WRITE        ACCESS:          0 HIT:          0 MISS:          0
cpu2_ITLB TRANSLATION  ACCESS:          0 HIT:          0 MISS:          0
cpu2_ITLB PREFETCH REQUESTED:          0 ISSUED:          0 USEFUL:          0 USELESS:          0
cpu2_ITLB AVERAGE MISS LATENCY: -nan cycles
cpu2_L1D TOTAL        ACCESS:          0 HIT:          0 MISS:          0
cpu2_L1D LOAD         ACCESS:          0 HIT:          0 MISS:          0
cpu2_L1D RFO          ACCESS:          0 HIT:          0 MISS:          0
cpu2_L1D PREFETCH     ACCESS:          0 HIT:          0 MISS:          0
cpu2_L1D WRITE        ACCESS:          0 HIT:          0 MISS:          0
cpu2_L1D TRANSLATION  ACCESS:          0 HIT:          0 MISS:          0
cpu2_L1D PREFETCH REQUESTED:   45968111 ISSUED:   40879267 USEFUL:    1398076 USELESS:     220173
cpu2_L1D AVERAGE MISS LATENCY: 124 cycles
cpu2_L1D TOTAL        ACCESS:          0 HIT:          0 MISS:          0
cpu2_L1D LOAD         ACCESS:          0 HIT:          0 MISS:          0
cpu2_L1D RFO          ACCESS:          0 HIT:          0 MISS:          0
cpu2_L1D PREFETCH     ACCESS:          0 HIT:          0 MISS:          0
cpu2_L1D WRITE        ACCESS:          0 HIT:          0 MISS:          0
cpu2_L1D TRANSLATION  ACCESS:          0 HIT:          0 MISS:          0
cpu2_L1D PREFETCH REQUESTED:   45968111 ISSUED:   40879267 USEFUL:    1398076 USELESS:     220173
cpu2_L1D AVERAGE MISS LATENCY: 124 cycles
cpu2_L1D TOTAL        ACCESS:  112758614 HIT:   95998844 MISS:   16759770
cpu2_L1D LOAD         ACCESS:   47532998 HIT:   42461776 MISS:    5071222
cpu2_L1D RFO          ACCESS:          0 HIT:          0 MISS:          0
cpu2_L1D PREFETCH     ACCESS:   40879299 HIT:   31362392 MISS:    9516907
cpu2_L1D WRITE        ACCESS:   24304568 HIT:   22155613 MISS:    2148955
cpu2_L1D TRANSLATION  ACCESS:      41749 HIT:      19063 MISS:      22686
cpu2_L1D PREFETCH REQUESTED:   45968111 ISSUED:   40879267 USEFUL:    1398076 USELESS:     220173
cpu2_L1D AVERAGE MISS LATENCY: 124 cycles
cpu2_L1D TOTAL        ACCESS:          0 HIT:          0 MISS:          0
cpu2_L1D LOAD         ACCESS:          0 HIT:          0 MISS:          0
cpu2_L1D RFO          ACCESS:          0 HIT:          0 MISS:          0
cpu2_L1D PREFETCH     ACCESS:          0 HIT:          0 MISS:          0
cpu2_L1D WRITE        ACCESS:          0 HIT:          0 MISS:          0
cpu2_L1D TRANSLATION  ACCESS:          0 HIT:          0 MISS:          0
cpu2_L1D PREFETCH REQUESTED:   45968111 ISSUED:   40879267 USEFUL:    1398076 USELESS:     220173
cpu2_L1D AVERAGE MISS LATENCY: 124 cycles
cpu2_L1I TOTAL        ACCESS:          0 HIT:          0 MISS:          0
cpu2_L1I LOAD         ACCESS:          0 HIT:          0 MISS:          0
cpu2_L1I RFO          ACCESS:          0 HIT:          0 MISS:          0
cpu2_L1I PREFETCH     ACCESS:          0 HIT:          0 MISS:          0
cpu2_L1I WRITE        ACCESS:          0 HIT:          0 MISS:          0
cpu2_L1I TRANSLATION  ACCESS:          0 HIT:          0 MISS:          0
cpu2_L1I PREFETCH REQUESTED:          0 ISSUED:          0 USEFUL:          0 USELESS:          0
cpu2_L1I AVERAGE MISS LATENCY: 1324 cycles
cpu2_L1I TOTAL        ACCESS:          0 HIT:          0 MISS:          0
cpu2_L1I LOAD         ACCESS:          0 HIT:          0 MISS:          0
cpu2_L1I RFO          ACCESS:          0 HIT:          0 MISS:          0
cpu2_L1I PREFETCH     ACCESS:          0 HIT:          0 MISS:          0
cpu2_L1I WRITE        ACCESS:          0 HIT:          0 MISS:          0
cpu2_L1I TRANSLATION  ACCESS:          0 HIT:          0 MISS:          0
cpu2_L1I PREFETCH REQUESTED:          0 ISSUED:          0 USEFUL:          0 USELESS:          0
cpu2_L1I AVERAGE MISS LATENCY: 1324 cycles
cpu2_L1I TOTAL        ACCESS:      71883 HIT:      71881 MISS:          2
cpu2_L1I LOAD         ACCESS:      71883 HIT:      71881 MISS:          2
cpu2_L1I RFO          ACCESS:          0 HIT:          0 MISS:          0
cpu2_L1I PREFETCH     ACCESS:          0 HIT:          0 MISS:          0
cpu2_L1I WRITE        ACCESS:          0 HIT:          0 MISS:          0
cpu2_L1I TRANSLATION  ACCESS:          0 HIT:          0 MISS:          0
cpu2_L1I PREFETCH REQUESTED:          0 ISSUED:          0 USEFUL:          0 USELESS:          0
cpu2_L1I AVERAGE MISS LATENCY: 1324 cycles
cpu2_L1I TOTAL        ACCESS:          0 HIT:          0 MISS:          0
cpu2_L1I LOAD         ACCESS:          0 HIT:          0 MISS:          0
cpu2_L1I RFO          ACCESS:          0 HIT:          0 MISS:          0
cpu2_L1I PREFETCH     ACCESS:          0 HIT:          0 MISS:          0
cpu2_L1I WRITE        ACCESS:          0 HIT:          0 MISS:          0
cpu2_L1I TRANSLATION  ACCESS:          0 HIT:          0 MISS:          0
[...]
cpu2_L2C PREFETCH     ACCESS:          0 HIT:          0 MISS:          0
cpu2_L2C WRITE        ACCESS:          0 HIT:          0 MISS:          0
cpu2_L2C TRANSLATION  ACCESS:          0 HIT:          0 MISS:          0
cpu2_L2C PREFETCH REQUESTED:          0 ISSUED:          0 USEFUL:          0 USELESS:          0
cpu2_L2C AVERAGE MISS LATENCY: 674.7 cycles
cpu2_L2C TOTAL        ACCESS:          0 HIT:          0 MISS:          0
cpu2_L2C LOAD         ACCESS:          0 HIT:          0 MISS:          0
cpu2_L2C RFO          ACCESS:          0 HIT:          0 MISS:          0
cpu2_L2C PREFETCH     ACCESS:          0 HIT:          0 MISS:          0
cpu2_L2C WRITE        ACCESS:          0 HIT:          0 MISS:          0
cpu2_L2C TRANSLATION  ACCESS:          0 HIT:          0 MISS:          0
cpu2_L2C PREFETCH REQUESTED:          0 ISSUED:          0 USEFUL:          0 USELESS:          0
cpu2_L2C AVERAGE MISS LATENCY: 674.7 cycles
cpu2_L2C TOTAL        ACCESS:   12018161 HIT:    8132184 MISS:    3885977
cpu2_L2C LOAD         ACCESS:    3577845 HIT:    1576117 MISS:    2001728
cpu2_L2C RFO          ACCESS:     573000 HIT:     293162 MISS:     279838
cpu2_L2C PREFETCH     ACCESS:    7073640 HIT:    5483791 MISS:    1589849
cpu2_L2C WRITE        ACCESS:     776706 HIT:     776227 MISS:        479
cpu2_L2C TRANSLATION  ACCESS:      16970 HIT:       2887 MISS:      14083
cpu2_L2C PREFETCH REQUESTED:          0 ISSUED:          0 USEFUL:          0 USELESS:          0
cpu2_L2C AVERAGE MISS LATENCY: 674.7 cycles
cpu2_L2C TOTAL        ACCESS:          0 HIT:          0 MISS:          0
cpu2_L2C LOAD         ACCESS:          0 HIT:          0 MISS:          0
cpu2_L2C RFO          ACCESS:          0 HIT:          0 MISS:          0
cpu2_L2C PREFETCH     ACCESS:          0 HIT:          0 MISS:          0
cpu2_L2C WRITE        ACCESS:          0 HIT:          0 MISS:          0
cpu2_L2C TRANSLATION  ACCESS:          0 HIT:          0 MISS:          0
cpu2_L2C PREFETCH REQUESTED:          0 ISSUED:          0 USEFUL:          0 USELESS:          0
cpu2_L2C AVERAGE MISS LATENCY: 674.7 cycles
cpu2_STLB TOTAL        ACCESS:          0 HIT:          0 MISS:          0
cpu2_STLB LOAD         ACCESS:          0 HIT:          0 MISS:          0
cpu2_STLB RFO          ACCESS:          0 HIT:          0 MISS:          0
cpu2_STLB PREFETCH     ACCESS:          0 HIT:          0 MISS:          0
cpu2_STLB WRITE        ACCESS:          0 HIT:          0 MISS:          0
cpu2_STLB TRANSLATION  ACCESS:          0 HIT:          0 MISS:          0
cpu2_STLB PREFETCH REQUESTED:          0 ISSUED:          0 USEFUL:          0 USELESS:          0
cpu2_STLB AVERAGE MISS LATENCY: 417.6 cycles
cpu2_STLB TOTAL        ACCESS:          0 HIT:          0 MISS:          0
cpu2_STLB LOAD         ACCESS:          0 HIT:          0 MISS:          0
cpu2_STLB RFO          ACCESS:          0 HIT:          0 MISS:          0
cpu2_STLB PREFETCH     ACCESS:          0 HIT:          0 MISS:          0
cpu2_STLB WRITE        ACCESS:          0 HIT:          0 MISS:          0
cpu2_STLB TRANSLATION  ACCESS:          0 HIT:          0 MISS:          0
cpu2_STLB PREFETCH REQUESTED:          0 ISSUED:          0 USEFUL:          0 USELESS:          0
cpu2_STLB AVERAGE MISS LATENCY: 417.6 cycles
cpu2_STLB TOTAL        ACCESS:    2217237 HIT:    2186275 MISS:      30962
cpu2_STLB LOAD         ACCESS:    2217237 HIT:    2186275 MISS:      30962
cpu2_STLB RFO          ACCESS:          0 HIT:          0 MISS:          0
cpu2_STLB PREFETCH     ACCESS:          0 HIT:          0 MISS:          0
cpu2_STLB WRITE        ACCESS:          0 HIT:          0 MISS:          0
cpu2_STLB TRANSLATION  ACCESS:          0 HIT:          0 MISS:          0
cpu2_STLB PREFETCH REQUESTED:          0 ISSUED:          0 USEFUL:          0 USELESS:          0
cpu2_STLB AVERAGE MISS LATENCY: 417.6 cycles
cpu2_STLB TOTAL        ACCESS:          0 HIT:          0 MISS:          0
cpu2_STLB LOAD         ACCESS:          0 HIT:          0 MISS:          0
cpu2_STLB RFO          ACCESS:          0 HIT:          0 MISS:          0
cpu2_STLB PREFETCH     ACCESS:          0 HIT:          0 MISS:          0
cpu2_STLB WRITE        ACCESS:          0 HIT:          0 MISS:          0
cpu2_STLB TRANSLATION  ACCESS:          0 HIT:          0 MISS:          0
cpu2_STLB PREFETCH REQUESTED:          0 ISSUED:          0 USEFUL:          0 USELESS:          0
cpu2_STLB AVERAGE MISS LATENCY: 417.6 cycles
cpu3_DTLB TOTAL        ACCESS:          0 HIT:          0 MISS:          0
cpu3_DTLB LOAD         ACCESS:          0 HIT:          0 MISS:          0
cpu3_DTLB RFO          ACCESS:          0 HIT:          0 MISS:          0
cpu3_DTLB PREFETCH     ACCESS:          0 HIT:          0 MISS:          0
cpu3_DTLB WRITE        ACCESS:          0 HIT:          0 MISS:          0
cpu3_DTLB TRANSLATION  ACCESS:          0 HIT:          0 MISS:          0
cpu3_DTLB PREFETCH REQUESTED:          0 ISSUED:          0 USEFUL:          0 USELESS:          0
cpu3_DTLB AVERAGE MISS LATENCY: 25.07 cycles
cpu3_DTLB TOTAL        ACCESS:          0 HIT:          0 MISS:          0
cpu3_DTLB LOAD         ACCESS:          0 HIT:          0 MISS:          0
cpu3_DTLB RFO          ACCESS:          0 HIT:          0 MISS:          0
cpu3_DTLB PREFETCH     ACCESS:          0 HIT:          0 MISS:          0
cpu3_DTLB WRITE        ACCESS:          0 HIT:          0 MISS:          0
cpu3_DTLB TRANSLATION  ACCESS:          0 HIT:          0 MISS:          0
cpu3_DTLB PREFETCH REQUESTED:          0 ISSUED:          0 USEFUL:          0 USELESS:          0
cpu3_DTLB AVERAGE MISS LATENCY: 25.07 cycles
cpu3_DTLB TOTAL        ACCESS:          0 HIT:          0 MISS:          0
cpu3_DTLB LOAD         ACCESS:          0 HIT:          0 MISS:          0
cpu3_DTLB RFO          ACCESS:          0 HIT:          0 MISS:          0
cpu3_DTLB PREFETCH     ACCESS:          0 HIT:          0 MISS:          0
cpu3_DTLB WRITE        ACCESS:          0 HIT:          0 MISS:          0
cpu3_DTLB TRANSLATION  ACCESS:          0 HIT:          0 MISS:          0
cpu3_DTLB PREFETCH REQUESTED:          0 ISSUED:          0 USEFUL:          0 USELESS:          0
cpu3_DTLB AVERAGE MISS LATENCY: 25.07 cycles
cpu3_DTLB TOTAL        ACCESS:   20527373 HIT:   20350075 MISS:     177298
cpu3_DTLB LOAD         ACCESS:   20527373 HIT:   20350075 MISS:     177298
cpu3_DTLB RFO          ACCESS:          0 HIT:          0 MISS:          0
cpu3_DTLB PREFETCH     ACCESS:          0 HIT:          0 MISS:          0
cpu3_DTLB WRITE        ACCESS:          0 HIT:          0 MISS:          0
cpu3_DTLB TRANSLATION  ACCESS:          0 HIT:          0 MISS:          0
cpu3_DTLB PREFETCH REQUESTED:          0 ISSUED:          0 USEFUL:          0 USELESS:          0
cpu3_DTLB AVERAGE MISS LATENCY: 25.07 cycles
cpu3_ITLB TOTAL        ACCESS:          0 HIT:          0 MISS:          0
cpu3_ITLB LOAD         ACCESS:          0 HIT:          0 MISS:          0
cpu3_ITLB RFO          ACCESS:          0 HIT:          0 MISS:          0
cpu3_ITLB PREFETCH     ACCESS:          0 HIT:          0 MISS:          0
cpu3_ITLB WRITE        ACCESS:          0 HIT:          0 MISS:          0
cpu3_ITLB TRANSLATION  ACCESS:          0 HIT:          0 MISS:          0
cpu3_ITLB PREFETCH REQUESTED:          0 ISSUED:          0 USEFUL:          0 USELESS:          0
cpu3_ITLB AVERAGE MISS LATENCY: 15.91 cycles
cpu3_ITLB TOTAL        ACCESS:          0 HIT:          0 MISS:          0
cpu3_ITLB LOAD         ACCESS:          0 HIT:          0 MISS:          0
cpu3_ITLB RFO          ACCESS:          0 HIT:          0 MISS:          0
cpu3_ITLB PREFETCH     ACCESS:          0 HIT:          0 MISS:          0
cpu3_ITLB WRITE        ACCESS:          0 HIT:          0 MISS:          0
cpu3_ITLB TRANSLATION  ACCESS:          0 HIT:          0 MISS:          0
cpu3_ITLB PREFETCH REQUESTED:          0 ISSUED:          0 USEFUL:          0 USELESS:          0
cpu3_ITLB AVERAGE MISS LATENCY: 15.91 cycles
cpu3_ITLB TOTAL        ACCESS:          0 HIT:          0 MISS:          0
cpu3_ITLB LOAD         ACCESS:          0 HIT:          0 MISS:          0
cpu3_ITLB RFO          ACCESS:          0 HIT:          0 MISS:          0
cpu3_ITLB PREFETCH     ACCESS:          0 HIT:          0 MISS:          0
cpu3_ITLB WRITE        ACCESS:          0 HIT:          0 MISS:          0
cpu3_ITLB TRANSLATION  ACCESS:          0 HIT:          0 MISS:          0
cpu3_ITLB PREFETCH REQUESTED:          0 ISSUED:          0 USEFUL:          0 USELESS:          0
cpu3_ITLB AVERAGE MISS LATENCY: 15.91 cycles
cpu3_ITLB TOTAL        ACCESS:     300583 HIT:     294037 MISS:       6546
cpu3_ITLB LOAD         ACCESS:     300583 HIT:     294037 MISS:       6546
cpu3_ITLB RFO          ACCESS:          0 HIT:          0 MISS:          0
cpu3_ITLB PREFETCH     ACCESS:          0 HIT:          0 MISS:          0
cpu3_ITLB WRITE        ACCESS:          0 HIT:          0 MISS:          0
cpu3_ITLB TRANSLATION  ACCESS:          0 HIT:          0 MISS:          0
cpu3_ITLB PREFETCH REQUESTED:          0 ISSUED:          0 USEFUL:          0 USELESS:          0
cpu3_ITLB AVERAGE MISS LATENCY: 15.91 cycles
cpu3_L1D TOTAL        ACCESS:          0 HIT:          0 MISS:          0
cpu3_L1D LOAD         ACCESS:          0 HIT:          0 MISS:          0
cpu3_L1D RFO          ACCESS:          0 HIT:          0 MISS:          0
cpu3_L1D PREFETCH     ACCESS:          0 HIT:          0 MISS:          0
cpu3_L1D WRITE        ACCESS:          0 HIT:          0 MISS:          0
cpu3_L1D TRANSLATION  ACCESS:          0 HIT:          0 MISS:          0
cpu3_L1D PREFETCH REQUESTED:  408132194 ISSUED:   47402647 USEFUL:    3002318 USELESS:    1368952
cpu3_L1D AVERAGE MISS LATENCY: 127.1 cycles
cpu3_L1D TOTAL        ACCESS:          0 HIT:          0 MISS:          0
cpu3_L1D LOAD         ACCESS:          0 HIT:          0 MISS:          0
cpu3_L1D RFO          ACCESS:          0 HIT:          0 MISS:          0
cpu3_L1D PREFETCH     ACCESS:          0 HIT:          0 MISS:          0
cpu3_L1D WRITE        ACCESS:          0 HIT:          0 MISS:          0
cpu3_L1D TRANSLATION  ACCESS:          0 HIT:          0 MISS:          0
cpu3_L1D PREFETCH REQUESTED:  408132194 ISSUED:   47402647 USEFUL:    3002318 USELESS:    1368952
cpu3_L1D AVERAGE MISS LATENCY: 127.1 cycles
cpu3_L1D TOTAL        ACCESS:          0 HIT:          0 MISS:          0
cpu3_L1D LOAD         ACCESS:          0 HIT:          0 MISS:          0
cpu3_L1D RFO          ACCESS:          0 HIT:          0 MISS:          0
cpu3_L1D PREFETCH     ACCESS:          0 HIT:          0 MISS:          0
cpu3_L1D WRITE        ACCESS:          0 HIT:          0 MISS:          0
cpu3_L1D TRANSLATION  ACCESS:          0 HIT:          0 MISS:          0
cpu3_L1D PREFETCH REQUESTED:  408132194 ISSUED:   47402647 USEFUL:    3002318 USELESS:    1368952
cpu3_L1D AVERAGE MISS LATENCY: 127.1 cycles
cpu3_L1D TOTAL        ACCESS:   29902133 HIT:   23627970 MISS:    6274163
cpu3_L1D LOAD         ACCESS:   15265175 HIT:   13526416 MISS:    1738759
cpu3_L1D RFO          ACCESS:          0 HIT:          0 MISS:          0
cpu3_L1D PREFETCH     ACCESS:    5028008 HIT:    3440480 MISS:    1587528
cpu3_L1D WRITE        ACCESS:    9600687 HIT:    6658996 MISS:    2941691
cpu3_L1D TRANSLATION  ACCESS:       8263 HIT:       2078 MISS:       6185
cpu3_L1D PREFETCH REQUESTED:  408132194 ISSUED:   47402647 USEFUL:    3002318 USELESS:    1368952
cpu3_L1D AVERAGE MISS LATENCY: 127.1 cycles
cpu3_L1I TOTAL        ACCESS:          0 HIT:          0 MISS:          0
cpu3_L1I LOAD         ACCESS:          0 HIT:          0 MISS:          0
cpu3_L1I RFO          ACCESS:          0 HIT:          0 MISS:          0
cpu3_L1I PREFETCH     ACCESS:          0 HIT:          0 MISS:          0
cpu3_L1I WRITE        ACCESS:          0 HIT:          0 MISS:          0
cpu3_L1I TRANSLATION  ACCESS:          0 HIT:          0 MISS:          0
cpu3_L1I PREFETCH REQUESTED:          0 ISSUED:          0 USEFUL:          0 USELESS:          0
cpu3_L1I AVERAGE MISS LATENCY: 52.31 cycles
cpu3_L1I TOTAL        ACCESS:          0 HIT:          0 MISS:          0
cpu3_L1I LOAD         ACCESS:          0 HIT:          0 MISS:          0
cpu3_L1I RFO          ACCESS:          0 HIT:          0 MISS:          0
cpu3_L1I PREFETCH     ACCESS:          0 HIT:          0 MISS:          0
cpu3_L1I WRITE        ACCESS:          0 HIT:          0 MISS:          0
cpu3_L1I TRANSLATION  ACCESS:          0 HIT:          0 MISS:          0
cpu3_L1I PREFETCH REQUESTED:          0 ISSUED:          0 USEFUL:          0 USELESS:          0
cpu3_L1I AVERAGE MISS LATENCY: 52.31 cycles
cpu3_L1I TOTAL        ACCESS:          0 HIT:          0 MISS:          0
cpu3_L1I LOAD         ACCESS:          0 HIT:          0 MISS:          0
cpu3_L1I RFO          ACCESS:          0 HIT:          0 MISS:          0
cpu3_L1I PREFETCH     ACCESS:          0 HIT:          0 MISS:          0
cpu3_L1I WRITE        ACCESS:          0 HIT:          0 MISS:          0
cpu3_L1I TRANSLATION  ACCESS:          0 HIT:          0 MISS:          0
cpu3_L1I PREFETCH REQUESTED:          0 ISSUED:          0 USEFUL:          0 USELESS:          0
cpu3_L1I AVERAGE MISS LATENCY: 52.31 cycles
cpu3_L1I TOTAL        ACCESS:     373634 HIT:     262503 MISS:     111131
cpu3_L1I LOAD         ACCESS:     373634 HIT:     262503 MISS:     111131
cpu3_L1I RFO          ACCESS:          0 HIT:          0 MISS:          0
cpu3_L1I PREFETCH     ACCESS:          0 HIT:          0 MISS:          0
cpu3_L1I WRITE        ACCESS:          0 HIT:          0 MISS:          0
cpu3_L1I TRANSLATION  ACCESS:          0 HIT:          0 MISS:          0
cpu3_L1I PREFETCH REQUESTED:          0 ISSUED:          0 USEFUL:          0 USELESS:          0
cpu3_L1I AVERAGE MISS LATENCY: 52.31 cycles
cpu3_L2C TOTAL        ACCESS:          0 HIT:          0 MISS:          0
cpu3_L2C LOAD         ACCESS:          0 HIT:          0 MISS:          0
cpu3_L2C RFO          ACCESS:          0 HIT:          0 MISS:          0
cpu3_L2C PREFETCH     ACCESS:          0 HIT:          0 MISS:          0
cpu3_L2C WRITE        ACCESS:          0 HIT:          0 MISS:          0
cpu3_L2C TRANSLATION  ACCESS:          0 HIT:          0 MISS:          0
cpu3_L2C PREFETCH REQUESTED:          0 ISSUED:          0 USEFUL:          0 USELESS:          0
cpu3_L2C AVERAGE MISS LATENCY: 713.4 cycles
cpu3_L2C TOTAL        ACCESS:          0 HIT:          0 MISS:          0
cpu3_L2C LOAD         ACCESS:          0 HIT:          0 MISS:          0
cpu3_L2C RFO          ACCESS:          0 HIT:          0 MISS:          0
cpu3_L2C PREFETCH     ACCESS:          0 HIT:          0 MISS:          0
cpu3_L2C WRITE        ACCESS:          0 HIT:          0 MISS:          0
cpu3_L2C TRANSLATION  ACCESS:          0 HIT:          0 MISS:          0
cpu3_L2C PREFETCH REQUESTED:          0 ISSUED:          0 USEFUL:          0 USELESS:          0
cpu3_L2C AVERAGE MISS LATENCY: 713.4 cycles
cpu3_L2C TOTAL        ACCESS:          0 HIT:          0 MISS:          0
cpu3_L2C LOAD         ACCESS:          0 HIT:          0 MISS:          0
cpu3_L2C RFO          ACCESS:          0 HIT:          0 MISS:          0
cpu3_L2C PREFETCH     ACCESS:          0 HIT:          0 MISS:          0
cpu3_L2C WRITE        ACCESS:          0 HIT:          0 MISS:          0
cpu3_L2C TRANSLATION  ACCESS:          0 HIT:          0 MISS:          0
cpu3_L2C PREFETCH REQUESTED:          0 ISSUED:          0 USEFUL:          0 USELESS:          0
cpu3_L2C AVERAGE MISS LATENCY: 713.4 cycles
cpu3_L2C TOTAL        ACCESS:    4341301 HIT:    2891780 MISS:    1449521
cpu3_L2C LOAD         ACCESS:    1105515 HIT:     707501 MISS:     398014
cpu3_L2C RFO          ACCESS:     739882 HIT:     428144 MISS:     311738
cpu3_L2C PREFETCH     ACCESS:    1515644 HIT:     780487 MISS:     735157
cpu3_L2C WRITE        ACCESS:     974179 HIT:     973684 MISS:        495
cpu3_L2C TRANSLATION  ACCESS:       6081 HIT:       1964 MISS:       4117
cpu3_L2C PREFETCH REQUESTED:          0 ISSUED:          0 USEFUL:          0 USELESS:          0
cpu3_L2C AVERAGE MISS LATENCY: 713.4 cycles
cpu3_STLB TOTAL        ACCESS:          0 HIT:          0 MISS:          0
cpu3_STLB LOAD         ACCESS:          0 HIT:          0 MISS:          0
cpu3_STLB RFO          ACCESS:          0 HIT:          0 MISS:          0
cpu3_STLB PREFETCH     ACCESS:          0 HIT:          0 MISS:          0
cpu3_STLB WRITE        ACCESS:          0 HIT:          0 MISS:          0
cpu3_STLB TRANSLATION  ACCESS:          0 HIT:          0 MISS:          0
cpu3_STLB PREFETCH REQUESTED:          0 ISSUED:          0 USEFUL:          0 USELESS:          0
cpu3_STLB AVERAGE MISS LATENCY: 751.8 cycles
cpu3_STLB TOTAL        ACCESS:          0 HIT:          0 MISS:          0
cpu3_STLB LOAD         ACCESS:          0 HIT:          0 MISS:          0
cpu3_STLB RFO          ACCESS:          0 HIT:          0 MISS:          0
cpu3_STLB PREFETCH     ACCESS:          0 HIT:          0 MISS:          0
cpu3_STLB WRITE        ACCESS:          0 HIT:          0 MISS:          0
cpu3_STLB TRANSLATION  ACCESS:          0 HIT:          0 MISS:          0
cpu3_STLB PREFETCH REQUESTED:          0 ISSUED:          0 USEFUL:          0 USELESS:          0
cpu3_STLB AVERAGE MISS LATENCY: 751.8 cycles
cpu3_STLB TOTAL        ACCESS:          0 HIT:          0 MISS:          0
cpu3_STLB LOAD         ACCESS:          0 HIT:          0 MISS:          0
cpu3_STLB RFO          ACCESS:          0 HIT:          0 MISS:          0
cpu3_STLB PREFETCH     ACCESS:          0 HIT:          0 MISS:          0
cpu3_STLB WRITE        ACCESS:          0 HIT:          0 MISS:          0
cpu3_STLB TRANSLATION  ACCESS:          0 HIT:          0 MISS:          0
cpu3_STLB PREFETCH REQUESTED:          0 ISSUED:          0 USEFUL:          0 USELESS:          0
cpu3_STLB AVERAGE MISS LATENCY: 751.8 cycles
cpu3_STLB TOTAL        ACCESS:      68369 HIT:      61227 MISS:       7142
cpu3_STLB LOAD         ACCESS:      68369 HIT:      61227 MISS:       7142
cpu3_STLB RFO          ACCESS:          0 HIT:          0 MISS:          0
cpu3_STLB PREFETCH     ACCESS:          0 HIT:          0 MISS:          0
cpu3_STLB WRITE        ACCESS:          0 HIT:          0 MISS:          0
cpu3_STLB TRANSLATION  ACCESS:          0 HIT:          0 MISS:          0
cpu3_STLB PREFETCH REQUESTED:          0 ISSUED:          0 USEFUL:          0 USELESS:          0
cpu3_STLB AVERAGE MISS LATENCY: 751.8 cycles

DRAM Statistics

Channel 0 RQ ROW_BUFFER_HIT:    2980781
  ROW_BUFFER_MISS:   11441927
 AVG DBUS CONGESTED CYCLE: 3.981
WQ ROW_BUFFER_HIT: Channel 0 
  ROW_BUFFER_MISS:      97912
  FULL:    3629645
BERTI TO_L1: 174987554 TO_L2: 306421812 TO_L2_BC_MSHR: 121600617
BERTI AVG_LAT: 495.136 NUM_TRACK_LATENCY: 103913430 NUM_CANT_TRACK_LATENCY: 597062
BERTI CROSS_PAGE 57359272 NO_CROSS_PAGE: 424050094
BERTI FOUND_BERTI: 114107338 NO_FOUND_BERTI: 257244034
BERTI AVERAGE_ISSUED: 4.31908
BERTI TO_L1: 174987554 TO_L2: 306421812 TO_L2_BC_MSHR: 121600617
BERTI AVG_LAT: 495.136 NUM_TRACK_LATENCY: 103913430 NUM_CANT_TRACK_LATENCY: 597062
BERTI CROSS_PAGE 57359272 NO_CROSS_PAGE: 424050094
BERTI FOUND_BERTI: 114107338 NO_FOUND_BERTI: 257244034
BERTI AVERAGE_ISSUED: 4.31908
BERTI TO_L1: 174987554 TO_L2: 306421812 TO_L2_BC_MSHR: 121600617
BERTI AVG_LAT: 495.136 NUM_TRACK_LATENCY: 103913430 NUM_CANT_TRACK_LATENCY: 597062
BERTI CROSS_PAGE 57359272 NO_CROSS_PAGE: 424050094
BERTI FOUND_BERTI: 114107338 NO_FOUND_BERTI: 257244034
BERTI AVERAGE_ISSUED: 4.31908
BERTI TO_L1: 174987554 TO_L2: 306421812 TO_L2_BC_MSHR: 121600617
BERTI AVG_LAT: 495.136 NUM_TRACK_LATENCY: 103913430 NUM_CANT_TRACK_LATENCY: 597062
BERTI CROSS_PAGE 57359272 NO_CROSS_PAGE: 424050094
BERTI FOUND_BERTI: 114107338 NO_FOUND_BERTI: 257244034
BERTI AVERAGE_ISSUED: 4.31908
