WARNING: physical memory size is smaller than virtual memory size.
WARNING: option --warmup_instructions is deprecated. Use --warmup-instructions instead.
WARNING: option --simulation_instructions is deprecated. Use --simulation-instructions instead.

*** ChampSim Multicore Out-of-Order Simulator ***
Warmup Instructions: 50000000
Simulation Instructions: 150000000
Number of CPUs: 4
Page size: 4096

Off-chip DRAM Size: 4 GiB Channels: 1 Width: 64-bit Data Race: 3200 MT/s
Heartbeat CPU 1 instructions: 10000003 cycles: 2521875 heartbeat IPC: 3.965 cumulative IPC: 3.965 (Simulation time: 00 hr 01 min 58 sec)
Heartbeat CPU 3 instructions: 10000002 cycles: 3380491 heartbeat IPC: 2.958 cumulative IPC: 2.958 (Simulation time: 00 hr 02 min 45 sec)
Heartbeat CPU 2 instructions: 10000002 cycles: 3769109 heartbeat IPC: 2.653 cumulative IPC: 2.653 (Simulation time: 00 hr 03 min 04 sec)
Heartbeat CPU 0 instructions: 10000001 cycles: 4174512 heartbeat IPC: 2.395 cumulative IPC: 2.395 (Simulation time: 00 hr 03 min 23 sec)
Heartbeat CPU 1 instructions: 20000001 cycles: 5038237 heartbeat IPC: 3.974 cumulative IPC: 3.97 (Simulation time: 00 hr 04 min 05 sec)
Heartbeat CPU 3 instructions: 20000000 cycles: 6753560 heartbeat IPC: 2.965 cumulative IPC: 2.961 (Simulation time: 00 hr 05 min 30 sec)
Heartbeat CPU 2 instructions: 20000002 cycles: 7537072 heartbeat IPC: 2.654 cumulative IPC: 2.654 (Simulation time: 00 hr 06 min 10 sec)
Heartbeat CPU 1 instructions: 30000000 cycles: 7553266 heartbeat IPC: 3.976 cumulative IPC: 3.972 (Simulation time: 00 hr 06 min 11 sec)
Heartbeat CPU 0 instructions: 20000004 cycles: 8346858 heartbeat IPC: 2.397 cumulative IPC: 2.396 (Simulation time: 00 hr 07 min 00 sec)
Heartbeat CPU 1 instructions: 40000003 cycles: 10077277 heartbeat IPC: 3.962 cumulative IPC: 3.969 (Simulation time: 00 hr 08 min 40 sec)
Heartbeat CPU 3 instructions: 30000001 cycles: 10110535 heartbeat IPC: 2.979 cumulative IPC: 2.967 (Simulation time: 00 hr 08 min 43 sec)
Heartbeat CPU 2 instructions: 30000003 cycles: 11303659 heartbeat IPC: 2.655 cumulative IPC: 2.654 (Simulation time: 00 hr 09 min 54 sec)
Heartbeat CPU 0 instructions: 30000001 cycles: 12520701 heartbeat IPC: 2.396 cumulative IPC: 2.396 (Simulation time: 00 hr 10 min 50 sec)
Heartbeat CPU 1 instructions: 50000000 cycles: 12599099 heartbeat IPC: 3.965 cumulative IPC: 3.969 (Simulation time: 00 hr 10 min 53 sec)
Warmup finished CPU 1 instructions: 50000000 cycles: 12599100 cumulative IPC: 3.969 (Simulation time: 00 hr 10 min 53 sec)
Heartbeat CPU 3 instructions: 40000000 cycles: 13503019 heartbeat IPC: 2.948 cumulative IPC: 2.962 (Simulation time: 00 hr 11 min 37 sec)
Heartbeat CPU 2 instructions: 40000001 cycles: 15071214 heartbeat IPC: 2.654 cumulative IPC: 2.654 (Simulation time: 00 hr 13 min 03 sec)
Heartbeat CPU 1 instructions: 60000002 cycles: 15124094 heartbeat IPC: 3.96 cumulative IPC: 3.967 (Simulation time: 00 hr 13 min 05 sec)
Heartbeat CPU 0 instructions: 40000000 cycles: 16708829 heartbeat IPC: 2.388 cumulative IPC: 2.394 (Simulation time: 00 hr 14 min 23 sec)
Heartbeat CPU 3 instructions: 50000004 cycles: 16898941 heartbeat IPC: 2.945 cumulative IPC: 2.959 (Simulation time: 00 hr 14 min 32 sec)
Warmup finished CPU 3 instructions: 50000004 cycles: 16898942 cumulative IPC: 2.959 (Simulation time: 00 hr 14 min 32 sec)
Heartbeat CPU 1 instructions: 70000000 cycles: 17648868 heartbeat IPC: 3.961 cumulative IPC: 3.966 (Simulation time: 00 hr 15 min 05 sec)
Heartbeat CPU 2 instructions: 50000003 cycles: 18840647 heartbeat IPC: 2.653 cumulative IPC: 2.654 (Simulation time: 00 hr 16 min 03 sec)
Warmup finished CPU 2 instructions: 50000003 cycles: 18840648 cumulative IPC: 2.654 (Simulation time: 00 hr 16 min 03 sec)
Heartbeat CPU 1 instructions: 80000001 cycles: 20174084 heartbeat IPC: 3.96 cumulative IPC: 3.965 (Simulation time: 00 hr 17 min 07 sec)
Heartbeat CPU 3 instructions: 60000002 cycles: 20319810 heartbeat IPC: 2.923 cumulative IPC: 2.953 (Simulation time: 00 hr 17 min 13 sec)
Heartbeat CPU 0 instructions: 50000003 cycles: 20875702 heartbeat IPC: 2.4 cumulative IPC: 2.395 (Simulation time: 00 hr 17 min 41 sec)
Warmup finished CPU 0 instructions: 50000003 cycles: 20875703 cumulative IPC: 2.395 (Simulation time: 00 hr 17 min 41 sec)
Warmup complete CPU 0 instructions: 50000003 cycles: 20875703 cumulative IPC: 2.395 (Simulation time: 00 hr 17 min 41 sec)
Warmup complete CPU 1 instructions: 82777531 cycles: 20875703 cumulative IPC: 3.965 (Simulation time: 00 hr 17 min 41 sec)
Warmup complete CPU 2 instructions: 55216801 cycles: 20875703 cumulative IPC: 2.645 (Simulation time: 00 hr 17 min 41 sec)
Warmup complete CPU 3 instructions: 61647561 cycles: 20875703 cumulative IPC: 2.953 (Simulation time: 00 hr 17 min 41 sec)
Heartbeat CPU 1 instructions: 90000001 cycles: 24333767 heartbeat IPC: 2.404 cumulative IPC: 2.089 (Simulation time: 00 hr 19 min 09 sec)
Heartbeat CPU 1 instructions: 100000000 cycles: 28779000 heartbeat IPC: 2.25 cumulative IPC: 2.179 (Simulation time: 00 hr 20 min 59 sec)
Heartbeat CPU 2 instructions: 60000004 cycles: 32388755 heartbeat IPC: 0.7381 cumulative IPC: 0.4155 (Simulation time: 00 hr 22 min 28 sec)
Heartbeat CPU 1 instructions: 110000004 cycles: 33783196 heartbeat IPC: 1.998 cumulative IPC: 2.109 (Simulation time: 00 hr 23 min 01 sec)
Heartbeat CPU 1 instructions: 120000001 cycles: 38290411 heartbeat IPC: 2.219 cumulative IPC: 2.137 (Simulation time: 00 hr 25 min 12 sec)
Heartbeat CPU 1 instructions: 130000000 cycles: 43271092 heartbeat IPC: 2.008 cumulative IPC: 2.109 (Simulation time: 00 hr 27 min 21 sec)
Heartbeat CPU 1 instructions: 140000002 cycles: 48335325 heartbeat IPC: 1.975 cumulative IPC: 2.084 (Simulation time: 00 hr 29 min 31 sec)
Heartbeat CPU 1 instructions: 150000002 cycles: 53203971 heartbeat IPC: 2.054 cumulative IPC: 2.079 (Simulation time: 00 hr 31 min 37 sec)
Heartbeat CPU 2 instructions: 70000001 cycles: 56369728 heartbeat IPC: 0.417 cumulative IPC: 0.4165 (Simulation time: 00 hr 32 min 56 sec)
Heartbeat CPU 1 instructions: 160000001 cycles: 58260855 heartbeat IPC: 1.978 cumulative IPC: 2.066 (Simulation time: 00 hr 33 min 43 sec)
Heartbeat CPU 1 instructions: 170000000 cycles: 63139490 heartbeat IPC: 2.05 cumulative IPC: 2.064 (Simulation time: 00 hr 35 min 45 sec)
Heartbeat CPU 1 instructions: 180000000 cycles: 68386809 heartbeat IPC: 1.906 cumulative IPC: 2.046 (Simulation time: 00 hr 37 min 51 sec)
Heartbeat CPU 1 instructions: 190000000 cycles: 73360031 heartbeat IPC: 2.011 cumulative IPC: 2.043 (Simulation time: 00 hr 39 min 59 sec)
Heartbeat CPU 1 instructions: 200000004 cycles: 78112346 heartbeat IPC: 2.104 cumulative IPC: 2.048 (Simulation time: 00 hr 42 min 08 sec)
Heartbeat CPU 2 instructions: 80000000 cycles: 80220947 heartbeat IPC: 0.4193 cumulative IPC: 0.4176 (Simulation time: 00 hr 42 min 57 sec)
Heartbeat CPU 1 instructions: 210000001 cycles: 83340203 heartbeat IPC: 1.913 cumulative IPC: 2.037 (Simulation time: 00 hr 44 min 31 sec)
Heartbeat CPU 1 instructions: 220000002 cycles: 88934777 heartbeat IPC: 1.787 cumulative IPC: 2.016 (Simulation time: 00 hr 46 min 50 sec)
Heartbeat CPU 3 instructions: 70000000 cycles: 89563368 heartbeat IPC: 0.1444 cumulative IPC: 0.1216 (Simulation time: 00 hr 47 min 04 sec)
Heartbeat CPU 1 instructions: 230000000 cycles: 94174558 heartbeat IPC: 1.908 cumulative IPC: 2.009 (Simulation time: 00 hr 49 min 12 sec)
Simulation finished CPU 1 instructions: 150000002 cycles: 74714734 cumulative IPC: 2.008 (Simulation time: 00 hr 49 min 47 sec)
Heartbeat CPU 1 instructions: 240000001 cycles: 99316657 heartbeat IPC: 1.945 cumulative IPC: 2.004 (Simulation time: 00 hr 51 min 28 sec)
Heartbeat CPU 2 instructions: 90000000 cycles: 103584658 heartbeat IPC: 0.428 cumulative IPC: 0.4205 (Simulation time: 00 hr 53 min 17 sec)
Heartbeat CPU 1 instructions: 250000001 cycles: 104359559 heartbeat IPC: 1.983 cumulative IPC: 2.003 (Simulation time: 00 hr 53 min 38 sec)
Heartbeat CPU 1 instructions: 260000000 cycles: 109375910 heartbeat IPC: 1.993 cumulative IPC: 2.003 (Simulation time: 00 hr 55 min 47 sec)
Heartbeat CPU 1 instructions: 270000003 cycles: 114611026 heartbeat IPC: 1.91 cumulative IPC: 1.997 (Simulation time: 00 hr 58 min 03 sec)
Heartbeat CPU 1 instructions: 280000000 cycles: 119542086 heartbeat IPC: 2.028 cumulative IPC: 1.999 (Simulation time: 01 hr 00 min 07 sec)
Heartbeat CPU 1 instructions: 290000001 cycles: 124521599 heartbeat IPC: 2.008 cumulative IPC: 1.999 (Simulation time: 01 hr 02 min 16 sec)
Heartbeat CPU 2 instructions: 100000003 cycles: 126893981 heartbeat IPC: 0.429 cumulative IPC: 0.4224 (Simulation time: 01 hr 03 min 18 sec)
Heartbeat CPU 1 instructions: 300000002 cycles: 129692398 heartbeat IPC: 1.934 cumulative IPC: 1.996 (Simulation time: 01 hr 04 min 31 sec)
Heartbeat CPU 1 instructions: 310000003 cycles: 134668468 heartbeat IPC: 2.01 cumulative IPC: 1.997 (Simulation time: 01 hr 06 min 42 sec)
Heartbeat CPU 1 instructions: 320000002 cycles: 139714251 heartbeat IPC: 1.982 cumulative IPC: 1.996 (Simulation time: 01 hr 08 min 48 sec)
Heartbeat CPU 1 instructions: 330000004 cycles: 144935043 heartbeat IPC: 1.915 cumulative IPC: 1.993 (Simulation time: 01 hr 10 min 49 sec)
Heartbeat CPU 1 instructions: 340000001 cycles: 150188457 heartbeat IPC: 1.904 cumulative IPC: 1.989 (Simulation time: 01 hr 12 min 51 sec)
Heartbeat CPU 2 instructions: 110000003 cycles: 150646713 heartbeat IPC: 0.421 cumulative IPC: 0.4222 (Simulation time: 01 hr 13 min 02 sec)
Heartbeat CPU 1 instructions: 350000001 cycles: 155515447 heartbeat IPC: 1.877 cumulative IPC: 1.985 (Simulation time: 01 hr 14 min 50 sec)
Heartbeat CPU 1 instructions: 360000004 cycles: 161163472 heartbeat IPC: 1.771 cumulative IPC: 1.976 (Simulation time: 01 hr 17 min 01 sec)
Heartbeat CPU 0 instructions: 60000003 cycles: 165239375 heartbeat IPC: 0.06927 cumulative IPC: 0.06927 (Simulation time: 01 hr 18 min 41 sec)
Heartbeat CPU 1 instructions: 370000000 cycles: 166063919 heartbeat IPC: 2.041 cumulative IPC: 1.978 (Simulation time: 01 hr 19 min 02 sec)
Heartbeat CPU 3 instructions: 80000000 cycles: 168704610 heartbeat IPC: 0.1264 cumulative IPC: 0.1241 (Simulation time: 01 hr 20 min 03 sec)
Heartbeat CPU 1 instructions: 380000000 cycles: 171160450 heartbeat IPC: 1.962 cumulative IPC: 1.978 (Simulation time: 01 hr 21 min 02 sec)
Heartbeat CPU 2 instructions: 120000004 cycles: 173852863 heartbeat IPC: 0.4309 cumulative IPC: 0.4235 (Simulation time: 01 hr 22 min 08 sec)
Heartbeat CPU 1 instructions: 390000000 cycles: 176143419 heartbeat IPC: 2.007 cumulative IPC: 1.979 (Simulation time: 01 hr 23 min 05 sec)
Heartbeat CPU 1 instructions: 400000000 cycles: 181127112 heartbeat IPC: 2.007 cumulative IPC: 1.98 (Simulation time: 01 hr 25 min 08 sec)
Heartbeat CPU 1 instructions: 410000000 cycles: 186069323 heartbeat IPC: 2.023 cumulative IPC: 1.981 (Simulation time: 01 hr 27 min 11 sec)
Heartbeat CPU 1 instructions: 420000004 cycles: 190952949 heartbeat IPC: 2.048 cumulative IPC: 1.983 (Simulation time: 01 hr 29 min 15 sec)
Heartbeat CPU 1 instructions: 430000002 cycles: 196055150 heartbeat IPC: 1.96 cumulative IPC: 1.982 (Simulation time: 01 hr 31 min 19 sec)
Heartbeat CPU 2 instructions: 130000004 cycles: 197119241 heartbeat IPC: 0.4298 cumulative IPC: 0.4243 (Simulation time: 01 hr 31 min 44 sec)
Heartbeat CPU 1 instructions: 440000003 cycles: 201093571 heartbeat IPC: 1.985 cumulative IPC: 1.982 (Simulation time: 01 hr 33 min 24 sec)
Heartbeat CPU 1 instructions: 450000003 cycles: 205912757 heartbeat IPC: 2.075 cumulative IPC: 1.985 (Simulation time: 01 hr 35 min 26 sec)
Heartbeat CPU 1 instructions: 460000003 cycles: 211047830 heartbeat IPC: 1.947 cumulative IPC: 1.984 (Simulation time: 01 hr 37 min 30 sec)
Heartbeat CPU 1 instructions: 470000002 cycles: 215451244 heartbeat IPC: 2.271 cumulative IPC: 1.99 (Simulation time: 01 hr 39 min 23 sec)
Heartbeat CPU 1 instructions: 480000000 cycles: 220190723 heartbeat IPC: 2.11 cumulative IPC: 1.993 (Simulation time: 01 hr 41 min 20 sec)
Heartbeat CPU 2 instructions: 140000002 cycles: 220521556 heartbeat IPC: 0.4273 cumulative IPC: 0.4247 (Simulation time: 01 hr 41 min 28 sec)
Heartbeat CPU 1 instructions: 490000002 cycles: 224606280 heartbeat IPC: 2.265 cumulative IPC: 1.999 (Simulation time: 01 hr 43 min 07 sec)
Heartbeat CPU 1 instructions: 500000000 cycles: 229220445 heartbeat IPC: 2.167 cumulative IPC: 2.003 (Simulation time: 01 hr 45 min 01 sec)
Heartbeat CPU 1 instructions: 510000004 cycles: 233676237 heartbeat IPC: 2.244 cumulative IPC: 2.008 (Simulation time: 01 hr 46 min 53 sec)
Heartbeat CPU 1 instructions: 520000000 cycles: 238376732 heartbeat IPC: 2.127 cumulative IPC: 2.01 (Simulation time: 01 hr 48 min 51 sec)
Heartbeat CPU 2 instructions: 150000004 cycles: 244334432 heartbeat IPC: 0.4199 cumulative IPC: 0.4242 (Simulation time: 01 hr 51 min 07 sec)
Heartbeat CPU 3 instructions: 90000003 cycles: 248423024 heartbeat IPC: 0.1254 cumulative IPC: 0.1246 (Simulation time: 01 hr 52 min 38 sec)
Heartbeat CPU 1 instructions: 530000002 cycles: 257938296 heartbeat IPC: 0.5112 cumulative IPC: 1.887 (Simulation time: 01 hr 56 min 05 sec)
Heartbeat CPU 2 instructions: 160000004 cycles: 270574626 heartbeat IPC: 0.3811 cumulative IPC: 0.4196 (Simulation time: 02 hr 00 min 47 sec)
Heartbeat CPU 1 instructions: 540000003 cycles: 273248596 heartbeat IPC: 0.6532 cumulative IPC: 1.812 (Simulation time: 02 hr 01 min 50 sec)
Heartbeat CPU 1 instructions: 550000001 cycles: 277649943 heartbeat IPC: 2.272 cumulative IPC: 1.82 (Simulation time: 02 hr 03 min 45 sec)
Heartbeat CPU 1 instructions: 560000002 cycles: 282366080 heartbeat IPC: 2.12 cumulative IPC: 1.825 (Simulation time: 02 hr 05 min 47 sec)
Heartbeat CPU 1 instructions: 570000001 cycles: 286775267 heartbeat IPC: 2.268 cumulative IPC: 1.832 (Simulation time: 02 hr 07 min 39 sec)
Heartbeat CPU 1 instructions: 580000001 cycles: 291375856 heartbeat IPC: 2.174 cumulative IPC: 1.838 (Simulation time: 02 hr 09 min 36 sec)
Heartbeat CPU 2 instructions: 170000000 cycles: 294047222 heartbeat IPC: 0.426 cumulative IPC: 0.4202 (Simulation time: 02 hr 10 min 44 sec)
Heartbeat CPU 1 instructions: 590000002 cycles: 295675378 heartbeat IPC: 2.326 cumulative IPC: 1.846 (Simulation time: 02 hr 11 min 25 sec)
Heartbeat CPU 1 instructions: 600000000 cycles: 299976113 heartbeat IPC: 2.325 cumulative IPC: 1.853 (Simulation time: 02 hr 13 min 15 sec)
Heartbeat CPU 1 instructions: 610000000 cycles: 304474213 heartbeat IPC: 2.223 cumulative IPC: 1.859 (Simulation time: 02 hr 15 min 12 sec)
Heartbeat CPU 0 instructions: 70000002 cycles: 307141252 heartbeat IPC: 0.07047 cumulative IPC: 0.06987 (Simulation time: 02 hr 16 min 20 sec)
Heartbeat CPU 1 instructions: 620000000 cycles: 309033760 heartbeat IPC: 2.193 cumulative IPC: 1.864 (Simulation time: 02 hr 17 min 09 sec)
Heartbeat CPU 1 instructions: 630000001 cycles: 313679330 heartbeat IPC: 2.153 cumulative IPC: 1.869 (Simulation time: 02 hr 19 min 09 sec)
Heartbeat CPU 2 instructions: 180000003 cycles: 316561499 heartbeat IPC: 0.4442 cumulative IPC: 0.422 (Simulation time: 02 hr 20 min 26 sec)
Heartbeat CPU 1 instructions: 640000001 cycles: 318091736 heartbeat IPC: 2.266 cumulative IPC: 1.875 (Simulation time: 02 hr 21 min 08 sec)
Heartbeat CPU 1 instructions: 650000000 cycles: 322739889 heartbeat IPC: 2.151 cumulative IPC: 1.879 (Simulation time: 02 hr 23 min 06 sec)
Heartbeat CPU 1 instructions: 660000002 cycles: 327458641 heartbeat IPC: 2.119 cumulative IPC: 1.883 (Simulation time: 02 hr 25 min 04 sec)
Heartbeat CPU 3 instructions: 100000000 cycles: 329913123 heartbeat IPC: 0.1227 cumulative IPC: 0.1241 (Simulation time: 02 hr 26 min 04 sec)
Heartbeat CPU 1 instructions: 670000001 cycles: 332314164 heartbeat IPC: 2.06 cumulative IPC: 1.886 (Simulation time: 02 hr 27 min 04 sec)
Heartbeat CPU 1 instructions: 680000002 cycles: 337335184 heartbeat IPC: 1.992 cumulative IPC: 1.887 (Simulation time: 02 hr 29 min 02 sec)
Heartbeat CPU 2 instructions: 190000001 cycles: 339650701 heartbeat IPC: 0.4331 cumulative IPC: 0.4228 (Simulation time: 02 hr 29 min 57 sec)
Heartbeat CPU 1 instructions: 690000001 cycles: 342148658 heartbeat IPC: 2.078 cumulative IPC: 1.89 (Simulation time: 02 hr 30 min 57 sec)
Heartbeat CPU 1 instructions: 700000000 cycles: 347238883 heartbeat IPC: 1.965 cumulative IPC: 1.891 (Simulation time: 02 hr 33 min 04 sec)
Heartbeat CPU 1 instructions: 710000002 cycles: 352117509 heartbeat IPC: 2.05 cumulative IPC: 1.894 (Simulation time: 02 hr 35 min 01 sec)
Heartbeat CPU 1 instructions: 720000004 cycles: 357212353 heartbeat IPC: 1.963 cumulative IPC: 1.895 (Simulation time: 02 hr 37 min 05 sec)
Heartbeat CPU 1 instructions: 730000002 cycles: 362087333 heartbeat IPC: 2.051 cumulative IPC: 1.897 (Simulation time: 02 hr 39 min 07 sec)
Heartbeat CPU 2 instructions: 200000002 cycles: 363137442 heartbeat IPC: 0.4258 cumulative IPC: 0.423 (Simulation time: 02 hr 39 min 31 sec)
Heartbeat CPU 1 instructions: 740000004 cycles: 367135855 heartbeat IPC: 1.981 cumulative IPC: 1.898 (Simulation time: 02 hr 41 min 06 sec)
Heartbeat CPU 1 instructions: 750000001 cycles: 372340060 heartbeat IPC: 1.922 cumulative IPC: 1.898 (Simulation time: 02 hr 43 min 11 sec)
Simulation finished CPU 2 instructions: 150000003 cycles: 354266120 cumulative IPC: 0.4234 (Simulation time: 02 hr 44 min 14 sec)
Heartbeat CPU 1 instructions: 760000000 cycles: 377353318 heartbeat IPC: 1.995 cumulative IPC: 1.9 (Simulation time: 02 hr 45 min 05 sec)
Heartbeat CPU 1 instructions: 770000002 cycles: 382321099 heartbeat IPC: 2.013 cumulative IPC: 1.901 (Simulation time: 02 hr 46 min 59 sec)
Heartbeat CPU 2 instructions: 210000003 cycles: 386107355 heartbeat IPC: 0.4354 cumulative IPC: 0.4238 (Simulation time: 02 hr 48 min 27 sec)
Heartbeat CPU 1 instructions: 780000002 cycles: 387289091 heartbeat IPC: 2.013 cumulative IPC: 1.903 (Simulation time: 02 hr 48 min 55 sec)
Heartbeat CPU 1 instructions: 790000002 cycles: 392299400 heartbeat IPC: 1.996 cumulative IPC: 1.904 (Simulation time: 02 hr 50 min 50 sec)
Heartbeat CPU 1 instructions: 800000001 cycles: 397289576 heartbeat IPC: 2.004 cumulative IPC: 1.905 (Simulation time: 02 hr 52 min 44 sec)
Heartbeat CPU 1 instructions: 810000000 cycles: 402428223 heartbeat IPC: 1.946 cumulative IPC: 1.906 (Simulation time: 02 hr 54 min 37 sec)
Heartbeat CPU 1 instructions: 820000000 cycles: 407286621 heartbeat IPC: 2.058 cumulative IPC: 1.908 (Simulation time: 02 hr 56 min 28 sec)
Heartbeat CPU 2 instructions: 220000000 cycles: 409382214 heartbeat IPC: 0.4296 cumulative IPC: 0.4241 (Simulation time: 02 hr 57 min 14 sec)
Heartbeat CPU 3 instructions: 110000002 cycles: 409646236 heartbeat IPC: 0.1254 cumulative IPC: 0.1244 (Simulation time: 02 hr 57 min 20 sec)
Heartbeat CPU 1 instructions: 830000004 cycles: 412347372 heartbeat IPC: 1.976 cumulative IPC: 1.909 (Simulation time: 02 hr 58 min 21 sec)
Heartbeat CPU 1 instructions: 840000003 cycles: 417371053 heartbeat IPC: 1.991 cumulative IPC: 1.91 (Simulation time: 03 hr 00 min 14 sec)
Heartbeat CPU 1 instructions: 850000001 cycles: 422345523 heartbeat IPC: 2.01 cumulative IPC: 1.911 (Simulation time: 03 hr 02 min 06 sec)
Heartbeat CPU 1 instructions: 860000003 cycles: 427305928 heartbeat IPC: 2.016 cumulative IPC: 1.912 (Simulation time: 03 hr 03 min 59 sec)
Heartbeat CPU 1 instructions: 870000003 cycles: 432368161 heartbeat IPC: 1.975 cumulative IPC: 1.913 (Simulation time: 03 hr 05 min 49 sec)
Heartbeat CPU 2 instructions: 230000002 cycles: 433217096 heartbeat IPC: 0.4196 cumulative IPC: 0.4239 (Simulation time: 03 hr 06 min 08 sec)
Heartbeat CPU 1 instructions: 880000000 cycles: 437329736 heartbeat IPC: 2.015 cumulative IPC: 1.914 (Simulation time: 03 hr 07 min 39 sec)
Heartbeat CPU 1 instructions: 890000004 cycles: 442327837 heartbeat IPC: 2.001 cumulative IPC: 1.915 (Simulation time: 03 hr 09 min 26 sec)
Heartbeat CPU 1 instructions: 900000000 cycles: 447314342 heartbeat IPC: 2.005 cumulative IPC: 1.916 (Simulation time: 03 hr 11 min 15 sec)
Heartbeat CPU 0 instructions: 80000002 cycles: 449138753 heartbeat IPC: 0.07042 cumulative IPC: 0.07005 (Simulation time: 03 hr 11 min 54 sec)
Heartbeat CPU 1 instructions: 910000003 cycles: 452515481 heartbeat IPC: 1.923 cumulative IPC: 1.916 (Simulation time: 03 hr 13 min 08 sec)
Heartbeat CPU 2 instructions: 240000003 cycles: 456597601 heartbeat IPC: 0.4277 cumulative IPC: 0.4241 (Simulation time: 03 hr 14 min 41 sec)
Heartbeat CPU 1 instructions: 920000001 cycles: 457275447 heartbeat IPC: 2.101 cumulative IPC: 1.918 (Simulation time: 03 hr 14 min 57 sec)
Heartbeat CPU 1 instructions: 930000001 cycles: 462252300 heartbeat IPC: 2.009 cumulative IPC: 1.92 (Simulation time: 03 hr 16 min 46 sec)
Heartbeat CPU 1 instructions: 940000000 cycles: 467534458 heartbeat IPC: 1.893 cumulative IPC: 1.919 (Simulation time: 03 hr 18 min 40 sec)
Heartbeat CPU 1 instructions: 950000000 cycles: 472641849 heartbeat IPC: 1.958 cumulative IPC: 1.92 (Simulation time: 03 hr 20 min 29 sec)
Heartbeat CPU 1 instructions: 960000003 cycles: 477794122 heartbeat IPC: 1.941 cumulative IPC: 1.92 (Simulation time: 03 hr 22 min 19 sec)
Heartbeat CPU 2 instructions: 250000003 cycles: 479812709 heartbeat IPC: 0.4308 cumulative IPC: 0.4244 (Simulation time: 03 hr 23 min 03 sec)
Heartbeat CPU 1 instructions: 970000001 cycles: 482633705 heartbeat IPC: 2.066 cumulative IPC: 1.921 (Simulation time: 03 hr 24 min 05 sec)
Heartbeat CPU 1 instructions: 980000000 cycles: 487760333 heartbeat IPC: 1.951 cumulative IPC: 1.922 (Simulation time: 03 hr 25 min 59 sec)
Heartbeat CPU 3 instructions: 120000003 cycles: 490461594 heartbeat IPC: 0.1237 cumulative IPC: 0.1243 (Simulation time: 03 hr 27 min 00 sec)
Heartbeat CPU 1 instructions: 990000002 cycles: 492844854 heartbeat IPC: 1.967 cumulative IPC: 1.922 (Simulation time: 03 hr 27 min 52 sec)
Heartbeat CPU 1 instructions: 1000000004 cycles: 497829224 heartbeat IPC: 2.006 cumulative IPC: 1.923 (Simulation time: 03 hr 29 min 38 sec)
Heartbeat CPU 1 instructions: 1010000000 cycles: 502952266 heartbeat IPC: 1.952 cumulative IPC: 1.923 (Simulation time: 03 hr 31 min 31 sec)
Heartbeat CPU 2 instructions: 260000001 cycles: 503174630 heartbeat IPC: 0.428 cumulative IPC: 0.4246 (Simulation time: 03 hr 31 min 37 sec)
Heartbeat CPU 1 instructions: 1020000002 cycles: 507731636 heartbeat IPC: 2.092 cumulative IPC: 1.925 (Simulation time: 03 hr 33 min 18 sec)
Heartbeat CPU 1 instructions: 1030000004 cycles: 512498270 heartbeat IPC: 2.098 cumulative IPC: 1.927 (Simulation time: 03 hr 34 min 59 sec)
Heartbeat CPU 1 instructions: 1040000001 cycles: 517235197 heartbeat IPC: 2.111 cumulative IPC: 1.928 (Simulation time: 03 hr 36 min 47 sec)
Heartbeat CPU 1 instructions: 1050000001 cycles: 521597948 heartbeat IPC: 2.292 cumulative IPC: 1.932 (Simulation time: 03 hr 38 min 26 sec)
Heartbeat CPU 2 instructions: 270000002 cycles: 525806689 heartbeat IPC: 0.4419 cumulative IPC: 0.4254 (Simulation time: 03 hr 40 min 03 sec)
Heartbeat CPU 1 instructions: 1060000001 cycles: 526009039 heartbeat IPC: 2.267 cumulative IPC: 1.935 (Simulation time: 03 hr 40 min 07 sec)
Heartbeat CPU 1 instructions: 1070000000 cycles: 530655196 heartbeat IPC: 2.152 cumulative IPC: 1.937 (Simulation time: 03 hr 41 min 52 sec)
Heartbeat CPU 1 instructions: 1080000000 cycles: 535334055 heartbeat IPC: 2.137 cumulative IPC: 1.938 (Simulation time: 03 hr 43 min 35 sec)
Heartbeat CPU 1 instructions: 1090000000 cycles: 539667842 heartbeat IPC: 2.307 cumulative IPC: 1.941 (Simulation time: 03 hr 45 min 12 sec)
Heartbeat CPU 1 instructions: 1100000000 cycles: 544005330 heartbeat IPC: 2.305 cumulative IPC: 1.944 (Simulation time: 03 hr 46 min 48 sec)
Heartbeat CPU 1 instructions: 1110000001 cycles: 548685108 heartbeat IPC: 2.137 cumulative IPC: 1.946 (Simulation time: 03 hr 48 min 30 sec)
Heartbeat CPU 2 instructions: 280000000 cycles: 548959903 heartbeat IPC: 0.4319 cumulative IPC: 0.4257 (Simulation time: 03 hr 48 min 36 sec)
Heartbeat CPU 1 instructions: 1120000004 cycles: 553055518 heartbeat IPC: 2.288 cumulative IPC: 1.949 (Simulation time: 03 hr 50 min 08 sec)
Heartbeat CPU 1 instructions: 1130000000 cycles: 557803249 heartbeat IPC: 2.106 cumulative IPC: 1.95 (Simulation time: 03 hr 51 min 55 sec)
Heartbeat CPU 1 instructions: 1140000002 cycles: 562486039 heartbeat IPC: 2.135 cumulative IPC: 1.952 (Simulation time: 03 hr 53 min 42 sec)
Heartbeat CPU 1 instructions: 1150000000 cycles: 566834369 heartbeat IPC: 2.3 cumulative IPC: 1.955 (Simulation time: 03 hr 55 min 20 sec)
Heartbeat CPU 3 instructions: 130000000 cycles: 568319626 heartbeat IPC: 0.1284 cumulative IPC: 0.1249 (Simulation time: 03 hr 55 min 51 sec)
Heartbeat CPU 2 instructions: 290000001 cycles: 572525208 heartbeat IPC: 0.4244 cumulative IPC: 0.4256 (Simulation time: 03 hr 57 min 16 sec)
Heartbeat CPU 0 instructions: 90000001 cycles: 589545246 heartbeat IPC: 0.07122 cumulative IPC: 0.07034 (Simulation time: 04 hr 02 min 42 sec)
Heartbeat CPU 1 instructions: 1160000001 cycles: 596712938 heartbeat IPC: 0.3347 cumulative IPC: 1.871 (Simulation time: 04 hr 05 min 01 sec)
Heartbeat CPU 2 instructions: 300000001 cycles: 598580541 heartbeat IPC: 0.3838 cumulative IPC: 0.4237 (Simulation time: 04 hr 05 min 39 sec)
Heartbeat CPU 1 instructions: 1170000004 cycles: 601685572 heartbeat IPC: 2.011 cumulative IPC: 1.872 (Simulation time: 04 hr 06 min 45 sec)
Heartbeat CPU 1 instructions: 1180000001 cycles: 606074026 heartbeat IPC: 2.279 cumulative IPC: 1.875 (Simulation time: 04 hr 08 min 20 sec)
Heartbeat CPU 1 instructions: 1190000001 cycles: 610773117 heartbeat IPC: 2.128 cumulative IPC: 1.877 (Simulation time: 04 hr 10 min 01 sec)
Heartbeat CPU 1 instructions: 1200000001 cycles: 615084391 heartbeat IPC: 2.319 cumulative IPC: 1.88 (Simulation time: 04 hr 11 min 33 sec)
Heartbeat CPU 1 instructions: 1210000002 cycles: 619411985 heartbeat IPC: 2.311 cumulative IPC: 1.883 (Simulation time: 04 hr 13 min 07 sec)
Heartbeat CPU 2 instructions: 310000000 cycles: 621575593 heartbeat IPC: 0.4349 cumulative IPC: 0.4241 (Simulation time: 04 hr 13 min 55 sec)
Heartbeat CPU 1 instructions: 1220000003 cycles: 624097955 heartbeat IPC: 2.134 cumulative IPC: 1.885 (Simulation time: 04 hr 14 min 48 sec)
Heartbeat CPU 1 instructions: 1230000004 cycles: 628426815 heartbeat IPC: 2.31 cumulative IPC: 1.888 (Simulation time: 04 hr 16 min 26 sec)
Heartbeat CPU 1 instructions: 1240000002 cycles: 632800231 heartbeat IPC: 2.287 cumulative IPC: 1.891 (Simulation time: 04 hr 18 min 04 sec)
Heartbeat CPU 1 instructions: 1250000003 cycles: 637442090 heartbeat IPC: 2.154 cumulative IPC: 1.893 (Simulation time: 04 hr 19 min 45 sec)
Heartbeat CPU 1 instructions: 1260000000 cycles: 641759456 heartbeat IPC: 2.316 cumulative IPC: 1.896 (Simulation time: 04 hr 21 min 20 sec)
Heartbeat CPU 2 instructions: 320000001 cycles: 644590778 heartbeat IPC: 0.4345 cumulative IPC: 0.4245 (Simulation time: 04 hr 22 min 22 sec)
Heartbeat CPU 1 instructions: 1270000000 cycles: 646068707 heartbeat IPC: 2.321 cumulative IPC: 1.899 (Simulation time: 04 hr 22 min 55 sec)
Heartbeat CPU 1 instructions: 1280000001 cycles: 650391228 heartbeat IPC: 2.313 cumulative IPC: 1.902 (Simulation time: 04 hr 24 min 32 sec)
Heartbeat CPU 3 instructions: 140000002 cycles: 651094171 heartbeat IPC: 0.1208 cumulative IPC: 0.1243 (Simulation time: 04 hr 24 min 47 sec)
Heartbeat CPU 1 instructions: 1290000003 cycles: 655028566 heartbeat IPC: 2.156 cumulative IPC: 1.904 (Simulation time: 04 hr 26 min 13 sec)
Heartbeat CPU 1 instructions: 1300000001 cycles: 659460886 heartbeat IPC: 2.256 cumulative IPC: 1.906 (Simulation time: 04 hr 27 min 49 sec)
Heartbeat CPU 1 instructions: 1310000003 cycles: 664225651 heartbeat IPC: 2.099 cumulative IPC: 1.908 (Simulation time: 04 hr 29 min 34 sec)
Heartbeat CPU 2 instructions: 330000001 cycles: 668054385 heartbeat IPC: 0.4262 cumulative IPC: 0.4246 (Simulation time: 04 hr 30 min 59 sec)
Heartbeat CPU 1 instructions: 1320000003 cycles: 669026699 heartbeat IPC: 2.083 cumulative IPC: 1.909 (Simulation time: 04 hr 31 min 20 sec)
Heartbeat CPU 1 instructions: 1330000004 cycles: 673809482 heartbeat IPC: 2.091 cumulative IPC: 1.91 (Simulation time: 04 hr 33 min 04 sec)
Heartbeat CPU 1 instructions: 1340000000 cycles: 678645335 heartbeat IPC: 2.068 cumulative IPC: 1.911 (Simulation time: 04 hr 34 min 47 sec)
Heartbeat CPU 1 instructions: 1350000002 cycles: 683672573 heartbeat IPC: 1.989 cumulative IPC: 1.912 (Simulation time: 04 hr 36 min 35 sec)
Heartbeat CPU 1 instructions: 1360000003 cycles: 688517834 heartbeat IPC: 2.064 cumulative IPC: 1.913 (Simulation time: 04 hr 38 min 18 sec)
Heartbeat CPU 2 instructions: 340000003 cycles: 691884494 heartbeat IPC: 0.4196 cumulative IPC: 0.4244 (Simulation time: 04 hr 39 min 30 sec)
Heartbeat CPU 1 instructions: 1370000003 cycles: 693609380 heartbeat IPC: 1.964 cumulative IPC: 1.913 (Simulation time: 04 hr 40 min 07 sec)
Heartbeat CPU 1 instructions: 1380000002 cycles: 698694449 heartbeat IPC: 1.967 cumulative IPC: 1.914 (Simulation time: 04 hr 41 min 55 sec)
Heartbeat CPU 1 instructions: 1390000000 cycles: 703851966 heartbeat IPC: 1.939 cumulative IPC: 1.914 (Simulation time: 04 hr 43 min 45 sec)
Heartbeat CPU 1 instructions: 1400000003 cycles: 708622569 heartbeat IPC: 2.096 cumulative IPC: 1.915 (Simulation time: 04 hr 45 min 29 sec)
Heartbeat CPU 1 instructions: 1410000002 cycles: 713462253 heartbeat IPC: 2.066 cumulative IPC: 1.916 (Simulation time: 04 hr 47 min 13 sec)
Heartbeat CPU 2 instructions: 350000003 cycles: 714962002 heartbeat IPC: 0.4333 cumulative IPC: 0.4247 (Simulation time: 04 hr 47 min 46 sec)
Heartbeat CPU 1 instructions: 1420000003 cycles: 718548796 heartbeat IPC: 1.966 cumulative IPC: 1.917 (Simulation time: 04 hr 49 min 03 sec)
Heartbeat CPU 1 instructions: 1430000000 cycles: 723422826 heartbeat IPC: 2.052 cumulative IPC: 1.918 (Simulation time: 04 hr 50 min 48 sec)
Heartbeat CPU 1 instructions: 1440000000 cycles: 728454125 heartbeat IPC: 1.988 cumulative IPC: 1.918 (Simulation time: 04 hr 52 min 38 sec)
Heartbeat CPU 3 instructions: 150000001 cycles: 730936657 heartbeat IPC: 0.1252 cumulative IPC: 0.1244 (Simulation time: 04 hr 53 min 31 sec)
Heartbeat CPU 1 instructions: 1450000001 cycles: 733521767 heartbeat IPC: 1.973 cumulative IPC: 1.919 (Simulation time: 04 hr 54 min 26 sec)
Heartbeat CPU 0 instructions: 100000000 cycles: 736800012 heartbeat IPC: 0.06791 cumulative IPC: 0.06984 (Simulation time: 04 hr 55 min 38 sec)
Heartbeat CPU 1 instructions: 1460000004 cycles: 738388201 heartbeat IPC: 2.055 cumulative IPC: 1.919 (Simulation time: 04 hr 56 min 11 sec)
Heartbeat CPU 2 instructions: 360000004 cycles: 738872888 heartbeat IPC: 0.4182 cumulative IPC: 0.4245 (Simulation time: 04 hr 56 min 22 sec)
Heartbeat CPU 1 instructions: 1470000004 cycles: 743261584 heartbeat IPC: 2.052 cumulative IPC: 1.92 (Simulation time: 04 hr 57 min 54 sec)
Heartbeat CPU 1 instructions: 1480000001 cycles: 748223906 heartbeat IPC: 2.015 cumulative IPC: 1.921 (Simulation time: 04 hr 59 min 38 sec)
Heartbeat CPU 1 instructions: 1490000000 cycles: 753026121 heartbeat IPC: 2.082 cumulative IPC: 1.922 (Simulation time: 05 hr 01 min 20 sec)
Heartbeat CPU 1 instructions: 1500000003 cycles: 757861485 heartbeat IPC: 2.068 cumulative IPC: 1.923 (Simulation time: 05 hr 03 min 04 sec)
Heartbeat CPU 2 instructions: 370000001 cycles: 762085326 heartbeat IPC: 0.4308 cumulative IPC: 0.4247 (Simulation time: 05 hr 04 min 34 sec)
Heartbeat CPU 1 instructions: 1510000002 cycles: 762788762 heartbeat IPC: 2.03 cumulative IPC: 1.924 (Simulation time: 05 hr 04 min 49 sec)
Heartbeat CPU 1 instructions: 1520000003 cycles: 767720997 heartbeat IPC: 2.027 cumulative IPC: 1.924 (Simulation time: 05 hr 06 min 35 sec)
Heartbeat CPU 1 instructions: 1530000002 cycles: 772531353 heartbeat IPC: 2.079 cumulative IPC: 1.925 (Simulation time: 05 hr 08 min 17 sec)
Heartbeat CPU 1 instructions: 1540000002 cycles: 777346323 heartbeat IPC: 2.077 cumulative IPC: 1.926 (Simulation time: 05 hr 10 min 00 sec)
Heartbeat CPU 1 instructions: 1550000003 cycles: 782340663 heartbeat IPC: 2.002 cumulative IPC: 1.927 (Simulation time: 05 hr 11 min 45 sec)
Heartbeat CPU 2 instructions: 380000002 cycles: 785245514 heartbeat IPC: 0.4318 cumulative IPC: 0.4249 (Simulation time: 05 hr 12 min 50 sec)
Heartbeat CPU 1 instructions: 1560000000 cycles: 787147744 heartbeat IPC: 2.08 cumulative IPC: 1.928 (Simulation time: 05 hr 13 min 33 sec)
Heartbeat CPU 1 instructions: 1570000004 cycles: 791934565 heartbeat IPC: 2.089 cumulative IPC: 1.929 (Simulation time: 05 hr 15 min 15 sec)
Heartbeat CPU 1 instructions: 1580000000 cycles: 796723308 heartbeat IPC: 2.088 cumulative IPC: 1.93 (Simulation time: 05 hr 17 min 00 sec)
Heartbeat CPU 1 instructions: 1590000000 cycles: 801701805 heartbeat IPC: 2.009 cumulative IPC: 1.93 (Simulation time: 05 hr 18 min 48 sec)
Heartbeat CPU 1 instructions: 1600000003 cycles: 806588916 heartbeat IPC: 2.046 cumulative IPC: 1.931 (Simulation time: 05 hr 20 min 32 sec)
Heartbeat CPU 2 instructions: 390000003 cycles: 808770731 heartbeat IPC: 0.4251 cumulative IPC: 0.4249 (Simulation time: 05 hr 21 min 18 sec)
Heartbeat CPU 1 instructions: 1610000001 cycles: 811645729 heartbeat IPC: 1.978 cumulative IPC: 1.931 (Simulation time: 05 hr 22 min 22 sec)
Heartbeat CPU 3 instructions: 160000004 cycles: 811859994 heartbeat IPC: 0.1236 cumulative IPC: 0.1243 (Simulation time: 05 hr 22 min 26 sec)
Heartbeat CPU 1 instructions: 1620000000 cycles: 816425107 heartbeat IPC: 2.092 cumulative IPC: 1.932 (Simulation time: 05 hr 24 min 05 sec)
Heartbeat CPU 1 instructions: 1630000000 cycles: 821482618 heartbeat IPC: 1.977 cumulative IPC: 1.933 (Simulation time: 05 hr 25 min 55 sec)
Heartbeat CPU 1 instructions: 1640000001 cycles: 826332402 heartbeat IPC: 2.062 cumulative IPC: 1.933 (Simulation time: 05 hr 27 min 44 sec)
Heartbeat CPU 1 instructions: 1650000001 cycles: 831330217 heartbeat IPC: 2.001 cumulative IPC: 1.934 (Simulation time: 05 hr 29 min 32 sec)
Heartbeat CPU 2 instructions: 400000003 cycles: 832197555 heartbeat IPC: 0.4269 cumulative IPC: 0.425 (Simulation time: 05 hr 29 min 50 sec)
Heartbeat CPU 1 instructions: 1660000004 cycles: 836171074 heartbeat IPC: 2.066 cumulative IPC: 1.935 (Simulation time: 05 hr 31 min 15 sec)
Heartbeat CPU 1 instructions: 1670000004 cycles: 841095471 heartbeat IPC: 2.031 cumulative IPC: 1.935 (Simulation time: 05 hr 33 min 04 sec)
Heartbeat CPU 1 instructions: 1680000000 cycles: 846156136 heartbeat IPC: 1.976 cumulative IPC: 1.935 (Simulation time: 05 hr 34 min 53 sec)
Heartbeat CPU 1 instructions: 1690000003 cycles: 851169613 heartbeat IPC: 1.995 cumulative IPC: 1.936 (Simulation time: 05 hr 36 min 40 sec)
Heartbeat CPU 2 instructions: 410000000 cycles: 855620671 heartbeat IPC: 0.4269 cumulative IPC: 0.425 (Simulation time: 05 hr 38 min 15 sec)
Heartbeat CPU 1 instructions: 1700000002 cycles: 856093408 heartbeat IPC: 2.031 cumulative IPC: 1.936 (Simulation time: 05 hr 38 min 25 sec)
Heartbeat CPU 1 instructions: 1710000000 cycles: 861061665 heartbeat IPC: 2.013 cumulative IPC: 1.937 (Simulation time: 05 hr 40 min 16 sec)
Heartbeat CPU 1 instructions: 1720000002 cycles: 866174627 heartbeat IPC: 1.956 cumulative IPC: 1.937 (Simulation time: 05 hr 42 min 06 sec)
Heartbeat CPU 1 instructions: 1730000001 cycles: 870953130 heartbeat IPC: 2.093 cumulative IPC: 1.938 (Simulation time: 05 hr 43 min 48 sec)
Heartbeat CPU 1 instructions: 1740000002 cycles: 875653070 heartbeat IPC: 2.128 cumulative IPC: 1.939 (Simulation time: 05 hr 45 min 29 sec)
Heartbeat CPU 2 instructions: 420000000 cycles: 879121141 heartbeat IPC: 0.4255 cumulative IPC: 0.425 (Simulation time: 05 hr 46 min 45 sec)
Heartbeat CPU 0 instructions: 110000004 cycles: 879776536 heartbeat IPC: 0.06994 cumulative IPC: 0.06986 (Simulation time: 05 hr 47 min 00 sec)
Heartbeat CPU 1 instructions: 1750000001 cycles: 879944543 heartbeat IPC: 2.33 cumulative IPC: 1.941 (Simulation time: 05 hr 47 min 03 sec)
Heartbeat CPU 1 instructions: 1760000003 cycles: 884241870 heartbeat IPC: 2.327 cumulative IPC: 1.943 (Simulation time: 05 hr 48 min 36 sec)
Heartbeat CPU 1 instructions: 1770000001 cycles: 888830509 heartbeat IPC: 2.179 cumulative IPC: 1.944 (Simulation time: 05 hr 50 min 15 sec)
Heartbeat CPU 3 instructions: 170000004 cycles: 892138378 heartbeat IPC: 0.1246 cumulative IPC: 0.1244 (Simulation time: 05 hr 51 min 27 sec)
Heartbeat CPU 1 instructions: 1780000002 cycles: 893044032 heartbeat IPC: 2.373 cumulative IPC: 1.946 (Simulation time: 05 hr 51 min 46 sec)
Heartbeat CPU 1 instructions: 1790000004 cycles: 897315073 heartbeat IPC: 2.341 cumulative IPC: 1.948 (Simulation time: 05 hr 53 min 18 sec)
Heartbeat CPU 1 instructions: 1800000003 cycles: 901652386 heartbeat IPC: 2.306 cumulative IPC: 1.95 (Simulation time: 05 hr 54 min 51 sec)
Heartbeat CPU 2 instructions: 430000000 cycles: 902628211 heartbeat IPC: 0.4254 cumulative IPC: 0.425 (Simulation time: 05 hr 55 min 12 sec)
Heartbeat CPU 1 instructions: 1810000002 cycles: 906193503 heartbeat IPC: 2.202 cumulative IPC: 1.951 (Simulation time: 05 hr 56 min 28 sec)
Heartbeat CPU 1 instructions: 1820000002 cycles: 910452756 heartbeat IPC: 2.348 cumulative IPC: 1.953 (Simulation time: 05 hr 58 min 01 sec)
Heartbeat CPU 1 instructions: 1830000002 cycles: 915093580 heartbeat IPC: 2.155 cumulative IPC: 1.954 (Simulation time: 05 hr 59 min 40 sec)
Heartbeat CPU 1 instructions: 1840000001 cycles: 919402182 heartbeat IPC: 2.321 cumulative IPC: 1.956 (Simulation time: 06 hr 01 min 13 sec)
Heartbeat CPU 1 instructions: 1850000001 cycles: 923670711 heartbeat IPC: 2.343 cumulative IPC: 1.958 (Simulation time: 06 hr 02 min 46 sec)
Heartbeat CPU 2 instructions: 440000002 cycles: 925826054 heartbeat IPC: 0.4311 cumulative IPC: 0.4252 (Simulation time: 06 hr 03 min 33 sec)
Heartbeat CPU 1 instructions: 1860000001 cycles: 927936076 heartbeat IPC: 2.344 cumulative IPC: 1.959 (Simulation time: 06 hr 04 min 19 sec)
Heartbeat CPU 1 instructions: 1870000004 cycles: 932593150 heartbeat IPC: 2.147 cumulative IPC: 1.96 (Simulation time: 06 hr 05 min 58 sec)
Heartbeat CPU 1 instructions: 1880000003 cycles: 936888511 heartbeat IPC: 2.328 cumulative IPC: 1.962 (Simulation time: 06 hr 07 min 34 sec)
Heartbeat CPU 1 instructions: 1890000000 cycles: 941981056 heartbeat IPC: 1.964 cumulative IPC: 1.962 (Simulation time: 06 hr 09 min 23 sec)
Heartbeat CPU 1 instructions: 1900000000 cycles: 946362956 heartbeat IPC: 2.282 cumulative IPC: 1.964 (Simulation time: 06 hr 10 min 58 sec)
Heartbeat CPU 2 instructions: 450000002 cycles: 949184879 heartbeat IPC: 0.4281 cumulative IPC: 0.4253 (Simulation time: 06 hr 11 min 51 sec)
Heartbeat CPU 2 instructions: 460000001 cycles: 975460800 heartbeat IPC: 0.3806 cumulative IPC: 0.424 (Simulation time: 06 hr 20 min 04 sec)
Heartbeat CPU 3 instructions: 180000002 cycles: 976213793 heartbeat IPC: 0.1189 cumulative IPC: 0.1239 (Simulation time: 06 hr 20 min 19 sec)
Heartbeat CPU 1 instructions: 1910000002 cycles: 977372252 heartbeat IPC: 0.3225 cumulative IPC: 1.91 (Simulation time: 06 hr 20 min 43 sec)
Heartbeat CPU 1 instructions: 1920000001 cycles: 982054285 heartbeat IPC: 2.136 cumulative IPC: 1.911 (Simulation time: 06 hr 22 min 22 sec)
Heartbeat CPU 1 instructions: 1930000002 cycles: 986419326 heartbeat IPC: 2.291 cumulative IPC: 1.913 (Simulation time: 06 hr 23 min 56 sec)
Heartbeat CPU 1 instructions: 1940000002 cycles: 991066433 heartbeat IPC: 2.152 cumulative IPC: 1.914 (Simulation time: 06 hr 25 min 36 sec)
Heartbeat CPU 1 instructions: 1950000004 cycles: 995358112 heartbeat IPC: 2.33 cumulative IPC: 1.916 (Simulation time: 06 hr 27 min 07 sec)
Heartbeat CPU 2 instructions: 470000001 cycles: 998816922 heartbeat IPC: 0.4282 cumulative IPC: 0.4241 (Simulation time: 06 hr 28 min 21 sec)
Heartbeat CPU 1 instructions: 1960000000 cycles: 999626592 heartbeat IPC: 2.343 cumulative IPC: 1.918 (Simulation time: 06 hr 28 min 38 sec)
Heartbeat CPU 1 instructions: 1970000004 cycles: 1004176951 heartbeat IPC: 2.198 cumulative IPC: 1.919 (Simulation time: 06 hr 30 min 15 sec)
Heartbeat CPU 1 instructions: 1980000000 cycles: 1008462063 heartbeat IPC: 2.334 cumulative IPC: 1.921 (Simulation time: 06 hr 31 min 47 sec)
Heartbeat CPU 1 instructions: 1990000001 cycles: 1012719406 heartbeat IPC: 2.349 cumulative IPC: 1.923 (Simulation time: 06 hr 33 min 21 sec)
*** Reached end of trace: (1, "/home/das/dpc3_traces/603.bwaves_s-3699B.champsimtrace.xz")
Heartbeat CPU 1 instructions: 2000000001 cycles: 1017024356 heartbeat IPC: 2.323 cumulative IPC: 1.925 (Simulation time: 06 hr 34 min 54 sec)
Heartbeat CPU 1 instructions: 2010000004 cycles: 1021411894 heartbeat IPC: 2.279 cumulative IPC: 1.926 (Simulation time: 06 hr 36 min 27 sec)
Heartbeat CPU 2 instructions: 480000004 cycles: 1021944679 heartbeat IPC: 0.4324 cumulative IPC: 0.4243 (Simulation time: 06 hr 36 min 38 sec)
Heartbeat CPU 0 instructions: 120000004 cycles: 1025816142 heartbeat IPC: 0.06847 cumulative IPC: 0.06966 (Simulation time: 06 hr 37 min 56 sec)
Heartbeat CPU 1 instructions: 2020000004 cycles: 1037704782 heartbeat IPC: 0.6138 cumulative IPC: 1.905 (Simulation time: 06 hr 41 min 36 sec)
Heartbeat CPU 2 instructions: 490000003 cycles: 1047586706 heartbeat IPC: 0.39 cumulative IPC: 0.4235 (Simulation time: 06 hr 44 min 41 sec)
Heartbeat CPU 1 instructions: 2030000000 cycles: 1055875579 heartbeat IPC: 0.5503 cumulative IPC: 1.881 (Simulation time: 06 hr 47 min 19 sec)
Heartbeat CPU 1 instructions: 2040000001 cycles: 1060534020 heartbeat IPC: 2.147 cumulative IPC: 1.883 (Simulation time: 06 hr 48 min 57 sec)
Heartbeat CPU 3 instructions: 190000003 cycles: 1060850262 heartbeat IPC: 0.1182 cumulative IPC: 0.1234 (Simulation time: 06 hr 49 min 04 sec)
Heartbeat CPU 1 instructions: 2050000003 cycles: 1065172828 heartbeat IPC: 2.156 cumulative IPC: 1.884 (Simulation time: 06 hr 50 min 37 sec)
Heartbeat CPU 1 instructions: 2060000001 cycles: 1069538683 heartbeat IPC: 2.291 cumulative IPC: 1.885 (Simulation time: 06 hr 52 min 10 sec)
Heartbeat CPU 2 instructions: 500000001 cycles: 1071988659 heartbeat IPC: 0.4098 cumulative IPC: 0.4232 (Simulation time: 06 hr 53 min 01 sec)
Heartbeat CPU 1 instructions: 2070000003 cycles: 1074104046 heartbeat IPC: 2.19 cumulative IPC: 1.887 (Simulation time: 06 hr 53 min 46 sec)
Heartbeat CPU 1 instructions: 2080000002 cycles: 1078404718 heartbeat IPC: 2.325 cumulative IPC: 1.889 (Simulation time: 06 hr 55 min 17 sec)
Heartbeat CPU 1 instructions: 2090000000 cycles: 1082996238 heartbeat IPC: 2.178 cumulative IPC: 1.89 (Simulation time: 06 hr 56 min 53 sec)
Heartbeat CPU 1 instructions: 2100000003 cycles: 1087522271 heartbeat IPC: 2.209 cumulative IPC: 1.891 (Simulation time: 06 hr 58 min 29 sec)
Heartbeat CPU 1 instructions: 2110000000 cycles: 1092607541 heartbeat IPC: 1.966 cumulative IPC: 1.892 (Simulation time: 07 hr 00 min 14 sec)
Heartbeat CPU 2 instructions: 510000004 cycles: 1095241976 heartbeat IPC: 0.43 cumulative IPC: 0.4233 (Simulation time: 07 hr 01 min 10 sec)
Heartbeat CPU 1 instructions: 2120000000 cycles: 1097142290 heartbeat IPC: 2.205 cumulative IPC: 1.893 (Simulation time: 07 hr 01 min 50 sec)
Heartbeat CPU 1 instructions: 2130000004 cycles: 1102250949 heartbeat IPC: 1.957 cumulative IPC: 1.893 (Simulation time: 07 hr 03 min 35 sec)
Heartbeat CPU 1 instructions: 2140000001 cycles: 1107236760 heartbeat IPC: 2.006 cumulative IPC: 1.894 (Simulation time: 07 hr 05 min 20 sec)
Heartbeat CPU 1 instructions: 2150000001 cycles: 1112063781 heartbeat IPC: 2.072 cumulative IPC: 1.894 (Simulation time: 07 hr 07 min 01 sec)
Heartbeat CPU 1 instructions: 2160000000 cycles: 1117166204 heartbeat IPC: 1.96 cumulative IPC: 1.895 (Simulation time: 07 hr 08 min 49 sec)
Heartbeat CPU 2 instructions: 520000000 cycles: 1119170964 heartbeat IPC: 0.4179 cumulative IPC: 0.4232 (Simulation time: 07 hr 09 min 31 sec)
Heartbeat CPU 1 instructions: 2170000000 cycles: 1122082142 heartbeat IPC: 2.034 cumulative IPC: 1.895 (Simulation time: 07 hr 10 min 32 sec)
Heartbeat CPU 1 instructions: 2180000002 cycles: 1127290961 heartbeat IPC: 1.92 cumulative IPC: 1.896 (Simulation time: 07 hr 12 min 21 sec)
Heartbeat CPU 1 instructions: 2190000000 cycles: 1132196881 heartbeat IPC: 2.038 cumulative IPC: 1.896 (Simulation time: 07 hr 14 min 04 sec)
Heartbeat CPU 1 instructions: 2200000003 cycles: 1136971953 heartbeat IPC: 2.094 cumulative IPC: 1.897 (Simulation time: 07 hr 15 min 46 sec)
Heartbeat CPU 3 instructions: 200000000 cycles: 1140544740 heartbeat IPC: 0.1255 cumulative IPC: 0.1236 (Simulation time: 07 hr 17 min 02 sec)
Heartbeat CPU 1 instructions: 2210000000 cycles: 1142304883 heartbeat IPC: 1.875 cumulative IPC: 1.897 (Simulation time: 07 hr 17 min 39 sec)
Heartbeat CPU 2 instructions: 530000001 cycles: 1142656686 heartbeat IPC: 0.4258 cumulative IPC: 0.4232 (Simulation time: 07 hr 17 min 47 sec)
Heartbeat CPU 1 instructions: 2220000001 cycles: 1147971835 heartbeat IPC: 1.765 cumulative IPC: 1.896 (Simulation time: 07 hr 19 min 37 sec)
Heartbeat CPU 1 instructions: 2230000004 cycles: 1153235597 heartbeat IPC: 1.9 cumulative IPC: 1.896 (Simulation time: 07 hr 21 min 27 sec)
Heartbeat CPU 1 instructions: 2240000000 cycles: 1158575389 heartbeat IPC: 1.873 cumulative IPC: 1.896 (Simulation time: 07 hr 23 min 17 sec)
Heartbeat CPU 1 instructions: 2250000004 cycles: 1163638860 heartbeat IPC: 1.975 cumulative IPC: 1.896 (Simulation time: 07 hr 25 min 05 sec)
Heartbeat CPU 2 instructions: 540000000 cycles: 1166279856 heartbeat IPC: 0.4233 cumulative IPC: 0.4232 (Simulation time: 07 hr 26 min 01 sec)
Heartbeat CPU 1 instructions: 2260000000 cycles: 1168637950 heartbeat IPC: 2 cumulative IPC: 1.897 (Simulation time: 07 hr 26 min 51 sec)
Heartbeat CPU 1 instructions: 2270000002 cycles: 1173893266 heartbeat IPC: 1.903 cumulative IPC: 1.897 (Simulation time: 07 hr 28 min 41 sec)
Heartbeat CPU 0 instructions: 130000002 cycles: 1174633600 heartbeat IPC: 0.0672 cumulative IPC: 0.06934 (Simulation time: 07 hr 28 min 58 sec)
Heartbeat CPU 1 instructions: 2280000002 cycles: 1178867984 heartbeat IPC: 2.01 cumulative IPC: 1.897 (Simulation time: 07 hr 30 min 29 sec)
Heartbeat CPU 1 instructions: 2290000000 cycles: 1183851575 heartbeat IPC: 2.007 cumulative IPC: 1.898 (Simulation time: 07 hr 32 min 19 sec)
Heartbeat CPU 1 instructions: 2300000000 cycles: 1189117765 heartbeat IPC: 1.899 cumulative IPC: 1.898 (Simulation time: 07 hr 34 min 19 sec)
Heartbeat CPU 2 instructions: 550000000 cycles: 1189861495 heartbeat IPC: 0.4241 cumulative IPC: 0.4233 (Simulation time: 07 hr 34 min 35 sec)
Heartbeat CPU 1 instructions: 2310000002 cycles: 1194143764 heartbeat IPC: 1.99 cumulative IPC: 1.898 (Simulation time: 07 hr 36 min 11 sec)
Heartbeat CPU 1 instructions: 2320000001 cycles: 1199171563 heartbeat IPC: 1.989 cumulative IPC: 1.899 (Simulation time: 07 hr 38 min 09 sec)
Heartbeat CPU 1 instructions: 2330000003 cycles: 1204364613 heartbeat IPC: 1.926 cumulative IPC: 1.899 (Simulation time: 07 hr 40 min 04 sec)
Heartbeat CPU 1 instructions: 2340000000 cycles: 1209625504 heartbeat IPC: 1.901 cumulative IPC: 1.899 (Simulation time: 07 hr 42 min 03 sec)
Heartbeat CPU 2 instructions: 560000002 cycles: 1213438407 heartbeat IPC: 0.4241 cumulative IPC: 0.4233 (Simulation time: 07 hr 43 min 28 sec)
Heartbeat CPU 1 instructions: 2350000000 cycles: 1214835194 heartbeat IPC: 1.92 cumulative IPC: 1.899 (Simulation time: 07 hr 43 min 59 sec)
Heartbeat CPU 1 instructions: 2360000003 cycles: 1220561505 heartbeat IPC: 1.746 cumulative IPC: 1.898 (Simulation time: 07 hr 46 min 04 sec)
Heartbeat CPU 3 instructions: 210000000 cycles: 1222903352 heartbeat IPC: 0.1214 cumulative IPC: 0.1234 (Simulation time: 07 hr 46 min 56 sec)
Heartbeat CPU 1 instructions: 2370000001 cycles: 1225569516 heartbeat IPC: 1.997 cumulative IPC: 1.899 (Simulation time: 07 hr 47 min 58 sec)
Heartbeat CPU 1 instructions: 2380000001 cycles: 1230661980 heartbeat IPC: 1.964 cumulative IPC: 1.899 (Simulation time: 07 hr 49 min 51 sec)
Heartbeat CPU 1 instructions: 2390000004 cycles: 1235722988 heartbeat IPC: 1.976 cumulative IPC: 1.899 (Simulation time: 07 hr 51 min 41 sec)
Simulation finished CPU 3 instructions: 150000002 cycles: 1215536184 cumulative IPC: 0.1234 (Simulation time: 07 hr 51 min 56 sec)
Heartbeat CPU 2 instructions: 570000000 cycles: 1237164803 heartbeat IPC: 0.4215 cumulative IPC: 0.4232 (Simulation time: 07 hr 52 min 12 sec)
Heartbeat CPU 1 instructions: 2400000000 cycles: 1240713742 heartbeat IPC: 2.004 cumulative IPC: 1.9 (Simulation time: 07 hr 53 min 25 sec)
Heartbeat CPU 1 instructions: 2410000000 cycles: 1245578572 heartbeat IPC: 2.056 cumulative IPC: 1.9 (Simulation time: 07 hr 55 min 06 sec)
Heartbeat CPU 1 instructions: 2420000003 cycles: 1250286916 heartbeat IPC: 2.124 cumulative IPC: 1.901 (Simulation time: 07 hr 56 min 49 sec)
Heartbeat CPU 1 instructions: 2430000003 cycles: 1255439838 heartbeat IPC: 1.941 cumulative IPC: 1.901 (Simulation time: 07 hr 58 min 37 sec)
Heartbeat CPU 1 instructions: 2440000002 cycles: 1260403355 heartbeat IPC: 2.015 cumulative IPC: 1.902 (Simulation time: 08 hr 00 min 21 sec)
Heartbeat CPU 2 instructions: 580000000 cycles: 1260540421 heartbeat IPC: 0.4278 cumulative IPC: 0.4233 (Simulation time: 08 hr 00 min 24 sec)
Heartbeat CPU 1 instructions: 2450000002 cycles: 1265185499 heartbeat IPC: 2.091 cumulative IPC: 1.902 (Simulation time: 08 hr 02 min 03 sec)
Heartbeat CPU 1 instructions: 2460000001 cycles: 1270277772 heartbeat IPC: 1.964 cumulative IPC: 1.903 (Simulation time: 08 hr 04 min 30 sec)
Heartbeat CPU 1 instructions: 2470000001 cycles: 1274579497 heartbeat IPC: 2.325 cumulative IPC: 1.904 (Simulation time: 08 hr 07 min 00 sec)
Heartbeat CPU 1 instructions: 2480000004 cycles: 1279270170 heartbeat IPC: 2.132 cumulative IPC: 1.905 (Simulation time: 08 hr 09 min 47 sec)
Heartbeat CPU 1 instructions: 2490000001 cycles: 1283630740 heartbeat IPC: 2.293 cumulative IPC: 1.906 (Simulation time: 08 hr 12 min 29 sec)
Heartbeat CPU 2 instructions: 590000003 cycles: 1284012422 heartbeat IPC: 0.426 cumulative IPC: 0.4234 (Simulation time: 08 hr 12 min 42 sec)
Heartbeat CPU 1 instructions: 2500000000 cycles: 1288290503 heartbeat IPC: 2.146 cumulative IPC: 1.907 (Simulation time: 08 hr 15 min 20 sec)
Heartbeat CPU 1 instructions: 2510000003 cycles: 1292706557 heartbeat IPC: 2.264 cumulative IPC: 1.908 (Simulation time: 08 hr 18 min 01 sec)
Heartbeat CPU 1 instructions: 2520000004 cycles: 1297410174 heartbeat IPC: 2.126 cumulative IPC: 1.909 (Simulation time: 08 hr 20 min 49 sec)
Heartbeat CPU 3 instructions: 220000000 cycles: 1305032398 heartbeat IPC: 0.1218 cumulative IPC: 0.1233 (Simulation time: 08 hr 24 min 51 sec)
Heartbeat CPU 2 instructions: 600000004 cycles: 1308304054 heartbeat IPC: 0.4117 cumulative IPC: 0.4232 (Simulation time: 08 hr 26 min 24 sec)
Heartbeat CPU 1 instructions: 2530000001 cycles: 1317121742 heartbeat IPC: 0.5073 cumulative IPC: 1.888 (Simulation time: 08 hr 30 min 42 sec)
Heartbeat CPU 0 instructions: 140000001 cycles: 1321143842 heartbeat IPC: 0.06825 cumulative IPC: 0.06922 (Simulation time: 08 hr 32 min 36 sec)
Heartbeat CPU 1 instructions: 2540000003 cycles: 1332614576 heartbeat IPC: 0.6455 cumulative IPC: 1.873 (Simulation time: 08 hr 38 min 09 sec)
Heartbeat CPU 2 instructions: 610000004 cycles: 1333852244 heartbeat IPC: 0.3914 cumulative IPC: 0.4225 (Simulation time: 08 hr 38 min 51 sec)
Heartbeat CPU 1 instructions: 2550000000 cycles: 1336960345 heartbeat IPC: 2.301 cumulative IPC: 1.875 (Simulation time: 08 hr 40 min 31 sec)
Heartbeat CPU 1 instructions: 2560000001 cycles: 1341630018 heartbeat IPC: 2.141 cumulative IPC: 1.876 (Simulation time: 08 hr 43 min 03 sec)
Heartbeat CPU 1 instructions: 2570000000 cycles: 1345965434 heartbeat IPC: 2.307 cumulative IPC: 1.877 (Simulation time: 08 hr 45 min 38 sec)
Heartbeat CPU 1 instructions: 2580000001 cycles: 1350631837 heartbeat IPC: 2.143 cumulative IPC: 1.878 (Simulation time: 08 hr 48 min 07 sec)
Heartbeat CPU 1 instructions: 2590000001 cycles: 1354929416 heartbeat IPC: 2.327 cumulative IPC: 1.879 (Simulation time: 08 hr 50 min 24 sec)
Heartbeat CPU 2 instructions: 620000000 cycles: 1357426635 heartbeat IPC: 0.4242 cumulative IPC: 0.4226 (Simulation time: 08 hr 51 min 44 sec)
Heartbeat CPU 1 instructions: 2600000004 cycles: 1359234972 heartbeat IPC: 2.323 cumulative IPC: 1.881 (Simulation time: 08 hr 52 min 44 sec)
Heartbeat CPU 1 instructions: 2610000004 cycles: 1363770243 heartbeat IPC: 2.205 cumulative IPC: 1.882 (Simulation time: 08 hr 55 min 15 sec)
Heartbeat CPU 1 instructions: 2620000000 cycles: 1368291713 heartbeat IPC: 2.212 cumulative IPC: 1.883 (Simulation time: 08 hr 57 min 49 sec)
Heartbeat CPU 1 instructions: 2630000000 cycles: 1372948337 heartbeat IPC: 2.147 cumulative IPC: 1.884 (Simulation time: 09 hr 00 min 27 sec)
Heartbeat CPU 1 instructions: 2640000000 cycles: 1377341849 heartbeat IPC: 2.276 cumulative IPC: 1.885 (Simulation time: 09 hr 02 min 57 sec)
Heartbeat CPU 2 instructions: 630000003 cycles: 1380765150 heartbeat IPC: 0.4285 cumulative IPC: 0.4227 (Simulation time: 09 hr 04 min 49 sec)
Heartbeat CPU 1 instructions: 2650000004 cycles: 1382015890 heartbeat IPC: 2.139 cumulative IPC: 1.886 (Simulation time: 09 hr 05 min 32 sec)
Heartbeat CPU 1 instructions: 2660000000 cycles: 1386812257 heartbeat IPC: 2.085 cumulative IPC: 1.887 (Simulation time: 09 hr 08 min 08 sec)
Heartbeat CPU 3 instructions: 230000000 cycles: 1388826253 heartbeat IPC: 0.1193 cumulative IPC: 0.1231 (Simulation time: 09 hr 09 min 11 sec)
Heartbeat CPU 1 instructions: 2670000000 cycles: 1391633446 heartbeat IPC: 2.074 cumulative IPC: 1.887 (Simulation time: 09 hr 10 min 38 sec)
Heartbeat CPU 1 instructions: 2680000001 cycles: 1396667143 heartbeat IPC: 1.987 cumulative IPC: 1.888 (Simulation time: 09 hr 13 min 14 sec)
Heartbeat CPU 1 instructions: 2690000000 cycles: 1401470057 heartbeat IPC: 2.082 cumulative IPC: 1.888 (Simulation time: 09 hr 15 min 45 sec)
Heartbeat CPU 2 instructions: 640000004 cycles: 1403860573 heartbeat IPC: 0.433 cumulative IPC: 0.4228 (Simulation time: 09 hr 17 min 01 sec)
Heartbeat CPU 1 instructions: 2700000002 cycles: 1406497597 heartbeat IPC: 1.989 cumulative IPC: 1.889 (Simulation time: 09 hr 18 min 24 sec)
Heartbeat CPU 1 instructions: 2710000001 cycles: 1411343150 heartbeat IPC: 2.064 cumulative IPC: 1.889 (Simulation time: 09 hr 20 min 54 sec)
Heartbeat CPU 1 instructions: 2720000003 cycles: 1416333446 heartbeat IPC: 2.004 cumulative IPC: 1.89 (Simulation time: 09 hr 23 min 30 sec)
Heartbeat CPU 1 instructions: 2730000001 cycles: 1421164557 heartbeat IPC: 2.07 cumulative IPC: 1.89 (Simulation time: 09 hr 26 min 02 sec)
Heartbeat CPU 1 instructions: 2740000003 cycles: 1426196386 heartbeat IPC: 1.987 cumulative IPC: 1.891 (Simulation time: 09 hr 28 min 41 sec)
Heartbeat CPU 2 instructions: 650000000 cycles: 1427487749 heartbeat IPC: 0.4232 cumulative IPC: 0.4228 (Simulation time: 09 hr 29 min 22 sec)
Heartbeat CPU 1 instructions: 2750000000 cycles: 1431366799 heartbeat IPC: 1.934 cumulative IPC: 1.891 (Simulation time: 09 hr 31 min 22 sec)
Heartbeat CPU 1 instructions: 2760000000 cycles: 1436284124 heartbeat IPC: 2.034 cumulative IPC: 1.891 (Simulation time: 09 hr 33 min 56 sec)
Heartbeat CPU 1 instructions: 2770000001 cycles: 1441311415 heartbeat IPC: 1.989 cumulative IPC: 1.892 (Simulation time: 09 hr 36 min 33 sec)
Heartbeat CPU 1 instructions: 2780000001 cycles: 1446311281 heartbeat IPC: 2 cumulative IPC: 1.892 (Simulation time: 09 hr 39 min 12 sec)
Heartbeat CPU 2 instructions: 660000002 cycles: 1450513072 heartbeat IPC: 0.4343 cumulative IPC: 0.423 (Simulation time: 09 hr 41 min 27 sec)
Heartbeat CPU 1 instructions: 2790000001 cycles: 1451173263 heartbeat IPC: 2.057 cumulative IPC: 1.893 (Simulation time: 09 hr 41 min 49 sec)
Heartbeat CPU 1 instructions: 2800000000 cycles: 1456142124 heartbeat IPC: 2.013 cumulative IPC: 1.893 (Simulation time: 09 hr 44 min 28 sec)
Heartbeat CPU 1 instructions: 2810000004 cycles: 1461258574 heartbeat IPC: 1.954 cumulative IPC: 1.893 (Simulation time: 09 hr 47 min 07 sec)
Heartbeat CPU 1 instructions: 2820000002 cycles: 1466167779 heartbeat IPC: 2.037 cumulative IPC: 1.894 (Simulation time: 09 hr 49 min 42 sec)
Heartbeat CPU 0 instructions: 150000003 cycles: 1466619891 heartbeat IPC: 0.06874 cumulative IPC: 0.06917 (Simulation time: 09 hr 49 min 56 sec)
Heartbeat CPU 3 instructions: 240000003 cycles: 1469683533 heartbeat IPC: 0.1237 cumulative IPC: 0.1231 (Simulation time: 09 hr 51 min 32 sec)
Heartbeat CPU 1 instructions: 2830000003 cycles: 1471253699 heartbeat IPC: 1.966 cumulative IPC: 1.894 (Simulation time: 09 hr 52 min 21 sec)
Heartbeat CPU 2 instructions: 670000003 cycles: 1474001548 heartbeat IPC: 0.4257 cumulative IPC: 0.4231 (Simulation time: 09 hr 53 min 50 sec)
Heartbeat CPU 1 instructions: 2840000002 cycles: 1476269579 heartbeat IPC: 1.994 cumulative IPC: 1.894 (Simulation time: 09 hr 55 min 03 sec)
Heartbeat CPU 1 instructions: 2850000000 cycles: 1481210288 heartbeat IPC: 2.024 cumulative IPC: 1.895 (Simulation time: 09 hr 57 min 40 sec)
Heartbeat CPU 1 instructions: 2860000002 cycles: 1486196542 heartbeat IPC: 2.006 cumulative IPC: 1.895 (Simulation time: 10 hr 00 min 15 sec)
Heartbeat CPU 1 instructions: 2870000002 cycles: 1491171151 heartbeat IPC: 2.01 cumulative IPC: 1.896 (Simulation time: 10 hr 02 min 53 sec)
Heartbeat CPU 1 instructions: 2880000004 cycles: 1496126893 heartbeat IPC: 2.018 cumulative IPC: 1.896 (Simulation time: 10 hr 05 min 31 sec)
Heartbeat CPU 2 instructions: 680000002 cycles: 1497394364 heartbeat IPC: 0.4275 cumulative IPC: 0.4231 (Simulation time: 10 hr 06 min 11 sec)
Heartbeat CPU 1 instructions: 2890000003 cycles: 1501104083 heartbeat IPC: 2.009 cumulative IPC: 1.896 (Simulation time: 10 hr 08 min 09 sec)
Heartbeat CPU 1 instructions: 2900000001 cycles: 1506146732 heartbeat IPC: 1.983 cumulative IPC: 1.897 (Simulation time: 10 hr 10 min 46 sec)
Heartbeat CPU 1 instructions: 2910000002 cycles: 1511293230 heartbeat IPC: 1.943 cumulative IPC: 1.897 (Simulation time: 10 hr 13 min 26 sec)
Heartbeat CPU 1 instructions: 2920000000 cycles: 1516075445 heartbeat IPC: 2.091 cumulative IPC: 1.898 (Simulation time: 10 hr 16 min 02 sec)
Heartbeat CPU 2 instructions: 690000000 cycles: 1520680753 heartbeat IPC: 0.4294 cumulative IPC: 0.4232 (Simulation time: 10 hr 18 min 28 sec)
Heartbeat CPU 1 instructions: 2930000000 cycles: 1521032790 heartbeat IPC: 2.017 cumulative IPC: 1.898 (Simulation time: 10 hr 18 min 39 sec)
Heartbeat CPU 1 instructions: 2940000004 cycles: 1526288963 heartbeat IPC: 1.903 cumulative IPC: 1.898 (Simulation time: 10 hr 21 min 25 sec)
Heartbeat CPU 1 instructions: 2950000004 cycles: 1531270030 heartbeat IPC: 2.008 cumulative IPC: 1.898 (Simulation time: 10 hr 24 min 04 sec)
Heartbeat CPU 1 instructions: 2960000002 cycles: 1536314791 heartbeat IPC: 1.982 cumulative IPC: 1.899 (Simulation time: 10 hr 26 min 44 sec)
Heartbeat CPU 1 instructions: 2970000000 cycles: 1541098882 heartbeat IPC: 2.09 cumulative IPC: 1.899 (Simulation time: 10 hr 29 min 15 sec)
Heartbeat CPU 2 instructions: 700000003 cycles: 1544197197 heartbeat IPC: 0.4252 cumulative IPC: 0.4233 (Simulation time: 10 hr 30 min 51 sec)
Heartbeat CPU 1 instructions: 2980000004 cycles: 1546117843 heartbeat IPC: 1.992 cumulative IPC: 1.9 (Simulation time: 10 hr 31 min 51 sec)
Heartbeat CPU 3 instructions: 250000000 cycles: 1549327915 heartbeat IPC: 0.1256 cumulative IPC: 0.1232 (Simulation time: 10 hr 33 min 34 sec)
Heartbeat CPU 1 instructions: 2990000003 cycles: 1551162607 heartbeat IPC: 1.982 cumulative IPC: 1.9 (Simulation time: 10 hr 34 min 32 sec)
Heartbeat CPU 1 instructions: 3000000003 cycles: 1556111012 heartbeat IPC: 2.021 cumulative IPC: 1.9 (Simulation time: 10 hr 37 min 07 sec)
Heartbeat CPU 1 instructions: 3010000004 cycles: 1561239289 heartbeat IPC: 1.95 cumulative IPC: 1.9 (Simulation time: 10 hr 39 min 48 sec)
Heartbeat CPU 1 instructions: 3020000001 cycles: 1565994085 heartbeat IPC: 2.103 cumulative IPC: 1.901 (Simulation time: 10 hr 42 min 20 sec)
Heartbeat CPU 2 instructions: 710000002 cycles: 1567711487 heartbeat IPC: 0.4253 cumulative IPC: 0.4233 (Simulation time: 10 hr 43 min 14 sec)
Heartbeat CPU 1 instructions: 3030000003 cycles: 1570768982 heartbeat IPC: 2.094 cumulative IPC: 1.902 (Simulation time: 10 hr 44 min 57 sec)
Heartbeat CPU 1 instructions: 3040000000 cycles: 1575496278 heartbeat IPC: 2.115 cumulative IPC: 1.902 (Simulation time: 10 hr 47 min 53 sec)
Heartbeat CPU 1 instructions: 3050000000 cycles: 1579855568 heartbeat IPC: 2.294 cumulative IPC: 1.903 (Simulation time: 10 hr 50 min 34 sec)
Heartbeat CPU 1 instructions: 3060000000 cycles: 1584181684 heartbeat IPC: 2.312 cumulative IPC: 1.904 (Simulation time: 10 hr 53 min 14 sec)
Heartbeat CPU 1 instructions: 3070000004 cycles: 1588810705 heartbeat IPC: 2.16 cumulative IPC: 1.905 (Simulation time: 10 hr 56 min 11 sec)
Heartbeat CPU 2 instructions: 720000002 cycles: 1590457127 heartbeat IPC: 0.4396 cumulative IPC: 0.4235 (Simulation time: 10 hr 57 min 13 sec)
Heartbeat CPU 1 instructions: 3080000004 cycles: 1593489283 heartbeat IPC: 2.137 cumulative IPC: 1.906 (Simulation time: 10 hr 59 min 03 sec)
Heartbeat CPU 1 instructions: 3090000004 cycles: 1597872262 heartbeat IPC: 2.282 cumulative IPC: 1.907 (Simulation time: 11 hr 01 min 43 sec)
Heartbeat CPU 1 instructions: 3100000004 cycles: 1602248669 heartbeat IPC: 2.285 cumulative IPC: 1.908 (Simulation time: 11 hr 04 min 30 sec)
Heartbeat CPU 1 instructions: 3110000000 cycles: 1606924420 heartbeat IPC: 2.139 cumulative IPC: 1.909 (Simulation time: 11 hr 07 min 40 sec)
Heartbeat CPU 0 instructions: 160000002 cycles: 1610915574 heartbeat IPC: 0.0693 cumulative IPC: 0.06918 (Simulation time: 11 hr 10 min 04 sec)
Heartbeat CPU 1 instructions: 3120000003 cycles: 1611247198 heartbeat IPC: 2.313 cumulative IPC: 1.91 (Simulation time: 11 hr 10 min 18 sec)
Heartbeat CPU 2 instructions: 730000003 cycles: 1613809208 heartbeat IPC: 0.4282 cumulative IPC: 0.4236 (Simulation time: 11 hr 11 min 57 sec)
Heartbeat CPU 1 instructions: 3130000002 cycles: 1615947435 heartbeat IPC: 2.128 cumulative IPC: 1.91 (Simulation time: 11 hr 13 min 10 sec)
Heartbeat CPU 1 instructions: 3140000001 cycles: 1620706969 heartbeat IPC: 2.101 cumulative IPC: 1.911 (Simulation time: 11 hr 16 min 30 sec)
Heartbeat CPU 1 instructions: 3150000002 cycles: 1625019246 heartbeat IPC: 2.319 cumulative IPC: 1.912 (Simulation time: 11 hr 19 min 12 sec)
Heartbeat CPU 3 instructions: 260000003 cycles: 1628645625 heartbeat IPC: 0.1261 cumulative IPC: 0.1234 (Simulation time: 11 hr 21 min 19 sec)
Heartbeat CPU 2 instructions: 740000004 cycles: 1638678888 heartbeat IPC: 0.4021 cumulative IPC: 0.4233 (Simulation time: 11 hr 26 min 50 sec)
Heartbeat CPU 1 instructions: 3160000000 cycles: 1655267218 heartbeat IPC: 0.3306 cumulative IPC: 1.883 (Simulation time: 11 hr 36 min 32 sec)
Heartbeat CPU 1 instructions: 3170000000 cycles: 1660232809 heartbeat IPC: 2.014 cumulative IPC: 1.883 (Simulation time: 11 hr 39 min 38 sec)
Heartbeat CPU 2 instructions: 750000002 cycles: 1663531263 heartbeat IPC: 0.4024 cumulative IPC: 0.423 (Simulation time: 11 hr 41 min 46 sec)
Heartbeat CPU 1 instructions: 3180000000 cycles: 1664536922 heartbeat IPC: 2.323 cumulative IPC: 1.884 (Simulation time: 11 hr 42 min 22 sec)
Heartbeat CPU 1 instructions: 3190000000 cycles: 1669190241 heartbeat IPC: 2.149 cumulative IPC: 1.885 (Simulation time: 11 hr 44 min 58 sec)
Heartbeat CPU 1 instructions: 3200000000 cycles: 1673497917 heartbeat IPC: 2.321 cumulative IPC: 1.886 (Simulation time: 11 hr 47 min 25 sec)
Heartbeat CPU 1 instructions: 3210000001 cycles: 1677820930 heartbeat IPC: 2.313 cumulative IPC: 1.887 (Simulation time: 11 hr 49 min 34 sec)
Heartbeat CPU 1 instructions: 3220000002 cycles: 1682379755 heartbeat IPC: 2.194 cumulative IPC: 1.888 (Simulation time: 11 hr 51 min 49 sec)
Heartbeat CPU 2 instructions: 760000004 cycles: 1686380081 heartbeat IPC: 0.4377 cumulative IPC: 0.4232 (Simulation time: 11 hr 53 min 50 sec)
Heartbeat CPU 1 instructions: 3230000001 cycles: 1686696182 heartbeat IPC: 2.317 cumulative IPC: 1.889 (Simulation time: 11 hr 53 min 59 sec)
Heartbeat CPU 1 instructions: 3240000001 cycles: 1691060551 heartbeat IPC: 2.291 cumulative IPC: 1.89 (Simulation time: 11 hr 56 min 08 sec)
Heartbeat CPU 1 instructions: 3250000002 cycles: 1695662138 heartbeat IPC: 2.173 cumulative IPC: 1.891 (Simulation time: 11 hr 58 min 28 sec)
Heartbeat CPU 1 instructions: 3260000004 cycles: 1699969533 heartbeat IPC: 2.322 cumulative IPC: 1.892 (Simulation time: 12 hr 00 min 36 sec)
Heartbeat CPU 1 instructions: 3270000004 cycles: 1704237408 heartbeat IPC: 2.343 cumulative IPC: 1.893 (Simulation time: 12 hr 02 min 49 sec)
Heartbeat CPU 1 instructions: 3280000000 cycles: 1708590399 heartbeat IPC: 2.297 cumulative IPC: 1.894 (Simulation time: 12 hr 04 min 59 sec)
Heartbeat CPU 2 instructions: 770000003 cycles: 1709529008 heartbeat IPC: 0.432 cumulative IPC: 0.4233 (Simulation time: 12 hr 05 min 29 sec)
Heartbeat CPU 3 instructions: 270000002 cycles: 1711642414 heartbeat IPC: 0.1205 cumulative IPC: 0.1232 (Simulation time: 12 hr 06 min 33 sec)
Heartbeat CPU 1 instructions: 3290000002 cycles: 1713239262 heartbeat IPC: 2.151 cumulative IPC: 1.895 (Simulation time: 12 hr 07 min 21 sec)
Heartbeat CPU 1 instructions: 3300000000 cycles: 1717668849 heartbeat IPC: 2.258 cumulative IPC: 1.896 (Simulation time: 12 hr 09 min 35 sec)
Heartbeat CPU 1 instructions: 3310000002 cycles: 1722465790 heartbeat IPC: 2.085 cumulative IPC: 1.897 (Simulation time: 12 hr 11 min 58 sec)
Heartbeat CPU 1 instructions: 3320000003 cycles: 1727277569 heartbeat IPC: 2.078 cumulative IPC: 1.897 (Simulation time: 12 hr 14 min 23 sec)
Heartbeat CPU 1 instructions: 3330000004 cycles: 1732017006 heartbeat IPC: 2.11 cumulative IPC: 1.898 (Simulation time: 12 hr 16 min 47 sec)
Heartbeat CPU 2 instructions: 780000002 cycles: 1732325186 heartbeat IPC: 0.4387 cumulative IPC: 0.4235 (Simulation time: 12 hr 16 min 56 sec)
Heartbeat CPU 1 instructions: 3340000004 cycles: 1736817278 heartbeat IPC: 2.083 cumulative IPC: 1.898 (Simulation time: 12 hr 19 min 11 sec)
Heartbeat CPU 1 instructions: 3350000001 cycles: 1741908814 heartbeat IPC: 1.964 cumulative IPC: 1.898 (Simulation time: 12 hr 21 min 40 sec)
Heartbeat CPU 1 instructions: 3360000002 cycles: 1746748693 heartbeat IPC: 2.066 cumulative IPC: 1.899 (Simulation time: 12 hr 24 min 05 sec)
Heartbeat CPU 1 instructions: 3370000002 cycles: 1751833728 heartbeat IPC: 1.967 cumulative IPC: 1.899 (Simulation time: 12 hr 26 min 35 sec)
Heartbeat CPU 0 instructions: 170000001 cycles: 1754863558 heartbeat IPC: 0.06947 cumulative IPC: 0.0692 (Simulation time: 12 hr 28 min 06 sec)
Heartbeat CPU 2 instructions: 790000002 cycles: 1755707304 heartbeat IPC: 0.4277 cumulative IPC: 0.4235 (Simulation time: 12 hr 28 min 32 sec)
Heartbeat CPU 1 instructions: 3380000001 cycles: 1756814186 heartbeat IPC: 2.008 cumulative IPC: 1.899 (Simulation time: 12 hr 29 min 05 sec)
Heartbeat CPU 1 instructions: 3390000004 cycles: 1761851300 heartbeat IPC: 1.985 cumulative IPC: 1.9 (Simulation time: 12 hr 31 min 37 sec)
Heartbeat CPU 1 instructions: 3400000002 cycles: 1766660171 heartbeat IPC: 2.079 cumulative IPC: 1.9 (Simulation time: 12 hr 34 min 03 sec)
Heartbeat CPU 1 instructions: 3410000001 cycles: 1771539389 heartbeat IPC: 2.05 cumulative IPC: 1.901 (Simulation time: 12 hr 36 min 29 sec)
Heartbeat CPU 1 instructions: 3420000000 cycles: 1776569115 heartbeat IPC: 1.988 cumulative IPC: 1.901 (Simulation time: 12 hr 38 min 59 sec)
Heartbeat CPU 2 instructions: 800000000 cycles: 1779863056 heartbeat IPC: 0.414 cumulative IPC: 0.4234 (Simulation time: 12 hr 40 min 35 sec)
Heartbeat CPU 1 instructions: 3430000002 cycles: 1781360371 heartbeat IPC: 2.087 cumulative IPC: 1.901 (Simulation time: 12 hr 41 min 21 sec)
Heartbeat CPU 1 instructions: 3440000001 cycles: 1786363819 heartbeat IPC: 1.999 cumulative IPC: 1.902 (Simulation time: 12 hr 43 min 52 sec)
Heartbeat CPU 3 instructions: 280000000 cycles: 1789667452 heartbeat IPC: 0.1282 cumulative IPC: 0.1234 (Simulation time: 12 hr 45 min 32 sec)
Heartbeat CPU 1 instructions: 3450000000 cycles: 1791313926 heartbeat IPC: 2.02 cumulative IPC: 1.902 (Simulation time: 12 hr 46 min 19 sec)
Heartbeat CPU 1 instructions: 3460000003 cycles: 1796070339 heartbeat IPC: 2.102 cumulative IPC: 1.902 (Simulation time: 12 hr 48 min 39 sec)
Heartbeat CPU 1 instructions: 3470000003 cycles: 1800906244 heartbeat IPC: 2.068 cumulative IPC: 1.903 (Simulation time: 12 hr 51 min 03 sec)
Heartbeat CPU 2 instructions: 810000003 cycles: 1802561353 heartbeat IPC: 0.4406 cumulative IPC: 0.4236 (Simulation time: 12 hr 51 min 53 sec)
Heartbeat CPU 1 instructions: 3480000000 cycles: 1805919406 heartbeat IPC: 1.995 cumulative IPC: 1.903 (Simulation time: 12 hr 53 min 35 sec)
Heartbeat CPU 1 instructions: 3490000003 cycles: 1810697548 heartbeat IPC: 2.093 cumulative IPC: 1.904 (Simulation time: 12 hr 56 min 01 sec)
Heartbeat CPU 1 instructions: 3500000002 cycles: 1815476155 heartbeat IPC: 2.093 cumulative IPC: 1.904 (Simulation time: 12 hr 58 min 32 sec)
Heartbeat CPU 1 instructions: 3510000001 cycles: 1820401464 heartbeat IPC: 2.03 cumulative IPC: 1.905 (Simulation time: 13 hr 01 min 05 sec)
Heartbeat CPU 1 instructions: 3520000000 cycles: 1825295778 heartbeat IPC: 2.043 cumulative IPC: 1.905 (Simulation time: 13 hr 03 min 30 sec)
Heartbeat CPU 2 instructions: 820000002 cycles: 1826117785 heartbeat IPC: 0.4245 cumulative IPC: 0.4236 (Simulation time: 13 hr 03 min 55 sec)
Heartbeat CPU 1 instructions: 3530000000 cycles: 1830069193 heartbeat IPC: 2.095 cumulative IPC: 1.905 (Simulation time: 13 hr 05 min 51 sec)
Heartbeat CPU 1 instructions: 3540000001 cycles: 1834881886 heartbeat IPC: 2.078 cumulative IPC: 1.906 (Simulation time: 13 hr 08 min 22 sec)
Heartbeat CPU 1 instructions: 3550000002 cycles: 1839819721 heartbeat IPC: 2.025 cumulative IPC: 1.906 (Simulation time: 13 hr 10 min 50 sec)
Heartbeat CPU 1 instructions: 3560000001 cycles: 1844661598 heartbeat IPC: 2.065 cumulative IPC: 1.907 (Simulation time: 13 hr 13 min 14 sec)
Heartbeat CPU 1 instructions: 3570000004 cycles: 1849434347 heartbeat IPC: 2.095 cumulative IPC: 1.907 (Simulation time: 13 hr 15 min 44 sec)
Heartbeat CPU 2 instructions: 830000003 cycles: 1849520311 heartbeat IPC: 0.4273 cumulative IPC: 0.4237 (Simulation time: 13 hr 15 min 47 sec)
Heartbeat CPU 1 instructions: 3580000004 cycles: 1854196959 heartbeat IPC: 2.1 cumulative IPC: 1.908 (Simulation time: 13 hr 18 min 09 sec)
Heartbeat CPU 1 instructions: 3590000003 cycles: 1859075479 heartbeat IPC: 2.05 cumulative IPC: 1.908 (Simulation time: 13 hr 20 min 36 sec)
Heartbeat CPU 1 instructions: 3600000002 cycles: 1863933527 heartbeat IPC: 2.058 cumulative IPC: 1.908 (Simulation time: 13 hr 23 min 00 sec)
Heartbeat CPU 3 instructions: 290000001 cycles: 1868454863 heartbeat IPC: 0.1269 cumulative IPC: 0.1236 (Simulation time: 13 hr 25 min 23 sec)
Heartbeat CPU 1 instructions: 3610000001 cycles: 1868978942 heartbeat IPC: 1.982 cumulative IPC: 1.909 (Simulation time: 13 hr 25 min 39 sec)
Heartbeat CPU 2 instructions: 840000000 cycles: 1872510337 heartbeat IPC: 0.435 cumulative IPC: 0.4238 (Simulation time: 13 hr 27 min 24 sec)
Heartbeat CPU 1 instructions: 3620000004 cycles: 1873791964 heartbeat IPC: 2.078 cumulative IPC: 1.909 (Simulation time: 13 hr 28 min 03 sec)
Heartbeat CPU 1 instructions: 3630000001 cycles: 1878808661 heartbeat IPC: 1.993 cumulative IPC: 1.909 (Simulation time: 13 hr 30 min 35 sec)
Heartbeat CPU 1 instructions: 3640000004 cycles: 1883586939 heartbeat IPC: 2.093 cumulative IPC: 1.91 (Simulation time: 13 hr 33 min 01 sec)
Heartbeat CPU 1 instructions: 3650000000 cycles: 1888604304 heartbeat IPC: 1.993 cumulative IPC: 1.91 (Simulation time: 13 hr 35 min 27 sec)
Heartbeat CPU 1 instructions: 3660000003 cycles: 1893474184 heartbeat IPC: 2.053 cumulative IPC: 1.91 (Simulation time: 13 hr 37 min 56 sec)
Heartbeat CPU 2 instructions: 850000003 cycles: 1896009667 heartbeat IPC: 0.4255 cumulative IPC: 0.4239 (Simulation time: 13 hr 39 min 36 sec)
Heartbeat CPU 0 instructions: 180000001 cycles: 1896631305 heartbeat IPC: 0.07054 cumulative IPC: 0.06931 (Simulation time: 13 hr 40 min 01 sec)
Heartbeat CPU 1 instructions: 3670000003 cycles: 1898524550 heartbeat IPC: 1.98 cumulative IPC: 1.91 (Simulation time: 13 hr 41 min 16 sec)
Heartbeat CPU 1 instructions: 3680000000 cycles: 1903622927 heartbeat IPC: 1.961 cumulative IPC: 1.911 (Simulation time: 13 hr 44 min 55 sec)
Heartbeat CPU 1 instructions: 3690000002 cycles: 1908663271 heartbeat IPC: 1.984 cumulative IPC: 1.911 (Simulation time: 13 hr 48 min 12 sec)
Heartbeat CPU 1 instructions: 3700000001 cycles: 1913524472 heartbeat IPC: 2.057 cumulative IPC: 1.911 (Simulation time: 13 hr 51 min 21 sec)
Heartbeat CPU 1 instructions: 3710000002 cycles: 1918408905 heartbeat IPC: 2.047 cumulative IPC: 1.912 (Simulation time: 13 hr 53 min 56 sec)
Heartbeat CPU 2 instructions: 860000002 cycles: 1919473737 heartbeat IPC: 0.4262 cumulative IPC: 0.4239 (Simulation time: 13 hr 54 min 30 sec)
Heartbeat CPU 1 instructions: 3720000001 cycles: 1923366843 heartbeat IPC: 2.017 cumulative IPC: 1.912 (Simulation time: 13 hr 56 min 51 sec)
Heartbeat CPU 1 instructions: 3730000000 cycles: 1928128539 heartbeat IPC: 2.1 cumulative IPC: 1.912 (Simulation time: 14 hr 00 min 06 sec)
Heartbeat CPU 1 instructions: 3740000001 cycles: 1932844753 heartbeat IPC: 2.12 cumulative IPC: 1.913 (Simulation time: 14 hr 03 min 20 sec)
Heartbeat CPU 1 instructions: 3750000000 cycles: 1937152110 heartbeat IPC: 2.322 cumulative IPC: 1.914 (Simulation time: 14 hr 05 min 46 sec)
Heartbeat CPU 1 instructions: 3760000002 cycles: 1941527738 heartbeat IPC: 2.285 cumulative IPC: 1.915 (Simulation time: 14 hr 08 min 19 sec)
Heartbeat CPU 2 instructions: 870000003 cycles: 1942462120 heartbeat IPC: 0.435 cumulative IPC: 0.424 (Simulation time: 14 hr 08 min 52 sec)
Heartbeat CPU 1 instructions: 3770000000 cycles: 1946150821 heartbeat IPC: 2.163 cumulative IPC: 1.915 (Simulation time: 14 hr 10 min 48 sec)
Heartbeat CPU 3 instructions: 300000000 cycles: 1947966010 heartbeat IPC: 0.1258 cumulative IPC: 0.1237 (Simulation time: 14 hr 11 min 52 sec)
Heartbeat CPU 1 instructions: 3780000000 cycles: 1950443611 heartbeat IPC: 2.329 cumulative IPC: 1.916 (Simulation time: 14 hr 13 min 17 sec)
Heartbeat CPU 1 instructions: 3790000001 cycles: 1954763563 heartbeat IPC: 2.315 cumulative IPC: 1.917 (Simulation time: 14 hr 15 min 31 sec)
Heartbeat CPU 1 instructions: 3800000002 cycles: 1959087695 heartbeat IPC: 2.313 cumulative IPC: 1.918 (Simulation time: 14 hr 17 min 46 sec)
Heartbeat CPU 1 instructions: 3810000001 cycles: 1963682272 heartbeat IPC: 2.176 cumulative IPC: 1.918 (Simulation time: 14 hr 20 min 17 sec)
Heartbeat CPU 2 instructions: 880000000 cycles: 1965463419 heartbeat IPC: 0.4348 cumulative IPC: 0.4241 (Simulation time: 14 hr 21 min 13 sec)
Heartbeat CPU 1 instructions: 3820000001 cycles: 1968010169 heartbeat IPC: 2.311 cumulative IPC: 1.919 (Simulation time: 14 hr 22 min 50 sec)
Heartbeat CPU 1 instructions: 3830000000 cycles: 1972612579 heartbeat IPC: 2.173 cumulative IPC: 1.92 (Simulation time: 14 hr 25 min 15 sec)
Heartbeat CPU 1 instructions: 3840000000 cycles: 1976928749 heartbeat IPC: 2.317 cumulative IPC: 1.921 (Simulation time: 14 hr 27 min 45 sec)
Heartbeat CPU 1 instructions: 3850000000 cycles: 1981240939 heartbeat IPC: 2.319 cumulative IPC: 1.922 (Simulation time: 14 hr 30 min 07 sec)
Heartbeat CPU 1 instructions: 3860000000 cycles: 1985523809 heartbeat IPC: 2.335 cumulative IPC: 1.923 (Simulation time: 14 hr 32 min 24 sec)
Heartbeat CPU 2 instructions: 890000002 cycles: 1988240806 heartbeat IPC: 0.439 cumulative IPC: 0.4243 (Simulation time: 14 hr 33 min 47 sec)
Heartbeat CPU 1 instructions: 3870000003 cycles: 1990126537 heartbeat IPC: 2.173 cumulative IPC: 1.923 (Simulation time: 14 hr 34 min 43 sec)
Heartbeat CPU 1 instructions: 3880000002 cycles: 1994459106 heartbeat IPC: 2.308 cumulative IPC: 1.924 (Simulation time: 14 hr 36 min 57 sec)
Heartbeat CPU 1 instructions: 3890000004 cycles: 1999486595 heartbeat IPC: 1.989 cumulative IPC: 1.924 (Simulation time: 14 hr 39 min 31 sec)
Heartbeat CPU 1 instructions: 3900000001 cycles: 2003787601 heartbeat IPC: 2.325 cumulative IPC: 1.925 (Simulation time: 14 hr 41 min 43 sec)
Heartbeat CPU 2 instructions: 900000000 cycles: 2012946592 heartbeat IPC: 0.4048 cumulative IPC: 0.4241 (Simulation time: 14 hr 45 min 50 sec)
Heartbeat CPU 3 instructions: 310000002 cycles: 2031585806 heartbeat IPC: 0.1196 cumulative IPC: 0.1235 (Simulation time: 14 hr 54 min 10 sec)
Heartbeat CPU 1 instructions: 3910000001 cycles: 2034943674 heartbeat IPC: 0.321 cumulative IPC: 1.9 (Simulation time: 14 hr 55 min 47 sec)
Heartbeat CPU 2 instructions: 910000002 cycles: 2039004901 heartbeat IPC: 0.3838 cumulative IPC: 0.4236 (Simulation time: 14 hr 57 min 50 sec)
Heartbeat CPU 1 instructions: 3920000000 cycles: 2039610404 heartbeat IPC: 2.143 cumulative IPC: 1.901 (Simulation time: 14 hr 58 min 12 sec)
Heartbeat CPU 0 instructions: 190000003 cycles: 2042180879 heartbeat IPC: 0.06871 cumulative IPC: 0.06926 (Simulation time: 14 hr 59 min 31 sec)
Heartbeat CPU 1 instructions: 3930000001 cycles: 2043900895 heartbeat IPC: 2.331 cumulative IPC: 1.902 (Simulation time: 15 hr 00 min 27 sec)
Heartbeat CPU 1 instructions: 3940000002 cycles: 2048525587 heartbeat IPC: 2.162 cumulative IPC: 1.902 (Simulation time: 15 hr 03 min 21 sec)
Heartbeat CPU 1 instructions: 3950000003 cycles: 2052855057 heartbeat IPC: 2.31 cumulative IPC: 1.903 (Simulation time: 15 hr 06 min 12 sec)
Heartbeat CPU 1 instructions: 3960000004 cycles: 2057172853 heartbeat IPC: 2.316 cumulative IPC: 1.904 (Simulation time: 15 hr 09 min 01 sec)
Heartbeat CPU 2 instructions: 920000004 cycles: 2061534505 heartbeat IPC: 0.4439 cumulative IPC: 0.4238 (Simulation time: 15 hr 11 min 50 sec)
Heartbeat CPU 1 instructions: 3970000003 cycles: 2061827710 heartbeat IPC: 2.148 cumulative IPC: 1.905 (Simulation time: 15 hr 12 min 00 sec)
Heartbeat CPU 1 instructions: 3980000004 cycles: 2066152414 heartbeat IPC: 2.312 cumulative IPC: 1.905 (Simulation time: 15 hr 14 min 48 sec)
Heartbeat CPU 1 instructions: 3990000001 cycles: 2070486707 heartbeat IPC: 2.307 cumulative IPC: 1.906 (Simulation time: 15 hr 17 min 38 sec)
*** Reached end of trace: (1, "/home/das/dpc3_traces/603.bwaves_s-3699B.champsimtrace.xz")
Heartbeat CPU 1 instructions: 4000000000 cycles: 2074807174 heartbeat IPC: 2.315 cumulative IPC: 1.907 (Simulation time: 15 hr 20 min 17 sec)
Heartbeat CPU 1 instructions: 4010000003 cycles: 2079130577 heartbeat IPC: 2.313 cumulative IPC: 1.908 (Simulation time: 15 hr 22 min 37 sec)
Heartbeat CPU 2 instructions: 930000000 cycles: 2085224576 heartbeat IPC: 0.4221 cumulative IPC: 0.4238 (Simulation time: 15 hr 25 min 45 sec)
Heartbeat CPU 1 instructions: 4020000003 cycles: 2095094869 heartbeat IPC: 0.6264 cumulative IPC: 1.898 (Simulation time: 15 hr 30 min 45 sec)
Heartbeat CPU 2 instructions: 940000004 cycles: 2111465942 heartbeat IPC: 0.3811 cumulative IPC: 0.4232 (Simulation time: 15 hr 38 min 21 sec)
Heartbeat CPU 1 instructions: 4030000004 cycles: 2113477587 heartbeat IPC: 0.544 cumulative IPC: 1.886 (Simulation time: 15 hr 39 min 24 sec)
Heartbeat CPU 3 instructions: 320000000 cycles: 2115942665 heartbeat IPC: 0.1185 cumulative IPC: 0.1233 (Simulation time: 15 hr 40 min 40 sec)
Heartbeat CPU 1 instructions: 4040000000 cycles: 2118156957 heartbeat IPC: 2.137 cumulative IPC: 1.887 (Simulation time: 15 hr 41 min 52 sec)
Heartbeat CPU 1 instructions: 4050000001 cycles: 2122811740 heartbeat IPC: 2.148 cumulative IPC: 1.887 (Simulation time: 15 hr 44 min 09 sec)
Heartbeat CPU 1 instructions: 4060000000 cycles: 2127229015 heartbeat IPC: 2.264 cumulative IPC: 1.888 (Simulation time: 15 hr 46 min 19 sec)
Heartbeat CPU 1 instructions: 4070000002 cycles: 2131783939 heartbeat IPC: 2.195 cumulative IPC: 1.889 (Simulation time: 15 hr 48 min 38 sec)
[...]
cpu2_L1I WRITE        ACCESS:          0 HIT:          0 MISS:          0
cpu2_L1I TRANSLATION  ACCESS:          0 HIT:          0 MISS:          0
cpu2_L1I PREFETCH REQUESTED:          0 ISSUED:          0 USEFUL:          0 USELESS:          0
cpu2_L1I AVERAGE MISS LATENCY: -nan cycles
cpu2_L1I TOTAL        ACCESS:          0 HIT:          0 MISS:          0
cpu2_L1I LOAD         ACCESS:          0 HIT:          0 MISS:          0
cpu2_L1I RFO          ACCESS:          0 HIT:          0 MISS:          0
cpu2_L1I PREFETCH     ACCESS:          0 HIT:          0 MISS:          0
cpu2_L1I WRITE        ACCESS:          0 HIT:          0 MISS:          0
cpu2_L1I TRANSLATION  ACCESS:          0 HIT:          0 MISS:          0
cpu2_L1I PREFETCH REQUESTED:          0 ISSUED:          0 USEFUL:          0 USELESS:          0
cpu2_L1I AVERAGE MISS LATENCY: -nan cycles
cpu2_L2C TOTAL        ACCESS:          0 HIT:          0 MISS:          0
cpu2_L2C LOAD         ACCESS:          0 HIT:          0 MISS:          0
cpu2_L2C RFO          ACCESS:          0 HIT:          0 MISS:          0
cpu2_L2C PREFETCH     ACCESS:          0 HIT:          0 MISS:          0
cpu2_L2C WRITE        ACCESS:          0 HIT:          0 MISS:          0
cpu2_L2C TRANSLATION  ACCESS:          0 HIT:          0 MISS:          0
cpu2_L2C PREFETCH REQUESTED:          0 ISSUED:          0 USEFUL:          0 USELESS:          0
cpu2_L2C AVERAGE MISS LATENCY: 2559 cycles
cpu2_L2C TOTAL        ACCESS:          0 HIT:          0 MISS:          0
cpu2_L2C LOAD         ACCESS:          0 HIT:          0 MISS:          0
cpu2_L2C RFO          ACCESS:          0 HIT:          0 MISS:          0
cpu2_L2C PREFETCH     ACCESS:          0 HIT:          0 MISS:          0
cpu2_L2C WRITE        ACCESS:          0 HIT:          0 MISS:          0
cpu2_L2C TRANSLATION  ACCESS:          0 HIT:          0 MISS:          0
cpu2_L2C PREFETCH REQUESTED:          0 ISSUED:          0 USEFUL:          0 USELESS:          0
cpu2_L2C AVERAGE MISS LATENCY: 2559 cycles
cpu2_L2C TOTAL        ACCESS:   18324788 HIT:   16774534 MISS:    1550254
cpu2_L2C LOAD         ACCESS:   16338054 HIT:   14811976 MISS:    1526078
cpu2_L2C RFO          ACCESS:     666412 HIT:     664809 MISS:       1603
cpu2_L2C PREFETCH     ACCESS:          0 HIT:          0 MISS:          0
cpu2_L2C WRITE        ACCESS:    1292282 HIT:    1292282 MISS:          0
cpu2_L2C TRANSLATION  ACCESS:      28040 HIT:       5467 MISS:      22573
cpu2_L2C PREFETCH REQUESTED:          0 ISSUED:          0 USEFUL:          0 USELESS:          0
cpu2_L2C AVERAGE MISS LATENCY: 2559 cycles
cpu2_L2C TOTAL        ACCESS:          0 HIT:          0 MISS:          0
cpu2_L2C LOAD         ACCESS:          0 HIT:          0 MISS:          0
cpu2_L2C RFO          ACCESS:          0 HIT:          0 MISS:          0
cpu2_L2C PREFETCH     ACCESS:          0 HIT:          0 MISS:          0
cpu2_L2C WRITE        ACCESS:          0 HIT:          0 MISS:          0
cpu2_L2C TRANSLATION  ACCESS:          0 HIT:          0 MISS:          0
cpu2_L2C PREFETCH REQUESTED:          0 ISSUED:          0 USEFUL:          0 USELESS:          0
cpu2_L2C AVERAGE MISS LATENCY: 2559 cycles
cpu2_STLB TOTAL        ACCESS:          0 HIT:          0 MISS:          0
cpu2_STLB LOAD         ACCESS:          0 HIT:          0 MISS:          0
cpu2_STLB RFO          ACCESS:          0 HIT:          0 MISS:          0
cpu2_STLB PREFETCH     ACCESS:          0 HIT:          0 MISS:          0
cpu2_STLB WRITE        ACCESS:          0 HIT:          0 MISS:          0
cpu2_STLB TRANSLATION  ACCESS:          0 HIT:          0 MISS:          0
cpu2_STLB PREFETCH REQUESTED:          0 ISSUED:          0 USEFUL:          0 USELESS:          0
cpu2_STLB AVERAGE MISS LATENCY: 2807 cycles
cpu2_STLB TOTAL        ACCESS:          0 HIT:          0 MISS:          0
cpu2_STLB LOAD         ACCESS:          0 HIT:          0 MISS:          0
cpu2_STLB RFO          ACCESS:          0 HIT:          0 MISS:          0
cpu2_STLB PREFETCH     ACCESS:          0 HIT:          0 MISS:          0
cpu2_STLB WRITE        ACCESS:          0 HIT:          0 MISS:          0
cpu2_STLB TRANSLATION  ACCESS:          0 HIT:          0 MISS:          0
cpu2_STLB PREFETCH REQUESTED:          0 ISSUED:          0 USEFUL:          0 USELESS:          0
cpu2_STLB AVERAGE MISS LATENCY: 2807 cycles
cpu2_STLB TOTAL        ACCESS:   11318059 HIT:   11299909 MISS:      18150
cpu2_STLB LOAD         ACCESS:   11318059 HIT:   11299909 MISS:      18150
cpu2_STLB RFO          ACCESS:          0 HIT:          0 MISS:          0
cpu2_STLB PREFETCH     ACCESS:          0 HIT:          0 MISS:          0
cpu2_STLB WRITE        ACCESS:          0 HIT:          0 MISS:          0
cpu2_STLB TRANSLATION  ACCESS:          0 HIT:          0 MISS:          0
cpu2_STLB PREFETCH REQUESTED:          0 ISSUED:          0 USEFUL:          0 USELESS:          0
cpu2_STLB AVERAGE MISS LATENCY: 2807 cycles
cpu2_STLB TOTAL        ACCESS:          0 HIT:          0 MISS:          0
cpu2_STLB LOAD         ACCESS:          0 HIT:          0 MISS:          0
cpu2_STLB RFO          ACCESS:          0 HIT:          0 MISS:          0
cpu2_STLB PREFETCH     ACCESS:          0 HIT:          0 MISS:          0
cpu2_STLB WRITE        ACCESS:          0 HIT:          0 MISS:          0
cpu2_STLB TRANSLATION  ACCESS:          0 HIT:          0 MISS:          0
cpu2_STLB PREFETCH REQUESTED:          0 ISSUED:          0 USEFUL:          0 USELESS:          0
cpu2_STLB AVERAGE MISS LATENCY: 2807 cycles
cpu3_DTLB TOTAL        ACCESS:          0 HIT:          0 MISS:          0
cpu3_DTLB LOAD         ACCESS:          0 HIT:          0 MISS:          0
cpu3_DTLB RFO          ACCESS:          0 HIT:          0 MISS:          0
cpu3_DTLB PREFETCH     ACCESS:          0 HIT:          0 MISS:          0
cpu3_DTLB WRITE        ACCESS:          0 HIT:          0 MISS:          0
cpu3_DTLB TRANSLATION  ACCESS:          0 HIT:          0 MISS:          0
cpu3_DTLB PREFETCH REQUESTED:          0 ISSUED:          0 USEFUL:          0 USELESS:          0
cpu3_DTLB AVERAGE MISS LATENCY: 75.72 cycles
cpu3_DTLB TOTAL        ACCESS:          0 HIT:          0 MISS:          0
cpu3_DTLB LOAD         ACCESS:          0 HIT:          0 MISS:          0
cpu3_DTLB RFO          ACCESS:          0 HIT:          0 MISS:          0
cpu3_DTLB PREFETCH     ACCESS:          0 HIT:          0 MISS:          0
cpu3_DTLB WRITE        ACCESS:          0 HIT:          0 MISS:          0
cpu3_DTLB TRANSLATION  ACCESS:          0 HIT:          0 MISS:          0
cpu3_DTLB PREFETCH REQUESTED:          0 ISSUED:          0 USEFUL:          0 USELESS:          0
cpu3_DTLB AVERAGE MISS LATENCY: 75.72 cycles
cpu3_DTLB TOTAL        ACCESS:          0 HIT:          0 MISS:          0
cpu3_DTLB LOAD         ACCESS:          0 HIT:          0 MISS:          0
cpu3_DTLB RFO          ACCESS:          0 HIT:          0 MISS:          0
cpu3_DTLB PREFETCH     ACCESS:          0 HIT:          0 MISS:          0
cpu3_DTLB WRITE        ACCESS:          0 HIT:          0 MISS:          0
cpu3_DTLB TRANSLATION  ACCESS:          0 HIT:          0 MISS:          0
cpu3_DTLB PREFETCH REQUESTED:          0 ISSUED:          0 USEFUL:          0 USELESS:          0
cpu3_DTLB AVERAGE MISS LATENCY: 75.72 cycles
cpu3_DTLB TOTAL        ACCESS:   24460116 HIT:   24150490 MISS:     309626
cpu3_DTLB LOAD         ACCESS:   24460116 HIT:   24150490 MISS:     309626
cpu3_DTLB RFO          ACCESS:          0 HIT:          0 MISS:          0
cpu3_DTLB PREFETCH     ACCESS:          0 HIT:          0 MISS:          0
cpu3_DTLB WRITE        ACCESS:          0 HIT:          0 MISS:          0
cpu3_DTLB TRANSLATION  ACCESS:          0 HIT:          0 MISS:          0
cpu3_DTLB PREFETCH REQUESTED:          0 ISSUED:          0 USEFUL:          0 USELESS:          0
cpu3_DTLB AVERAGE MISS LATENCY: 75.72 cycles
cpu3_ITLB TOTAL        ACCESS:          0 HIT:          0 MISS:          0
cpu3_ITLB LOAD         ACCESS:          0 HIT:          0 MISS:          0
cpu3_ITLB RFO          ACCESS:          0 HIT:          0 MISS:          0
cpu3_ITLB PREFETCH     ACCESS:          0 HIT:          0 MISS:          0
cpu3_ITLB WRITE        ACCESS:          0 HIT:          0 MISS:          0
cpu3_ITLB TRANSLATION  ACCESS:          0 HIT:          0 MISS:          0
cpu3_ITLB PREFETCH REQUESTED:          0 ISSUED:          0 USEFUL:          0 USELESS:          0
cpu3_ITLB AVERAGE MISS LATENCY: -nan cycles
cpu3_ITLB TOTAL        ACCESS:          0 HIT:          0 MISS:          0
cpu3_ITLB LOAD         ACCESS:          0 HIT:          0 MISS:          0
cpu3_ITLB RFO          ACCESS:          0 HIT:          0 MISS:          0
cpu3_ITLB PREFETCH     ACCESS:          0 HIT:          0 MISS:          0
cpu3_ITLB WRITE        ACCESS:          0 HIT:          0 MISS:          0
cpu3_ITLB TRANSLATION  ACCESS:          0 HIT:          0 MISS:          0
cpu3_ITLB PREFETCH REQUESTED:          0 ISSUED:          0 USEFUL:          0 USELESS:          0
cpu3_ITLB AVERAGE MISS LATENCY: -nan cycles
cpu3_ITLB TOTAL        ACCESS:          0 HIT:          0 MISS:          0
cpu3_ITLB LOAD         ACCESS:          0 HIT:          0 MISS:          0
cpu3_ITLB RFO          ACCESS:          0 HIT:          0 MISS:          0
cpu3_ITLB PREFETCH     ACCESS:          0 HIT:          0 MISS:          0
cpu3_ITLB WRITE        ACCESS:          0 HIT:          0 MISS:          0
cpu3_ITLB TRANSLATION  ACCESS:          0 HIT:          0 MISS:          0
cpu3_ITLB PREFETCH REQUESTED:          0 ISSUED:          0 USEFUL:          0 USELESS:          0
cpu3_ITLB AVERAGE MISS LATENCY: -nan cycles
cpu3_ITLB TOTAL        ACCESS:          0 HIT:          0 MISS:          0
cpu3_ITLB LOAD         ACCESS:          0 HIT:          0 MISS:          0
cpu3_ITLB RFO          ACCESS:          0 HIT:          0 MISS:          0
cpu3_ITLB PREFETCH     ACCESS:          0 HIT:          0 MISS:          0
cpu3_ITLB WRITE        ACCESS:          0 HIT:          0 MISS:          0
cpu3_ITLB TRANSLATION  ACCESS:          0 HIT:          0 MISS:          0
cpu3_ITLB PREFETCH REQUESTED:          0 ISSUED:          0 USEFUL:          0 USELESS:          0
cpu3_ITLB AVERAGE MISS LATENCY: -nan cycles
cpu3_L1D TOTAL        ACCESS:          0 HIT:          0 MISS:          0
cpu3_L1D LOAD         ACCESS:          0 HIT:          0 MISS:          0
cpu3_L1D RFO          ACCESS:          0 HIT:          0 MISS:          0
cpu3_L1D PREFETCH     ACCESS:          0 HIT:          0 MISS:          0
cpu3_L1D WRITE        ACCESS:          0 HIT:          0 MISS:          0
cpu3_L1D TRANSLATION  ACCESS:          0 HIT:          0 MISS:          0
cpu3_L1D PREFETCH REQUESTED:          0 ISSUED:          0 USEFUL:          0 USELESS:          0
cpu3_L1D AVERAGE MISS LATENCY: 1375 cycles
cpu3_L1D TOTAL        ACCESS:          0 HIT:          0 MISS:          0
cpu3_L1D LOAD         ACCESS:          0 HIT:          0 MISS:          0
cpu3_L1D RFO          ACCESS:          0 HIT:          0 MISS:          0
cpu3_L1D PREFETCH     ACCESS:          0 HIT:          0 MISS:          0
cpu3_L1D WRITE        ACCESS:          0 HIT:          0 MISS:          0
cpu3_L1D TRANSLATION  ACCESS:          0 HIT:          0 MISS:          0
cpu3_L1D PREFETCH REQUESTED:          0 ISSUED:          0 USEFUL:          0 USELESS:          0
cpu3_L1D AVERAGE MISS LATENCY: 1375 cycles
cpu3_L1D TOTAL        ACCESS:          0 HIT:          0 MISS:          0
cpu3_L1D LOAD         ACCESS:          0 HIT:          0 MISS:          0
cpu3_L1D RFO          ACCESS:          0 HIT:          0 MISS:          0
cpu3_L1D PREFETCH     ACCESS:          0 HIT:          0 MISS:          0
cpu3_L1D WRITE        ACCESS:          0 HIT:          0 MISS:          0
cpu3_L1D TRANSLATION  ACCESS:          0 HIT:          0 MISS:          0
cpu3_L1D PREFETCH REQUESTED:          0 ISSUED:          0 USEFUL:          0 USELESS:          0
cpu3_L1D AVERAGE MISS LATENCY: 1375 cycles
cpu3_L1D TOTAL        ACCESS:   33797264 HIT:   19456624 MISS:   14340640
cpu3_L1D LOAD         ACCESS:    6024003 HIT:    2789619 MISS:    3234384
cpu3_L1D RFO          ACCESS:          0 HIT:          0 MISS:          0
cpu3_L1D PREFETCH     ACCESS:          0 HIT:          0 MISS:          0
cpu3_L1D WRITE        ACCESS:   27660812 HIT:   16666955 MISS:   10993857
cpu3_L1D TRANSLATION  ACCESS:     112449 HIT:         50 MISS:     112399
cpu3_L1D PREFETCH REQUESTED:          0 ISSUED:          0 USEFUL:          0 USELESS:          0
cpu3_L1D AVERAGE MISS LATENCY: 1375 cycles
cpu3_L1I TOTAL        ACCESS:          0 HIT:          0 MISS:          0
cpu3_L1I LOAD         ACCESS:          0 HIT:          0 MISS:          0
cpu3_L1I RFO          ACCESS:          0 HIT:          0 MISS:          0
cpu3_L1I PREFETCH     ACCESS:          0 HIT:          0 MISS:          0
cpu3_L1I WRITE        ACCESS:          0 HIT:          0 MISS:          0
cpu3_L1I TRANSLATION  ACCESS:          0 HIT:          0 MISS:          0
cpu3_L1I PREFETCH REQUESTED:          0 ISSUED:          0 USEFUL:          0 USELESS:          0
cpu3_L1I AVERAGE MISS LATENCY: -nan cycles
cpu3_L1I TOTAL        ACCESS:          0 HIT:          0 MISS:          0
cpu3_L1I LOAD         ACCESS:          0 HIT:          0 MISS:          0
cpu3_L1I RFO          ACCESS:          0 HIT:          0 MISS:          0
cpu3_L1I PREFETCH     ACCESS:          0 HIT:          0 MISS:          0
cpu3_L1I WRITE        ACCESS:          0 HIT:          0 MISS:          0
cpu3_L1I TRANSLATION  ACCESS:          0 HIT:          0 MISS:          0
cpu3_L1I PREFETCH REQUESTED:          0 ISSUED:          0 USEFUL:          0 USELESS:          0
cpu3_L1I AVERAGE MISS LATENCY: -nan cycles
cpu3_L1I TOTAL        ACCESS:          0 HIT:          0 MISS:          0
cpu3_L1I LOAD         ACCESS:          0 HIT:          0 MISS:          0
cpu3_L1I RFO          ACCESS:          0 HIT:          0 MISS:          0
cpu3_L1I PREFETCH     ACCESS:          0 HIT:          0 MISS:          0
cpu3_L1I WRITE        ACCESS:          0 HIT:          0 MISS:          0
cpu3_L1I TRANSLATION  ACCESS:          0 HIT:          0 MISS:          0
cpu3_L1I PREFETCH REQUESTED:          0 ISSUED:          0 USEFUL:          0 USELESS:          0
cpu3_L1I AVERAGE MISS LATENCY: -nan cycles
cpu3_L1I TOTAL        ACCESS:          0 HIT:          0 MISS:          0
cpu3_L1I LOAD         ACCESS:          0 HIT:          0 MISS:          0
cpu3_L1I RFO          ACCESS:          0 HIT:          0 MISS:          0
cpu3_L1I PREFETCH     ACCESS:          0 HIT:          0 MISS:          0
cpu3_L1I WRITE        ACCESS:          0 HIT:          0 MISS:          0
cpu3_L1I TRANSLATION  ACCESS:          0 HIT:          0 MISS:          0
cpu3_L1I PREFETCH REQUESTED:          0 ISSUED:          0 USEFUL:          0 USELESS:          0
cpu3_L1I AVERAGE MISS LATENCY: -nan cycles
cpu3_L2C TOTAL        ACCESS:          0 HIT:          0 MISS:          0
cpu3_L2C LOAD         ACCESS:          0 HIT:          0 MISS:          0
cpu3_L2C RFO          ACCESS:          0 HIT:          0 MISS:          0
cpu3_L2C PREFETCH     ACCESS:          0 HIT:          0 MISS:          0
cpu3_L2C WRITE        ACCESS:          0 HIT:          0 MISS:          0
cpu3_L2C TRANSLATION  ACCESS:          0 HIT:          0 MISS:          0
cpu3_L2C PREFETCH REQUESTED:          0 ISSUED:          0 USEFUL:          0 USELESS:          0
cpu3_L2C AVERAGE MISS LATENCY: 2962 cycles
cpu3_L2C TOTAL        ACCESS:          0 HIT:          0 MISS:          0
cpu3_L2C LOAD         ACCESS:          0 HIT:          0 MISS:          0
cpu3_L2C RFO          ACCESS:          0 HIT:          0 MISS:          0
cpu3_L2C PREFETCH     ACCESS:          0 HIT:          0 MISS:          0
cpu3_L2C WRITE        ACCESS:          0 HIT:          0 MISS:          0
cpu3_L2C TRANSLATION  ACCESS:          0 HIT:          0 MISS:          0
cpu3_L2C PREFETCH REQUESTED:          0 ISSUED:          0 USEFUL:          0 USELESS:          0
cpu3_L2C AVERAGE MISS LATENCY: 2962 cycles
cpu3_L2C TOTAL        ACCESS:          0 HIT:          0 MISS:          0
cpu3_L2C LOAD         ACCESS:          0 HIT:          0 MISS:          0
cpu3_L2C RFO          ACCESS:          0 HIT:          0 MISS:          0
cpu3_L2C PREFETCH     ACCESS:          0 HIT:          0 MISS:          0
cpu3_L2C WRITE        ACCESS:          0 HIT:          0 MISS:          0
cpu3_L2C TRANSLATION  ACCESS:          0 HIT:          0 MISS:          0
cpu3_L2C PREFETCH REQUESTED:          0 ISSUED:          0 USEFUL:          0 USELESS:          0
cpu3_L2C AVERAGE MISS LATENCY: 2962 cycles
cpu3_L2C TOTAL        ACCESS:   22210252 HIT:   14951266 MISS:    7258986
cpu3_L2C LOAD         ACCESS:    1797065 HIT:         57 MISS:    1797008
cpu3_L2C RFO          ACCESS:   10150303 HIT:    4689144 MISS:    5461159
cpu3_L2C PREFETCH     ACCESS:          0 HIT:          0 MISS:          0
cpu3_L2C WRITE        ACCESS:   10150485 HIT:   10150485 MISS:          0
cpu3_L2C TRANSLATION  ACCESS:     112399 HIT:     111580 MISS:        819
cpu3_L2C PREFETCH REQUESTED:          0 ISSUED:          0 USEFUL:          0 USELESS:          0
cpu3_L2C AVERAGE MISS LATENCY: 2962 cycles
cpu3_STLB TOTAL        ACCESS:          0 HIT:          0 MISS:          0
cpu3_STLB LOAD         ACCESS:          0 HIT:          0 MISS:          0
cpu3_STLB RFO          ACCESS:          0 HIT:          0 MISS:          0
cpu3_STLB PREFETCH     ACCESS:          0 HIT:          0 MISS:          0
cpu3_STLB WRITE        ACCESS:          0 HIT:          0 MISS:          0
cpu3_STLB TRANSLATION  ACCESS:          0 HIT:          0 MISS:          0
cpu3_STLB PREFETCH REQUESTED:          0 ISSUED:          0 USEFUL:          0 USELESS:          0
cpu3_STLB AVERAGE MISS LATENCY: 237.3 cycles
cpu3_STLB TOTAL        ACCESS:          0 HIT:          0 MISS:          0
cpu3_STLB LOAD         ACCESS:          0 HIT:          0 MISS:          0
cpu3_STLB RFO          ACCESS:          0 HIT:          0 MISS:          0
cpu3_STLB PREFETCH     ACCESS:          0 HIT:          0 MISS:          0
cpu3_STLB WRITE        ACCESS:          0 HIT:          0 MISS:          0
cpu3_STLB TRANSLATION  ACCESS:          0 HIT:          0 MISS:          0
cpu3_STLB PREFETCH REQUESTED:          0 ISSUED:          0 USEFUL:          0 USELESS:          0
cpu3_STLB AVERAGE MISS LATENCY: 237.3 cycles
cpu3_STLB TOTAL        ACCESS:          0 HIT:          0 MISS:          0
cpu3_STLB LOAD         ACCESS:          0 HIT:          0 MISS:          0
cpu3_STLB RFO          ACCESS:          0 HIT:          0 MISS:          0
cpu3_STLB PREFETCH     ACCESS:          0 HIT:          0 MISS:          0
cpu3_STLB WRITE        ACCESS:          0 HIT:          0 MISS:          0
cpu3_STLB TRANSLATION  ACCESS:          0 HIT:          0 MISS:          0
cpu3_STLB PREFETCH REQUESTED:          0 ISSUED:          0 USEFUL:          0 USELESS:          0
cpu3_STLB AVERAGE MISS LATENCY: 237.3 cycles
cpu3_STLB TOTAL        ACCESS:     207032 HIT:      94693 MISS:     112339
cpu3_STLB LOAD         ACCESS:     207032 HIT:      94693 MISS:     112339
cpu3_STLB RFO          ACCESS:          0 HIT:          0 MISS:          0
cpu3_STLB PREFETCH     ACCESS:          0 HIT:          0 MISS:          0
cpu3_STLB WRITE        ACCESS:          0 HIT:          0 MISS:          0
cpu3_STLB TRANSLATION  ACCESS:          0 HIT:          0 MISS:          0
cpu3_STLB PREFETCH REQUESTED:          0 ISSUED:          0 USEFUL:          0 USELESS:          0
cpu3_STLB AVERAGE MISS LATENCY: 237.3 cycles

DRAM Statistics

Channel 0 RQ ROW_BUFFER_HIT:    1641712
  ROW_BUFFER_MISS:   21242215
 AVG DBUS CONGESTED CYCLE: 4
WQ ROW_BUFFER_HIT: Channel 0 
  ROW_BUFFER_MISS:     145775
  FULL:   11781762
