WARNING: physical memory size is smaller than virtual memory size.
WARNING: option --warmup_instructions is deprecated. Use --warmup-instructions instead.
WARNING: option --simulation_instructions is deprecated. Use --simulation-instructions instead.

*** ChampSim Multicore Out-of-Order Simulator ***
Warmup Instructions: 50000000
Simulation Instructions: 150000000
Number of CPUs: 4
Page size: 4096

Off-chip DRAM Size: 4 GiB Channels: 1 Width: 64-bit Data Race: 3200 MT/s
Heartbeat CPU 1 instructions: 10000003 cycles: 2500045 heartbeat IPC: 4 cumulative IPC: 4 (Simulation time: 00 hr 02 min 13 sec)
Heartbeat CPU 3 instructions: 10000001 cycles: 2502909 heartbeat IPC: 3.995 cumulative IPC: 3.995 (Simulation time: 00 hr 02 min 13 sec)
Heartbeat CPU 2 instructions: 10000000 cycles: 3063721 heartbeat IPC: 3.264 cumulative IPC: 3.264 (Simulation time: 00 hr 02 min 42 sec)
Heartbeat CPU 0 instructions: 10000001 cycles: 4174923 heartbeat IPC: 2.395 cumulative IPC: 2.395 (Simulation time: 00 hr 03 min 39 sec)
Heartbeat CPU 1 instructions: 20000003 cycles: 5000045 heartbeat IPC: 4 cumulative IPC: 4 (Simulation time: 00 hr 04 min 21 sec)
Heartbeat CPU 3 instructions: 20000001 cycles: 5005630 heartbeat IPC: 3.996 cumulative IPC: 3.996 (Simulation time: 00 hr 04 min 21 sec)
Heartbeat CPU 2 instructions: 20000002 cycles: 5748365 heartbeat IPC: 3.725 cumulative IPC: 3.479 (Simulation time: 00 hr 05 min 01 sec)
Heartbeat CPU 1 instructions: 30000003 cycles: 7500045 heartbeat IPC: 4 cumulative IPC: 4 (Simulation time: 00 hr 06 min 36 sec)
Heartbeat CPU 3 instructions: 30000003 cycles: 7507965 heartbeat IPC: 3.996 cumulative IPC: 3.996 (Simulation time: 00 hr 06 min 37 sec)
Heartbeat CPU 0 instructions: 20000003 cycles: 8345852 heartbeat IPC: 2.398 cumulative IPC: 2.396 (Simulation time: 00 hr 07 min 22 sec)
Heartbeat CPU 2 instructions: 30000000 cycles: 8967556 heartbeat IPC: 3.106 cumulative IPC: 3.345 (Simulation time: 00 hr 07 min 55 sec)
Heartbeat CPU 1 instructions: 40000003 cycles: 10000045 heartbeat IPC: 4 cumulative IPC: 4 (Simulation time: 00 hr 08 min 45 sec)
Heartbeat CPU 3 instructions: 40000002 cycles: 10010596 heartbeat IPC: 3.996 cumulative IPC: 3.996 (Simulation time: 00 hr 08 min 46 sec)
Heartbeat CPU 2 instructions: 40000004 cycles: 12221482 heartbeat IPC: 3.073 cumulative IPC: 3.273 (Simulation time: 00 hr 10 min 46 sec)
Heartbeat CPU 1 instructions: 50000003 cycles: 12500045 heartbeat IPC: 4 cumulative IPC: 4 (Simulation time: 00 hr 11 min 02 sec)
Warmup finished CPU 1 instructions: 50000003 cycles: 12500046 cumulative IPC: 4 (Simulation time: 00 hr 11 min 02 sec)
Heartbeat CPU 3 instructions: 50000003 cycles: 12513315 heartbeat IPC: 3.996 cumulative IPC: 3.996 (Simulation time: 00 hr 11 min 03 sec)
Warmup finished CPU 3 instructions: 50000003 cycles: 12513316 cumulative IPC: 3.996 (Simulation time: 00 hr 11 min 03 sec)
Heartbeat CPU 0 instructions: 30000001 cycles: 12517805 heartbeat IPC: 2.397 cumulative IPC: 2.397 (Simulation time: 00 hr 11 min 03 sec)
Heartbeat CPU 1 instructions: 60000003 cycles: 15000045 heartbeat IPC: 4 cumulative IPC: 4 (Simulation time: 00 hr 13 min 17 sec)
Heartbeat CPU 3 instructions: 60000001 cycles: 15015958 heartbeat IPC: 3.996 cumulative IPC: 3.996 (Simulation time: 00 hr 13 min 18 sec)
Heartbeat CPU 2 instructions: 50000002 cycles: 15375331 heartbeat IPC: 3.171 cumulative IPC: 3.252 (Simulation time: 00 hr 13 min 37 sec)
Warmup finished CPU 2 instructions: 50000002 cycles: 15375332 cumulative IPC: 3.252 (Simulation time: 00 hr 13 min 37 sec)
Heartbeat CPU 0 instructions: 40000000 cycles: 16702997 heartbeat IPC: 2.389 cumulative IPC: 2.395 (Simulation time: 00 hr 14 min 54 sec)
Heartbeat CPU 1 instructions: 70000003 cycles: 17500045 heartbeat IPC: 4 cumulative IPC: 4 (Simulation time: 00 hr 15 min 39 sec)
Heartbeat CPU 3 instructions: 70000002 cycles: 17520753 heartbeat IPC: 3.992 cumulative IPC: 3.995 (Simulation time: 00 hr 15 min 40 sec)
Heartbeat CPU 2 instructions: 60000000 cycles: 18083258 heartbeat IPC: 3.693 cumulative IPC: 3.318 (Simulation time: 00 hr 16 min 08 sec)
Heartbeat CPU 1 instructions: 80000003 cycles: 20000045 heartbeat IPC: 4 cumulative IPC: 4 (Simulation time: 00 hr 17 min 52 sec)
Heartbeat CPU 3 instructions: 80000000 cycles: 20022878 heartbeat IPC: 3.997 cumulative IPC: 3.995 (Simulation time: 00 hr 17 min 53 sec)
Heartbeat CPU 2 instructions: 70000000 cycles: 20809732 heartbeat IPC: 3.668 cumulative IPC: 3.364 (Simulation time: 00 hr 18 min 35 sec)
Heartbeat CPU 0 instructions: 50000003 cycles: 20869280 heartbeat IPC: 2.4 cumulative IPC: 2.396 (Simulation time: 00 hr 18 min 38 sec)
Warmup finished CPU 0 instructions: 50000003 cycles: 20869281 cumulative IPC: 2.396 (Simulation time: 00 hr 18 min 38 sec)
Warmup complete CPU 0 instructions: 50000003 cycles: 20869281 cumulative IPC: 2.396 (Simulation time: 00 hr 18 min 38 sec)
Warmup complete CPU 1 instructions: 83476943 cycles: 20869281 cumulative IPC: 4 (Simulation time: 00 hr 18 min 38 sec)
Warmup complete CPU 2 instructions: 70202721 cycles: 20869281 cumulative IPC: 3.364 (Simulation time: 00 hr 18 min 38 sec)
Warmup complete CPU 3 instructions: 83385608 cycles: 20869281 cumulative IPC: 3.996 (Simulation time: 00 hr 18 min 38 sec)
Heartbeat CPU 3 instructions: 90000004 cycles: 23999863 heartbeat IPC: 2.514 cumulative IPC: 2.113 (Simulation time: 00 hr 20 min 15 sec)
Heartbeat CPU 3 instructions: 100000000 cycles: 28743929 heartbeat IPC: 2.108 cumulative IPC: 2.11 (Simulation time: 00 hr 22 min 48 sec)
Heartbeat CPU 2 instructions: 80000001 cycles: 29856751 heartbeat IPC: 1.105 cumulative IPC: 1.09 (Simulation time: 00 hr 23 min 20 sec)
Heartbeat CPU 1 instructions: 90000003 cycles: 30254491 heartbeat IPC: 0.9752 cumulative IPC: 0.695 (Simulation time: 00 hr 23 min 33 sec)
Heartbeat CPU 3 instructions: 110000001 cycles: 33474037 heartbeat IPC: 2.114 cumulative IPC: 2.111 (Simulation time: 00 hr 25 min 24 sec)
Heartbeat CPU 2 instructions: 90000001 cycles: 36491930 heartbeat IPC: 1.507 cumulative IPC: 1.267 (Simulation time: 00 hr 27 min 05 sec)
Heartbeat CPU 3 instructions: 120000000 cycles: 38119602 heartbeat IPC: 2.153 cumulative IPC: 2.123 (Simulation time: 00 hr 27 min 55 sec)
Heartbeat CPU 3 instructions: 130000002 cycles: 42807895 heartbeat IPC: 2.133 cumulative IPC: 2.125 (Simulation time: 00 hr 30 min 26 sec)
Heartbeat CPU 1 instructions: 100000003 cycles: 44082385 heartbeat IPC: 0.7232 cumulative IPC: 0.7118 (Simulation time: 00 hr 31 min 09 sec)
Heartbeat CPU 2 instructions: 100000002 cycles: 44619809 heartbeat IPC: 1.23 cumulative IPC: 1.255 (Simulation time: 00 hr 31 min 23 sec)
Heartbeat CPU 3 instructions: 140000000 cycles: 47552652 heartbeat IPC: 2.108 cumulative IPC: 2.122 (Simulation time: 00 hr 32 min 54 sec)
Heartbeat CPU 2 instructions: 110000004 cycles: 52139685 heartbeat IPC: 1.33 cumulative IPC: 1.273 (Simulation time: 00 hr 35 min 10 sec)
Heartbeat CPU 3 instructions: 150000004 cycles: 52209219 heartbeat IPC: 2.148 cumulative IPC: 2.126 (Simulation time: 00 hr 35 min 13 sec)
Heartbeat CPU 0 instructions: 60000003 cycles: 55793922 heartbeat IPC: 0.2863 cumulative IPC: 0.2863 (Simulation time: 00 hr 37 min 05 sec)
Heartbeat CPU 3 instructions: 160000003 cycles: 56856025 heartbeat IPC: 2.152 cumulative IPC: 2.129 (Simulation time: 00 hr 37 min 43 sec)
Heartbeat CPU 2 instructions: 120000000 cycles: 59616256 heartbeat IPC: 1.338 cumulative IPC: 1.285 (Simulation time: 00 hr 39 min 08 sec)
Heartbeat CPU 1 instructions: 110000003 cycles: 60210282 heartbeat IPC: 0.62 cumulative IPC: 0.6742 (Simulation time: 00 hr 39 min 27 sec)
Heartbeat CPU 3 instructions: 170000003 cycles: 61486077 heartbeat IPC: 2.16 cumulative IPC: 2.132 (Simulation time: 00 hr 40 min 08 sec)
Heartbeat CPU 2 instructions: 130000001 cycles: 65739832 heartbeat IPC: 1.633 cumulative IPC: 1.333 (Simulation time: 00 hr 42 min 27 sec)
Heartbeat CPU 3 instructions: 180000004 cycles: 66114689 heartbeat IPC: 2.16 cumulative IPC: 2.135 (Simulation time: 00 hr 42 min 41 sec)
Heartbeat CPU 3 instructions: 190000002 cycles: 70756087 heartbeat IPC: 2.155 cumulative IPC: 2.137 (Simulation time: 00 hr 45 min 07 sec)
Heartbeat CPU 2 instructions: 140000000 cycles: 72625672 heartbeat IPC: 1.452 cumulative IPC: 1.349 (Simulation time: 00 hr 46 min 06 sec)
Heartbeat CPU 1 instructions: 120000001 cycles: 75012484 heartbeat IPC: 0.6756 cumulative IPC: 0.6746 (Simulation time: 00 hr 47 min 20 sec)
Heartbeat CPU 3 instructions: 200000000 cycles: 75441635 heartbeat IPC: 2.134 cumulative IPC: 2.137 (Simulation time: 00 hr 47 min 34 sec)
Heartbeat CPU 3 instructions: 210000000 cycles: 80053973 heartbeat IPC: 2.168 cumulative IPC: 2.139 (Simulation time: 00 hr 50 min 06 sec)
Heartbeat CPU 2 instructions: 150000000 cycles: 81684249 heartbeat IPC: 1.104 cumulative IPC: 1.312 (Simulation time: 00 hr 50 min 59 sec)
Heartbeat CPU 3 instructions: 220000000 cycles: 84654618 heartbeat IPC: 2.174 cumulative IPC: 2.142 (Simulation time: 00 hr 52 min 35 sec)
Heartbeat CPU 3 instructions: 230000001 cycles: 89279390 heartbeat IPC: 2.162 cumulative IPC: 2.143 (Simulation time: 00 hr 55 min 05 sec)
Heartbeat CPU 2 instructions: 160000002 cycles: 89454743 heartbeat IPC: 1.287 cumulative IPC: 1.309 (Simulation time: 00 hr 55 min 12 sec)
Heartbeat CPU 1 instructions: 130000000 cycles: 89534915 heartbeat IPC: 0.6886 cumulative IPC: 0.6775 (Simulation time: 00 hr 55 min 15 sec)
Simulation finished CPU 3 instructions: 150000000 cycles: 69988622 cumulative IPC: 2.143 (Simulation time: 00 hr 55 min 53 sec)
Heartbeat CPU 0 instructions: 70000002 cycles: 91086174 heartbeat IPC: 0.2833 cumulative IPC: 0.2848 (Simulation time: 00 hr 56 min 01 sec)
Heartbeat CPU 3 instructions: 240000000 cycles: 93919469 heartbeat IPC: 2.155 cumulative IPC: 2.144 (Simulation time: 00 hr 57 min 33 sec)
Heartbeat CPU 2 instructions: 170000004 cycles: 96117745 heartbeat IPC: 1.501 cumulative IPC: 1.326 (Simulation time: 00 hr 58 min 47 sec)
Heartbeat CPU 3 instructions: 250000002 cycles: 98576675 heartbeat IPC: 2.147 cumulative IPC: 2.144 (Simulation time: 01 hr 00 min 13 sec)
Heartbeat CPU 3 instructions: 260000000 cycles: 103300877 heartbeat IPC: 2.117 cumulative IPC: 2.143 (Simulation time: 01 hr 02 min 45 sec)
Heartbeat CPU 2 instructions: 180000002 cycles: 103500929 heartbeat IPC: 1.354 cumulative IPC: 1.329 (Simulation time: 01 hr 02 min 51 sec)
Heartbeat CPU 1 instructions: 140000002 cycles: 104375749 heartbeat IPC: 0.6738 cumulative IPC: 0.6769 (Simulation time: 01 hr 03 min 20 sec)
Heartbeat CPU 3 instructions: 270000000 cycles: 107969633 heartbeat IPC: 2.142 cumulative IPC: 2.143 (Simulation time: 01 hr 05 min 18 sec)
Heartbeat CPU 2 instructions: 190000001 cycles: 110966518 heartbeat IPC: 1.339 cumulative IPC: 1.33 (Simulation time: 01 hr 06 min 56 sec)
Heartbeat CPU 3 instructions: 280000001 cycles: 112637251 heartbeat IPC: 2.142 cumulative IPC: 2.143 (Simulation time: 01 hr 07 min 50 sec)
Heartbeat CPU 3 instructions: 290000004 cycles: 117320186 heartbeat IPC: 2.135 cumulative IPC: 2.142 (Simulation time: 01 hr 10 min 12 sec)
Heartbeat CPU 2 instructions: 200000002 cycles: 117847805 heartbeat IPC: 1.453 cumulative IPC: 1.338 (Simulation time: 01 hr 10 min 33 sec)
Heartbeat CPU 1 instructions: 150000004 cycles: 120161137 heartbeat IPC: 0.6335 cumulative IPC: 0.67 (Simulation time: 01 hr 11 min 52 sec)
Heartbeat CPU 3 instructions: 300000000 cycles: 121978579 heartbeat IPC: 2.147 cumulative IPC: 2.142 (Simulation time: 01 hr 12 min 54 sec)
Heartbeat CPU 2 instructions: 210000001 cycles: 123678832 heartbeat IPC: 1.715 cumulative IPC: 1.36 (Simulation time: 01 hr 13 min 49 sec)
Heartbeat CPU 3 instructions: 310000001 cycles: 126631348 heartbeat IPC: 2.149 cumulative IPC: 2.143 (Simulation time: 01 hr 15 min 25 sec)
Heartbeat CPU 0 instructions: 80000002 cycles: 128126900 heartbeat IPC: 0.27 cumulative IPC: 0.2797 (Simulation time: 01 hr 16 min 10 sec)
Heartbeat CPU 3 instructions: 320000001 cycles: 131274094 heartbeat IPC: 2.154 cumulative IPC: 2.143 (Simulation time: 01 hr 17 min 42 sec)
Heartbeat CPU 2 instructions: 220000000 cycles: 133610299 heartbeat IPC: 1.007 cumulative IPC: 1.329 (Simulation time: 01 hr 18 min 59 sec)
Simulation finished CPU 2 instructions: 150000002 cycles: 112902932 cumulative IPC: 1.329 (Simulation time: 01 hr 19 min 03 sec)
Heartbeat CPU 3 instructions: 330000001 cycles: 135943559 heartbeat IPC: 2.142 cumulative IPC: 2.143 (Simulation time: 01 hr 20 min 10 sec)
Heartbeat CPU 1 instructions: 160000003 cycles: 136046580 heartbeat IPC: 0.6295 cumulative IPC: 0.6644 (Simulation time: 01 hr 20 min 13 sec)
Heartbeat CPU 2 instructions: 230000000 cycles: 142081480 heartbeat IPC: 1.18 cumulative IPC: 1.318 (Simulation time: 01 hr 23 min 16 sec)
Heartbeat CPU 3 instructions: 340000000 cycles: 143478273 heartbeat IPC: 1.327 cumulative IPC: 2.093 (Simulation time: 01 hr 23 min 58 sec)
Heartbeat CPU 3 instructions: 350000002 cycles: 149421918 heartbeat IPC: 1.682 cumulative IPC: 2.074 (Simulation time: 01 hr 27 min 07 sec)
Heartbeat CPU 2 instructions: 240000001 cycles: 149894249 heartbeat IPC: 1.28 cumulative IPC: 1.316 (Simulation time: 01 hr 27 min 21 sec)
Heartbeat CPU 3 instructions: 360000003 cycles: 155103187 heartbeat IPC: 1.76 cumulative IPC: 2.061 (Simulation time: 01 hr 30 min 10 sec)
Heartbeat CPU 1 instructions: 170000002 cycles: 155984183 heartbeat IPC: 0.5016 cumulative IPC: 0.6404 (Simulation time: 01 hr 30 min 37 sec)
Heartbeat CPU 2 instructions: 250000001 cycles: 157574808 heartbeat IPC: 1.302 cumulative IPC: 1.315 (Simulation time: 01 hr 31 min 26 sec)
Heartbeat CPU 3 instructions: 370000000 cycles: 160699092 heartbeat IPC: 1.787 cumulative IPC: 2.05 (Simulation time: 01 hr 32 min 58 sec)
Heartbeat CPU 2 instructions: 260000000 cycles: 165035917 heartbeat IPC: 1.34 cumulative IPC: 1.317 (Simulation time: 01 hr 35 min 11 sec)
Heartbeat CPU 3 instructions: 380000002 cycles: 166302493 heartbeat IPC: 1.785 cumulative IPC: 2.04 (Simulation time: 01 hr 35 min 46 sec)
Heartbeat CPU 2 instructions: 270000000 cycles: 171564216 heartbeat IPC: 1.532 cumulative IPC: 1.326 (Simulation time: 01 hr 38 min 29 sec)
Heartbeat CPU 0 instructions: 90000001 cycles: 173895329 heartbeat IPC: 0.2185 cumulative IPC: 0.2614 (Simulation time: 01 hr 39 min 25 sec)
Heartbeat CPU 2 instructions: 280000000 cycles: 184498833 heartbeat IPC: 0.7731 cumulative IPC: 1.282 (Simulation time: 01 hr 43 min 51 sec)
Heartbeat CPU 1 instructions: 180000002 cycles: 185016005 heartbeat IPC: 0.3444 cumulative IPC: 0.588 (Simulation time: 01 hr 44 min 04 sec)
Heartbeat CPU 3 instructions: 390000001 cycles: 186384721 heartbeat IPC: 0.498 cumulative IPC: 1.852 (Simulation time: 01 hr 44 min 45 sec)
Heartbeat CPU 2 instructions: 290000003 cycles: 192177230 heartbeat IPC: 1.302 cumulative IPC: 1.283 (Simulation time: 01 hr 47 min 46 sec)
Heartbeat CPU 3 instructions: 400000003 cycles: 192383256 heartbeat IPC: 1.667 cumulative IPC: 1.846 (Simulation time: 01 hr 47 min 53 sec)
Heartbeat CPU 3 instructions: 410000003 cycles: 198971653 heartbeat IPC: 1.518 cumulative IPC: 1.834 (Simulation time: 01 hr 51 min 03 sec)
Heartbeat CPU 1 instructions: 190000003 cycles: 202954644 heartbeat IPC: 0.5575 cumulative IPC: 0.585 (Simulation time: 01 hr 53 min 06 sec)
Heartbeat CPU 2 instructions: 300000001 cycles: 203366997 heartbeat IPC: 0.8937 cumulative IPC: 1.259 (Simulation time: 01 hr 53 min 19 sec)
Heartbeat CPU 3 instructions: 420000001 cycles: 205301686 heartbeat IPC: 1.58 cumulative IPC: 1.825 (Simulation time: 01 hr 54 min 27 sec)
Heartbeat CPU 2 instructions: 310000001 cycles: 211557431 heartbeat IPC: 1.221 cumulative IPC: 1.258 (Simulation time: 01 hr 57 min 28 sec)
Heartbeat CPU 3 instructions: 430000001 cycles: 211809712 heartbeat IPC: 1.537 cumulative IPC: 1.815 (Simulation time: 01 hr 57 min 39 sec)
Heartbeat CPU 3 instructions: 440000004 cycles: 218293132 heartbeat IPC: 1.542 cumulative IPC: 1.806 (Simulation time: 02 hr 01 min 08 sec)
Heartbeat CPU 2 instructions: 320000001 cycles: 220810424 heartbeat IPC: 1.081 cumulative IPC: 1.249 (Simulation time: 02 hr 02 min 22 sec)
Heartbeat CPU 1 instructions: 200000000 cycles: 220850285 heartbeat IPC: 0.5588 cumulative IPC: 0.5827 (Simulation time: 02 hr 02 min 23 sec)
Heartbeat CPU 3 instructions: 450000000 cycles: 225590672 heartbeat IPC: 1.37 cumulative IPC: 1.791 (Simulation time: 02 hr 04 min 39 sec)
Heartbeat CPU 0 instructions: 100000000 cycles: 228548279 heartbeat IPC: 0.183 cumulative IPC: 0.2408 (Simulation time: 02 hr 06 min 10 sec)
Heartbeat CPU 2 instructions: 330000000 cycles: 230022299 heartbeat IPC: 1.086 cumulative IPC: 1.242 (Simulation time: 02 hr 06 min 55 sec)
Heartbeat CPU 3 instructions: 460000004 cycles: 232946025 heartbeat IPC: 1.36 cumulative IPC: 1.776 (Simulation time: 02 hr 08 min 24 sec)
Heartbeat CPU 2 instructions: 340000000 cycles: 238697146 heartbeat IPC: 1.153 cumulative IPC: 1.239 (Simulation time: 02 hr 11 min 18 sec)
Heartbeat CPU 3 instructions: 470000001 cycles: 240012599 heartbeat IPC: 1.415 cumulative IPC: 1.764 (Simulation time: 02 hr 11 min 58 sec)
Heartbeat CPU 1 instructions: 210000000 cycles: 243113799 heartbeat IPC: 0.4492 cumulative IPC: 0.5693 (Simulation time: 02 hr 13 min 33 sec)
Heartbeat CPU 2 instructions: 350000003 cycles: 247009593 heartbeat IPC: 1.203 cumulative IPC: 1.237 (Simulation time: 02 hr 15 min 27 sec)
Heartbeat CPU 3 instructions: 480000000 cycles: 247405865 heartbeat IPC: 1.353 cumulative IPC: 1.751 (Simulation time: 02 hr 15 min 39 sec)
Heartbeat CPU 2 instructions: 360000001 cycles: 255657945 heartbeat IPC: 1.156 cumulative IPC: 1.234 (Simulation time: 02 hr 19 min 40 sec)
Heartbeat CPU 3 instructions: 490000002 cycles: 258142500 heartbeat IPC: 0.9314 cumulative IPC: 1.714 (Simulation time: 02 hr 20 min 53 sec)
Heartbeat CPU 2 instructions: 370000000 cycles: 264485117 heartbeat IPC: 1.133 cumulative IPC: 1.231 (Simulation time: 02 hr 24 min 01 sec)
Heartbeat CPU 3 instructions: 500000001 cycles: 265563511 heartbeat IPC: 1.348 cumulative IPC: 1.703 (Simulation time: 02 hr 24 min 33 sec)
Heartbeat CPU 1 instructions: 220000000 cycles: 267469684 heartbeat IPC: 0.4106 cumulative IPC: 0.5536 (Simulation time: 02 hr 25 min 29 sec)
Heartbeat CPU 2 instructions: 380000003 cycles: 270984731 heartbeat IPC: 1.539 cumulative IPC: 1.239 (Simulation time: 02 hr 27 min 23 sec)
Heartbeat CPU 3 instructions: 510000002 cycles: 272506469 heartbeat IPC: 1.44 cumulative IPC: 1.695 (Simulation time: 02 hr 28 min 13 sec)
Heartbeat CPU 2 instructions: 390000000 cycles: 277117837 heartbeat IPC: 1.63 cumulative IPC: 1.248 (Simulation time: 02 hr 30 min 44 sec)
Heartbeat CPU 3 instructions: 520000000 cycles: 279463612 heartbeat IPC: 1.437 cumulative IPC: 1.688 (Simulation time: 02 hr 32 min 03 sec)
Heartbeat CPU 0 instructions: 110000004 cycles: 280357282 heartbeat IPC: 0.193 cumulative IPC: 0.2312 (Simulation time: 02 hr 32 min 32 sec)
Heartbeat CPU 2 instructions: 400000000 cycles: 283572025 heartbeat IPC: 1.549 cumulative IPC: 1.255 (Simulation time: 02 hr 34 min 18 sec)
Heartbeat CPU 1 instructions: 230000000 cycles: 284875490 heartbeat IPC: 0.5745 cumulative IPC: 0.555 (Simulation time: 02 hr 34 min 59 sec)
Heartbeat CPU 3 instructions: 530000002 cycles: 286244347 heartbeat IPC: 1.475 cumulative IPC: 1.683 (Simulation time: 02 hr 35 min 41 sec)
Heartbeat CPU 2 instructions: 410000001 cycles: 291039206 heartbeat IPC: 1.339 cumulative IPC: 1.258 (Simulation time: 02 hr 38 min 04 sec)
Simulation finished CPU 1 instructions: 150000003 cycles: 270365771 cumulative IPC: 0.5548 (Simulation time: 02 hr 38 min 10 sec)
Heartbeat CPU 3 instructions: 540000000 cycles: 292998941 heartbeat IPC: 1.48 cumulative IPC: 1.678 (Simulation time: 02 hr 39 min 00 sec)
Heartbeat CPU 3 instructions: 550000001 cycles: 299775534 heartbeat IPC: 1.476 cumulative IPC: 1.673 (Simulation time: 02 hr 42 min 20 sec)
Heartbeat CPU 2 instructions: 420000002 cycles: 302944365 heartbeat IPC: 0.84 cumulative IPC: 1.24 (Simulation time: 02 hr 43 min 37 sec)
Heartbeat CPU 1 instructions: 240000004 cycles: 303451220 heartbeat IPC: 0.5383 cumulative IPC: 0.5539 (Simulation time: 02 hr 43 min 51 sec)
Heartbeat CPU 3 instructions: 560000001 cycles: 306786593 heartbeat IPC: 1.426 cumulative IPC: 1.667 (Simulation time: 02 hr 45 min 30 sec)
Heartbeat CPU 2 instructions: 430000002 cycles: 311871174 heartbeat IPC: 1.12 cumulative IPC: 1.236 (Simulation time: 02 hr 47 min 55 sec)
Heartbeat CPU 3 instructions: 570000004 cycles: 313911844 heartbeat IPC: 1.403 cumulative IPC: 1.661 (Simulation time: 02 hr 48 min 54 sec)
Heartbeat CPU 2 instructions: 440000000 cycles: 320568138 heartbeat IPC: 1.15 cumulative IPC: 1.234 (Simulation time: 02 hr 52 min 10 sec)
Heartbeat CPU 3 instructions: 580000000 cycles: 321064778 heartbeat IPC: 1.398 cumulative IPC: 1.654 (Simulation time: 02 hr 52 min 24 sec)
Heartbeat CPU 1 instructions: 250000000 cycles: 325239650 heartbeat IPC: 0.459 cumulative IPC: 0.5471 (Simulation time: 02 hr 54 min 23 sec)
Heartbeat CPU 3 instructions: 590000001 cycles: 328131509 heartbeat IPC: 1.415 cumulative IPC: 1.649 (Simulation time: 02 hr 55 min 48 sec)
Heartbeat CPU 0 instructions: 120000004 cycles: 328157227 heartbeat IPC: 0.2092 cumulative IPC: 0.2278 (Simulation time: 02 hr 55 min 49 sec)
Heartbeat CPU 2 instructions: 450000001 cycles: 329360716 heartbeat IPC: 1.137 cumulative IPC: 1.231 (Simulation time: 02 hr 56 min 22 sec)
Heartbeat CPU 3 instructions: 600000000 cycles: 334844444 heartbeat IPC: 1.49 cumulative IPC: 1.645 (Simulation time: 02 hr 59 min 15 sec)
Heartbeat CPU 2 instructions: 460000002 cycles: 335472446 heartbeat IPC: 1.636 cumulative IPC: 1.239 (Simulation time: 02 hr 59 min 38 sec)
Heartbeat CPU 3 instructions: 610000000 cycles: 341722830 heartbeat IPC: 1.454 cumulative IPC: 1.641 (Simulation time: 03 hr 02 min 40 sec)
Heartbeat CPU 1 instructions: 260000000 cycles: 344611798 heartbeat IPC: 0.5162 cumulative IPC: 0.5453 (Simulation time: 03 hr 03 min 52 sec)
Heartbeat CPU 2 instructions: 470000004 cycles: 348122065 heartbeat IPC: 0.7905 cumulative IPC: 1.222 (Simulation time: 03 hr 05 min 11 sec)
Heartbeat CPU 2 instructions: 480000000 cycles: 357321241 heartbeat IPC: 1.087 cumulative IPC: 1.218 (Simulation time: 03 hr 09 min 27 sec)
Heartbeat CPU 2 instructions: 490000002 cycles: 366491278 heartbeat IPC: 1.091 cumulative IPC: 1.215 (Simulation time: 03 hr 13 min 27 sec)
Heartbeat CPU 3 instructions: 620000003 cycles: 373163073 heartbeat IPC: 0.3181 cumulative IPC: 1.523 (Simulation time: 03 hr 16 min 22 sec)
Heartbeat CPU 1 instructions: 270000003 cycles: 377394466 heartbeat IPC: 0.305 cumulative IPC: 0.5232 (Simulation time: 03 hr 17 min 59 sec)
Heartbeat CPU 2 instructions: 500000000 cycles: 383578180 heartbeat IPC: 0.5852 cumulative IPC: 1.185 (Simulation time: 03 hr 20 min 26 sec)
Heartbeat CPU 2 instructions: 510000001 cycles: 395705861 heartbeat IPC: 0.8246 cumulative IPC: 1.173 (Simulation time: 03 hr 25 min 40 sec)
Heartbeat CPU 3 instructions: 630000003 cycles: 396419634 heartbeat IPC: 0.43 cumulative IPC: 1.456 (Simulation time: 03 hr 26 min 01 sec)
Heartbeat CPU 0 instructions: 130000002 cycles: 402136750 heartbeat IPC: 0.1352 cumulative IPC: 0.2098 (Simulation time: 03 hr 28 min 37 sec)
Heartbeat CPU 2 instructions: 520000000 cycles: 406466363 heartbeat IPC: 0.9293 cumulative IPC: 1.166 (Simulation time: 03 hr 30 min 30 sec)
Heartbeat CPU 1 instructions: 280000000 cycles: 409093560 heartbeat IPC: 0.3155 cumulative IPC: 0.5062 (Simulation time: 03 hr 31 min 42 sec)
Heartbeat CPU 2 instructions: 530000001 cycles: 416365654 heartbeat IPC: 1.01 cumulative IPC: 1.163 (Simulation time: 03 hr 34 min 53 sec)
Heartbeat CPU 3 instructions: 640000003 cycles: 420746931 heartbeat IPC: 0.4111 cumulative IPC: 1.392 (Simulation time: 03 hr 36 min 57 sec)
Heartbeat CPU 2 instructions: 540000000 cycles: 424827613 heartbeat IPC: 1.182 cumulative IPC: 1.163 (Simulation time: 03 hr 38 min 47 sec)
Heartbeat CPU 2 instructions: 550000004 cycles: 434041858 heartbeat IPC: 1.085 cumulative IPC: 1.161 (Simulation time: 03 hr 43 min 02 sec)
Heartbeat CPU 1 instructions: 290000003 cycles: 439805403 heartbeat IPC: 0.3256 cumulative IPC: 0.493 (Simulation time: 03 hr 45 min 35 sec)
Heartbeat CPU 3 instructions: 650000001 cycles: 442462544 heartbeat IPC: 0.4605 cumulative IPC: 1.344 (Simulation time: 03 hr 46 min 45 sec)
Heartbeat CPU 2 instructions: 560000001 cycles: 443145121 heartbeat IPC: 1.099 cumulative IPC: 1.16 (Simulation time: 03 hr 47 min 06 sec)
Heartbeat CPU 2 instructions: 570000004 cycles: 448884069 heartbeat IPC: 1.742 cumulative IPC: 1.168 (Simulation time: 03 hr 50 min 03 sec)
Heartbeat CPU 2 instructions: 580000000 cycles: 454215562 heartbeat IPC: 1.876 cumulative IPC: 1.176 (Simulation time: 03 hr 52 min 50 sec)
Heartbeat CPU 3 instructions: 660000000 cycles: 456325676 heartbeat IPC: 0.7213 cumulative IPC: 1.324 (Simulation time: 03 hr 53 min 51 sec)
Heartbeat CPU 1 instructions: 300000004 cycles: 458867020 heartbeat IPC: 0.5246 cumulative IPC: 0.4943 (Simulation time: 03 hr 55 min 05 sec)
Heartbeat CPU 2 instructions: 590000001 cycles: 460439884 heartbeat IPC: 1.607 cumulative IPC: 1.183 (Simulation time: 03 hr 55 min 53 sec)
Heartbeat CPU 0 instructions: 140000001 cycles: 462708612 heartbeat IPC: 0.1651 cumulative IPC: 0.2037 (Simulation time: 03 hr 57 min 04 sec)
Heartbeat CPU 2 instructions: 600000000 cycles: 467246731 heartbeat IPC: 1.469 cumulative IPC: 1.187 (Simulation time: 03 hr 59 min 09 sec)
Heartbeat CPU 3 instructions: 670000001 cycles: 473585701 heartbeat IPC: 0.5794 cumulative IPC: 1.296 (Simulation time: 04 hr 02 min 03 sec)
Heartbeat CPU 2 instructions: 610000000 cycles: 477157123 heartbeat IPC: 1.009 cumulative IPC: 1.183 (Simulation time: 04 hr 03 min 38 sec)
Heartbeat CPU 1 instructions: 310000002 cycles: 491588524 heartbeat IPC: 0.3056 cumulative IPC: 0.4812 (Simulation time: 04 hr 09 min 25 sec)
Heartbeat CPU 2 instructions: 620000000 cycles: 493695984 heartbeat IPC: 0.6046 cumulative IPC: 1.163 (Simulation time: 04 hr 10 min 22 sec)
Heartbeat CPU 2 instructions: 630000000 cycles: 507759506 heartbeat IPC: 0.7111 cumulative IPC: 1.15 (Simulation time: 04 hr 15 min 58 sec)
Heartbeat CPU 3 instructions: 680000001 cycles: 515395210 heartbeat IPC: 0.2392 cumulative IPC: 1.206 (Simulation time: 04 hr 19 min 30 sec)
Heartbeat CPU 2 instructions: 640000002 cycles: 517365237 heartbeat IPC: 1.041 cumulative IPC: 1.148 (Simulation time: 04 hr 20 min 27 sec)
Heartbeat CPU 1 instructions: 320000002 cycles: 522385206 heartbeat IPC: 0.3247 cumulative IPC: 0.4716 (Simulation time: 04 hr 22 min 49 sec)
Heartbeat CPU 2 instructions: 650000000 cycles: 526071951 heartbeat IPC: 1.149 cumulative IPC: 1.148 (Simulation time: 04 hr 24 min 34 sec)
Heartbeat CPU 3 instructions: 690000001 cycles: 533539350 heartbeat IPC: 0.5511 cumulative IPC: 1.183 (Simulation time: 04 hr 28 min 16 sec)
Heartbeat CPU 2 instructions: 660000000 cycles: 534023208 heartbeat IPC: 1.258 cumulative IPC: 1.149 (Simulation time: 04 hr 28 min 29 sec)
Heartbeat CPU 0 instructions: 150000003 cycles: 534234753 heartbeat IPC: 0.1398 cumulative IPC: 0.1948 (Simulation time: 04 hr 28 min 35 sec)
Heartbeat CPU 2 instructions: 670000004 cycles: 542120694 heartbeat IPC: 1.235 cumulative IPC: 1.151 (Simulation time: 04 hr 32 min 31 sec)
Heartbeat CPU 1 instructions: 330000002 cycles: 544467240 heartbeat IPC: 0.4529 cumulative IPC: 0.4708 (Simulation time: 04 hr 33 min 38 sec)
Heartbeat CPU 2 instructions: 680000004 cycles: 550501008 heartbeat IPC: 1.193 cumulative IPC: 1.151 (Simulation time: 04 hr 36 min 36 sec)
Heartbeat CPU 3 instructions: 700000002 cycles: 551097594 heartbeat IPC: 0.5695 cumulative IPC: 1.163 (Simulation time: 04 hr 36 min 58 sec)
Heartbeat CPU 2 instructions: 690000000 cycles: 555535733 heartbeat IPC: 1.986 cumulative IPC: 1.159 (Simulation time: 04 hr 39 min 24 sec)
Heartbeat CPU 2 instructions: 700000000 cycles: 561628058 heartbeat IPC: 1.641 cumulative IPC: 1.165 (Simulation time: 04 hr 42 min 33 sec)
Heartbeat CPU 1 instructions: 340000002 cycles: 562208960 heartbeat IPC: 0.5636 cumulative IPC: 0.4739 (Simulation time: 04 hr 42 min 50 sec)
Heartbeat CPU 3 instructions: 710000002 cycles: 564604748 heartbeat IPC: 0.7403 cumulative IPC: 1.152 (Simulation time: 04 hr 44 min 05 sec)
Heartbeat CPU 2 instructions: 710000002 cycles: 568869563 heartbeat IPC: 1.381 cumulative IPC: 1.168 (Simulation time: 04 hr 46 min 18 sec)
Heartbeat CPU 3 instructions: 720000004 cycles: 577599477 heartbeat IPC: 0.7695 cumulative IPC: 1.143 (Simulation time: 04 hr 50 min 27 sec)
Heartbeat CPU 0 instructions: 160000002 cycles: 577970080 heartbeat IPC: 0.2286 cumulative IPC: 0.1975 (Simulation time: 04 hr 50 min 37 sec)
Heartbeat CPU 2 instructions: 720000004 cycles: 578400971 heartbeat IPC: 1.049 cumulative IPC: 1.165 (Simulation time: 04 hr 50 min 50 sec)
Heartbeat CPU 1 instructions: 350000000 cycles: 579509883 heartbeat IPC: 0.578 cumulative IPC: 0.4771 (Simulation time: 04 hr 51 min 23 sec)
Heartbeat CPU 2 instructions: 730000000 cycles: 586837209 heartbeat IPC: 1.185 cumulative IPC: 1.166 (Simulation time: 04 hr 54 min 56 sec)
Heartbeat CPU 3 instructions: 730000000 cycles: 592140790 heartbeat IPC: 0.6877 cumulative IPC: 1.132 (Simulation time: 04 hr 57 min 38 sec)
Heartbeat CPU 2 instructions: 740000000 cycles: 594555608 heartbeat IPC: 1.296 cumulative IPC: 1.168 (Simulation time: 04 hr 58 min 50 sec)
Heartbeat CPU 1 instructions: 360000000 cycles: 596291037 heartbeat IPC: 0.5959 cumulative IPC: 0.4806 (Simulation time: 04 hr 59 min 40 sec)
Heartbeat CPU 2 instructions: 750000002 cycles: 602470071 heartbeat IPC: 1.264 cumulative IPC: 1.169 (Simulation time: 05 hr 02 min 37 sec)
Heartbeat CPU 3 instructions: 740000003 cycles: 609589443 heartbeat IPC: 0.5731 cumulative IPC: 1.115 (Simulation time: 05 hr 05 min 57 sec)
Heartbeat CPU 2 instructions: 760000000 cycles: 610916302 heartbeat IPC: 1.184 cumulative IPC: 1.169 (Simulation time: 05 hr 06 min 39 sec)
Heartbeat CPU 1 instructions: 370000002 cycles: 616231293 heartbeat IPC: 0.5015 cumulative IPC: 0.4813 (Simulation time: 05 hr 09 min 12 sec)
Heartbeat CPU 2 instructions: 770000004 cycles: 619533677 heartbeat IPC: 1.16 cumulative IPC: 1.169 (Simulation time: 05 hr 10 min 44 sec)
Heartbeat CPU 0 instructions: 170000001 cycles: 624067321 heartbeat IPC: 0.2169 cumulative IPC: 0.1989 (Simulation time: 05 hr 12 min 46 sec)
Heartbeat CPU 2 instructions: 780000000 cycles: 629143133 heartbeat IPC: 1.041 cumulative IPC: 1.167 (Simulation time: 05 hr 15 min 05 sec)
Heartbeat CPU 2 instructions: 790000000 cycles: 638455627 heartbeat IPC: 1.074 cumulative IPC: 1.166 (Simulation time: 05 hr 19 min 06 sec)
Heartbeat CPU 3 instructions: 750000003 cycles: 641397094 heartbeat IPC: 0.3144 cumulative IPC: 1.074 (Simulation time: 05 hr 20 min 32 sec)
Heartbeat CPU 2 instructions: 800000002 cycles: 645196428 heartbeat IPC: 1.484 cumulative IPC: 1.169 (Simulation time: 05 hr 22 min 22 sec)
Heartbeat CPU 1 instructions: 380000003 cycles: 647760410 heartbeat IPC: 0.3172 cumulative IPC: 0.473 (Simulation time: 05 hr 23 min 39 sec)
Heartbeat CPU 2 instructions: 810000001 cycles: 652451691 heartbeat IPC: 1.378 cumulative IPC: 1.171 (Simulation time: 05 hr 26 min 11 sec)
Heartbeat CPU 3 instructions: 760000003 cycles: 661314515 heartbeat IPC: 0.5021 cumulative IPC: 1.056 (Simulation time: 05 hr 30 min 10 sec)
Heartbeat CPU 2 instructions: 820000000 cycles: 663072028 heartbeat IPC: 0.9416 cumulative IPC: 1.168 (Simulation time: 05 hr 31 min 02 sec)
Heartbeat CPU 1 instructions: 390000004 cycles: 669310925 heartbeat IPC: 0.464 cumulative IPC: 0.4727 (Simulation time: 05 hr 33 min 59 sec)
Heartbeat CPU 2 instructions: 830000000 cycles: 671292429 heartbeat IPC: 1.216 cumulative IPC: 1.168 (Simulation time: 05 hr 34 min 53 sec)
Heartbeat CPU 2 instructions: 840000004 cycles: 680766020 heartbeat IPC: 1.056 cumulative IPC: 1.167 (Simulation time: 05 hr 39 min 18 sec)
Heartbeat CPU 0 instructions: 180000001 cycles: 681999966 heartbeat IPC: 0.1726 cumulative IPC: 0.1966 (Simulation time: 05 hr 39 min 54 sec)
Heartbeat CPU 3 instructions: 770000000 cycles: 689513016 heartbeat IPC: 0.3546 cumulative IPC: 1.027 (Simulation time: 05 hr 43 min 10 sec)
Heartbeat CPU 2 instructions: 850000000 cycles: 689632442 heartbeat IPC: 1.128 cumulative IPC: 1.166 (Simulation time: 05 hr 43 min 14 sec)
Heartbeat CPU 1 instructions: 400000001 cycles: 694802344 heartbeat IPC: 0.3923 cumulative IPC: 0.4697 (Simulation time: 05 hr 45 min 32 sec)
Heartbeat CPU 2 instructions: 860000000 cycles: 697874035 heartbeat IPC: 1.213 cumulative IPC: 1.167 (Simulation time: 05 hr 47 min 05 sec)
Heartbeat CPU 2 instructions: 870000002 cycles: 706773657 heartbeat IPC: 1.124 cumulative IPC: 1.166 (Simulation time: 05 hr 51 min 23 sec)
Heartbeat CPU 3 instructions: 780000001 cycles: 710117172 heartbeat IPC: 0.4853 cumulative IPC: 1.011 (Simulation time: 05 hr 53 min 07 sec)
Heartbeat CPU 2 instructions: 880000001 cycles: 714854040 heartbeat IPC: 1.238 cumulative IPC: 1.167 (Simulation time: 05 hr 55 min 31 sec)
Heartbeat CPU 1 instructions: 410000001 cycles: 715001990 heartbeat IPC: 0.4951 cumulative IPC: 0.4704 (Simulation time: 05 hr 55 min 36 sec)
Heartbeat CPU 2 instructions: 890000000 cycles: 721641250 heartbeat IPC: 1.473 cumulative IPC: 1.17 (Simulation time: 05 hr 58 min 49 sec)
Heartbeat CPU 3 instructions: 790000003 cycles: 731690309 heartbeat IPC: 0.4635 cumulative IPC: 0.9941 (Simulation time: 06 hr 03 min 31 sec)
Heartbeat CPU 2 instructions: 900000000 cycles: 731877697 heartbeat IPC: 0.9769 cumulative IPC: 1.167 (Simulation time: 06 hr 03 min 36 sec)
Heartbeat CPU 0 instructions: 190000003 cycles: 734317299 heartbeat IPC: 0.1911 cumulative IPC: 0.1962 (Simulation time: 06 hr 04 min 52 sec)
Heartbeat CPU 1 instructions: 420000000 cycles: 737243791 heartbeat IPC: 0.4496 cumulative IPC: 0.4698 (Simulation time: 06 hr 06 min 20 sec)
Heartbeat CPU 2 instructions: 910000004 cycles: 740225103 heartbeat IPC: 1.198 cumulative IPC: 1.167 (Simulation time: 06 hr 07 min 48 sec)
Heartbeat CPU 2 instructions: 920000004 cycles: 748528502 heartbeat IPC: 1.204 cumulative IPC: 1.168 (Simulation time: 06 hr 11 min 38 sec)
Heartbeat CPU 2 instructions: 930000004 cycles: 755346616 heartbeat IPC: 1.467 cumulative IPC: 1.171 (Simulation time: 06 hr 14 min 55 sec)
Heartbeat CPU 3 instructions: 800000001 cycles: 756890167 heartbeat IPC: 0.3968 cumulative IPC: 0.9736 (Simulation time: 06 hr 15 min 38 sec)
Heartbeat CPU 1 instructions: 430000000 cycles: 762321665 heartbeat IPC: 0.3988 cumulative IPC: 0.4674 (Simulation time: 06 hr 18 min 08 sec)
Heartbeat CPU 2 instructions: 940000004 cycles: 767113154 heartbeat IPC: 0.8499 cumulative IPC: 1.166 (Simulation time: 06 hr 20 min 14 sec)
Heartbeat CPU 2 instructions: 950000002 cycles: 775697174 heartbeat IPC: 1.165 cumulative IPC: 1.166 (Simulation time: 06 hr 24 min 20 sec)
Heartbeat CPU 2 instructions: 960000000 cycles: 784744671 heartbeat IPC: 1.105 cumulative IPC: 1.165 (Simulation time: 06 hr 28 min 31 sec)
Heartbeat CPU 3 instructions: 810000003 cycles: 785462803 heartbeat IPC: 0.35 cumulative IPC: 0.9503 (Simulation time: 06 hr 28 min 49 sec)
Heartbeat CPU 1 instructions: 440000004 cycles: 787064123 heartbeat IPC: 0.4042 cumulative IPC: 0.4653 (Simulation time: 06 hr 29 min 35 sec)
Heartbeat CPU 0 instructions: 200000001 cycles: 792240282 heartbeat IPC: 0.1726 cumulative IPC: 0.1945 (Simulation time: 06 hr 31 min 51 sec)
Simulation finished CPU 0 instructions: 150000003 cycles: 771371003 cumulative IPC: 0.1945 (Simulation time: 06 hr 31 min 51 sec)
Simulation complete CPU 0 instructions: 150000003 cycles: 771371003 cumulative IPC: 0.1945 (Simulation time: 06 hr 31 min 51 sec)
Simulation complete CPU 1 instructions: 358158052 cycles: 771371003 cumulative IPC: 0.4643 (Simulation time: 06 hr 31 min 51 sec)
Simulation complete CPU 2 instructions: 898073468 cycles: 771371003 cumulative IPC: 1.164 (Simulation time: 06 hr 31 min 51 sec)
Simulation complete CPU 3 instructions: 728303219 cycles: 771371003 cumulative IPC: 0.9442 (Simulation time: 06 hr 31 min 51 sec)

ChampSim completed all CPUs

=== Simulation ===
CPU 0 runs /home/das/dpc3_traces/620.omnetpp_s-874B.champsimtrace.xzCPU 1 runs /home/das/dpc3_traces/649.fotonik3d_s-1176B.champsimtrace.xzCPU 2 runs /home/das/dpc3_traces/623.xalancbmk_s-700B.champsimtrace.xzCPU 3 runs /home/das/dpc3_traces/621.wrf_s-575B.champsimtrace.xz
Total Simulation Statistics (not including warmup)

CPU 0 cumulative IPC: 0.1945 instructions: 150000003 cycles: 771371003
CPU 0 Branch Prediction Accuracy: 94.9% MPKI: 10.6 Average ROB Occupancy at Mispredict: 83.09
Branch type MPKI
BRANCH_DIRECT_JUMP: 0.923
BRANCH_INDIRECT: 0.128
BRANCH_CONDITIONAL: 8.42
BRANCH_DIRECT_CALL: 0.00016
BRANCH_INDIRECT_CALL: 0.734
BRANCH_RETURN: 0.399


CPU 1 cumulative IPC: 0.4643 instructions: 358158052 cycles: 771371003
CPU 1 Branch Prediction Accuracy: 99.51% MPKI: 0.09331 Average ROB Occupancy at Mispredict: 80.27
Branch type MPKI
BRANCH_DIRECT_JUMP: 0.000248
BRANCH_INDIRECT: 0
BRANCH_CONDITIONAL: 0.0706
BRANCH_DIRECT_CALL: 4.47e-05
BRANCH_INDIRECT_CALL: 0
BRANCH_RETURN: 0.0224


CPU 2 cumulative IPC: 1.164 instructions: 898073468 cycles: 771371003
CPU 2 Branch Prediction Accuracy: 97.2% MPKI: 7.983 Average ROB Occupancy at Mispredict: 41.81
Branch type MPKI
BRANCH_DIRECT_JUMP: 0.11
BRANCH_INDIRECT: 0.343
BRANCH_CONDITIONAL: 5.71
BRANCH_DIRECT_CALL: 0.000288
BRANCH_INDIRECT_CALL: 0.374
BRANCH_RETURN: 1.45


CPU 3 cumulative IPC: 0.9442 instructions: 728303219 cycles: 771371003
CPU 3 Branch Prediction Accuracy: 95.54% MPKI: 5.185 Average ROB Occupancy at Mispredict: 109.4
Branch type MPKI
BRANCH_DIRECT_JUMP: 0.000459
BRANCH_INDIRECT: 2.33e-05
BRANCH_CONDITIONAL: 4.8
BRANCH_DIRECT_CALL: 0.00272
BRANCH_INDIRECT_CALL: 0
BRANCH_RETURN: 0.384

LLC TOTAL        ACCESS:    3516514 HIT:    1538021 MISS:    1978493
LLC LOAD         ACCESS:    1691248 HIT:     397017 MISS:    1294231
LLC RFO          ACCESS:     257795 HIT:     119015 MISS:     138780
LLC PREFETCH     ACCESS:          0 HIT:          0 MISS:          0
LLC WRITE        ACCESS:     971561 HIT:     957365 MISS:      14196
LLC TRANSLATION  ACCESS:     595910 HIT:      64624 MISS:     531286
LLC PREFETCH REQUESTED:          0 ISSUED:          0 USEFUL:          0 USELESS:          0
LLC AVERAGE MISS LATENCY: 1251 cycles
LLC TOTAL        ACCESS:    6345164 HIT:    3214698 MISS:    3130466
LLC LOAD         ACCESS:    3231275 HIT:     103535 MISS:    3127740
LLC RFO          ACCESS:       1326 HIT:       1255 MISS:         71
LLC PREFETCH     ACCESS:          0 HIT:          0 MISS:          0
LLC WRITE        ACCESS:    3111975 HIT:    3109725 MISS:       2250
LLC TRANSLATION  ACCESS:        588 HIT:        183 MISS:        405
LLC PREFETCH REQUESTED:          0 ISSUED:          0 USEFUL:          0 USELESS:          0
LLC AVERAGE MISS LATENCY: 1251 cycles
LLC TOTAL        ACCESS:    4339033 HIT:    2895785 MISS:    1443248
LLC LOAD         ACCESS:    1673908 HIT:    1362863 MISS:     311045
LLC RFO          ACCESS:    1132000 HIT:      85896 MISS:    1046104
LLC PREFETCH     ACCESS:          0 HIT:          0 MISS:          0
LLC WRITE        ACCESS:    1361594 HIT:    1337351 MISS:      24243
LLC TRANSLATION  ACCESS:     171531 HIT:     109675 MISS:      61856
LLC PREFETCH REQUESTED:          0 ISSUED:          0 USEFUL:          0 USELESS:          0
LLC AVERAGE MISS LATENCY: 1251 cycles
LLC TOTAL        ACCESS:    5026865 HIT:    2720407 MISS:    2306458
LLC LOAD         ACCESS:    2603817 HIT:     890571 MISS:    1713246
LLC RFO          ACCESS:     832870 HIT:     261191 MISS:     571679
LLC PREFETCH     ACCESS:          0 HIT:          0 MISS:          0
LLC WRITE        ACCESS:    1584944 HIT:    1567158 MISS:      17786
LLC TRANSLATION  ACCESS:       5234 HIT:       1487 MISS:       3747
LLC PREFETCH REQUESTED:          0 ISSUED:          0 USEFUL:          0 USELESS:          0
LLC AVERAGE MISS LATENCY: 1251 cycles
cpu0_DTLB TOTAL        ACCESS:   38297213 HIT:   35000716 MISS:    3296497
cpu0_DTLB LOAD         ACCESS:   38297213 HIT:   35000716 MISS:    3296497
cpu0_DTLB RFO          ACCESS:          0 HIT:          0 MISS:          0
cpu0_DTLB PREFETCH     ACCESS:          0 HIT:          0 MISS:          0
cpu0_DTLB WRITE        ACCESS:          0 HIT:          0 MISS:          0
cpu0_DTLB TRANSLATION  ACCESS:          0 HIT:          0 MISS:          0
cpu0_DTLB PREFETCH REQUESTED:          0 ISSUED:          0 USEFUL:          0 USELESS:          0
cpu0_DTLB AVERAGE MISS LATENCY: 168.5 cycles
cpu0_DTLB TOTAL        ACCESS:          0 HIT:          0 MISS:          0
cpu0_DTLB LOAD         ACCESS:          0 HIT:          0 MISS:          0
cpu0_DTLB RFO          ACCESS:          0 HIT:          0 MISS:          0
cpu0_DTLB PREFETCH     ACCESS:          0 HIT:          0 MISS:          0
cpu0_DTLB WRITE        ACCESS:          0 HIT:          0 MISS:          0
cpu0_DTLB TRANSLATION  ACCESS:          0 HIT:          0 MISS:          0
cpu0_DTLB PREFETCH REQUESTED:          0 ISSUED:          0 USEFUL:          0 USELESS:          0
cpu0_DTLB AVERAGE MISS LATENCY: 168.5 cycles
cpu0_DTLB TOTAL        ACCESS:          0 HIT:          0 MISS:          0
cpu0_DTLB LOAD         ACCESS:          0 HIT:          0 MISS:          0
cpu0_DTLB RFO          ACCESS:          0 HIT:          0 MISS:          0
cpu0_DTLB PREFETCH     ACCESS:          0 HIT:          0 MISS:          0
cpu0_DTLB WRITE        ACCESS:          0 HIT:          0 MISS:          0
cpu0_DTLB TRANSLATION  ACCESS:          0 HIT:          0 MISS:          0
cpu0_DTLB PREFETCH REQUESTED:          0 ISSUED:          0 USEFUL:          0 USELESS:          0
cpu0_DTLB AVERAGE MISS LATENCY: 168.5 cycles
cpu0_DTLB TOTAL        ACCESS:          0 HIT:          0 MISS:          0
cpu0_DTLB LOAD         ACCESS:          0 HIT:          0 MISS:          0
cpu0_DTLB RFO          ACCESS:          0 HIT:          0 MISS:          0
cpu0_DTLB PREFETCH     ACCESS:          0 HIT:          0 MISS:          0
cpu0_DTLB WRITE        ACCESS:          0 HIT:          0 MISS:          0
cpu0_DTLB TRANSLATION  ACCESS:          0 HIT:          0 MISS:          0
cpu0_DTLB PREFETCH REQUESTED:          0 ISSUED:          0 USEFUL:          0 USELESS:          0
cpu0_DTLB AVERAGE MISS LATENCY: 168.5 cycles
cpu0_ITLB TOTAL        ACCESS:   10788408 HIT:   10515837 MISS:     272571
cpu0_ITLB LOAD         ACCESS:   10788408 HIT:   10515837 MISS:     272571
cpu0_ITLB RFO          ACCESS:          0 HIT:          0 MISS:          0
cpu0_ITLB PREFETCH     ACCESS:          0 HIT:          0 MISS:          0
cpu0_ITLB WRITE        ACCESS:          0 HIT:          0 MISS:          0
cpu0_ITLB TRANSLATION  ACCESS:          0 HIT:          0 MISS:          0
cpu0_ITLB PREFETCH REQUESTED:          0 ISSUED:          0 USEFUL:          0 USELESS:          0
cpu0_ITLB AVERAGE MISS LATENCY: 11.36 cycles
cpu0_ITLB TOTAL        ACCESS:          0 HIT:          0 MISS:          0
cpu0_ITLB LOAD         ACCESS:          0 HIT:          0 MISS:          0
cpu0_ITLB RFO          ACCESS:          0 HIT:          0 MISS:          0
cpu0_ITLB PREFETCH     ACCESS:          0 HIT:          0 MISS:          0
cpu0_ITLB WRITE        ACCESS:          0 HIT:          0 MISS:          0
cpu0_ITLB TRANSLATION  ACCESS:          0 HIT:          0 MISS:          0
cpu0_ITLB PREFETCH REQUESTED:          0 ISSUED:          0 USEFUL:          0 USELESS:          0
cpu0_ITLB AVERAGE MISS LATENCY: 11.36 cycles
cpu0_ITLB TOTAL        ACCESS:          0 HIT:          0 MISS:          0
cpu0_ITLB LOAD         ACCESS:          0 HIT:          0 MISS:          0
cpu0_ITLB RFO          ACCESS:          0 HIT:          0 MISS:          0
cpu0_ITLB PREFETCH     ACCESS:          0 HIT:          0 MISS:          0
cpu0_ITLB WRITE        ACCESS:          0 HIT:          0 MISS:          0
cpu0_ITLB TRANSLATION  ACCESS:          0 HIT:          0 MISS:          0
cpu0_ITLB PREFETCH REQUESTED:          0 ISSUED:          0 USEFUL:          0 USELESS:          0
cpu0_ITLB AVERAGE MISS LATENCY: 11.36 cycles
cpu0_ITLB TOTAL        ACCESS:          0 HIT:          0 MISS:          0
cpu0_ITLB LOAD         ACCESS:          0 HIT:          0 MISS:          0
cpu0_ITLB RFO          ACCESS:          0 HIT:          0 MISS:          0
cpu0_ITLB PREFETCH     ACCESS:          0 HIT:          0 MISS:          0
cpu0_ITLB WRITE        ACCESS:          0 HIT:          0 MISS:          0
cpu0_ITLB TRANSLATION  ACCESS:          0 HIT:          0 MISS:          0
cpu0_ITLB PREFETCH REQUESTED:          0 ISSUED:          0 USEFUL:          0 USELESS:          0
cpu0_ITLB AVERAGE MISS LATENCY: 11.36 cycles
cpu0_L1D TOTAL        ACCESS:   49823889 HIT:   44902004 MISS:    4921885
cpu0_L1D LOAD         ACCESS:   22962015 HIT:   19895676 MISS:    3066339
cpu0_L1D RFO          ACCESS:          0 HIT:          0 MISS:          0
cpu0_L1D PREFETCH     ACCESS:          0 HIT:          0 MISS:          0
cpu0_L1D WRITE        ACCESS:   25970663 HIT:   24861109 MISS:    1109554
cpu0_L1D TRANSLATION  ACCESS:     891211 HIT:     145219 MISS:     745992
cpu0_L1D PREFETCH REQUESTED:          0 ISSUED:          0 USEFUL:          0 USELESS:          0
cpu0_L1D AVERAGE MISS LATENCY: 413.8 cycles
cpu0_L1D TOTAL        ACCESS:          0 HIT:          0 MISS:          0
cpu0_L1D LOAD         ACCESS:          0 HIT:          0 MISS:          0
cpu0_L1D RFO          ACCESS:          0 HIT:          0 MISS:          0
cpu0_L1D PREFETCH     ACCESS:          0 HIT:          0 MISS:          0
cpu0_L1D WRITE        ACCESS:          0 HIT:          0 MISS:          0
cpu0_L1D TRANSLATION  ACCESS:          0 HIT:          0 MISS:          0
cpu0_L1D PREFETCH REQUESTED:          0 ISSUED:          0 USEFUL:          0 USELESS:          0
cpu0_L1D AVERAGE MISS LATENCY: 413.8 cycles
cpu0_L1D TOTAL        ACCESS:          0 HIT:          0 MISS:          0
cpu0_L1D LOAD         ACCESS:          0 HIT:          0 MISS:          0
cpu0_L1D RFO          ACCESS:          0 HIT:          0 MISS:          0
cpu0_L1D PREFETCH     ACCESS:          0 HIT:          0 MISS:          0
cpu0_L1D WRITE        ACCESS:          0 HIT:          0 MISS:          0
cpu0_L1D TRANSLATION  ACCESS:          0 HIT:          0 MISS:          0
cpu0_L1D PREFETCH REQUESTED:          0 ISSUED:          0 USEFUL:          0 USELESS:          0
cpu0_L1D AVERAGE MISS LATENCY: 413.8 cycles
cpu0_L1D TOTAL        ACCESS:          0 HIT:          0 MISS:          0
cpu0_L1D LOAD         ACCESS:          0 HIT:          0 MISS:          0
cpu0_L1D RFO          ACCESS:          0 HIT:          0 MISS:          0
cpu0_L1D PREFETCH     ACCESS:          0 HIT:          0 MISS:          0
cpu0_L1D WRITE        ACCESS:          0 HIT:          0 MISS:          0
cpu0_L1D TRANSLATION  ACCESS:          0 HIT:          0 MISS:          0
cpu0_L1D PREFETCH REQUESTED:          0 ISSUED:          0 USEFUL:          0 USELESS:          0
cpu0_L1D AVERAGE MISS LATENCY: 413.8 cycles
cpu0_L1I TOTAL        ACCESS:   12873923 HIT:   12800003 MISS:      73920
cpu0_L1I LOAD         ACCESS:   12873923 HIT:   12800003 MISS:      73920
cpu0_L1I RFO          ACCESS:          0 HIT:          0 MISS:          0
cpu0_L1I PREFETCH     ACCESS:          0 HIT:          0 MISS:          0
cpu0_L1I WRITE        ACCESS:          0 HIT:          0 MISS:          0
cpu0_L1I TRANSLATION  ACCESS:          0 HIT:          0 MISS:          0
cpu0_L1I PREFETCH REQUESTED:          0 ISSUED:          0 USEFUL:          0 USELESS:          0
cpu0_L1I AVERAGE MISS LATENCY: 56.82 cycles
cpu0_L1I TOTAL        ACCESS:          0 HIT:          0 MISS:          0
cpu0_L1I LOAD         ACCESS:          0 HIT:          0 MISS:          0
cpu0_L1I RFO          ACCESS:          0 HIT:          0 MISS:          0
cpu0_L1I PREFETCH     ACCESS:          0 HIT:          0 MISS:          0
cpu0_L1I WRITE        ACCESS:          0 HIT:          0 MISS:          0
cpu0_L1I TRANSLATION  ACCESS:          0 HIT:          0 MISS:          0
cpu0_L1I PREFETCH REQUESTED:          0 ISSUED:          0 USEFUL:          0 USELESS:          0
cpu0_L1I AVERAGE MISS LATENCY: 56.82 cycles
cpu0_L1I TOTAL        ACCESS:          0 HIT:          0 MISS:          0
cpu0_L1I LOAD         ACCESS:          0 HIT:          0 MISS:          0
cpu0_L1I RFO          ACCESS:          0 HIT:          0 MISS:          0
cpu0_L1I PREFETCH     ACCESS:          0 HIT:          0 MISS:          0
cpu0_L1I WRITE        ACCESS:          0 HIT:          0 MISS:          0
cpu0_L1I TRANSLATION  ACCESS:          0 HIT:          0 MISS:          0
cpu0_L1I PREFETCH REQUESTED:          0 ISSUED:          0 USEFUL:          0 USELESS:          0
cpu0_L1I AVERAGE MISS LATENCY: 56.82 cycles
cpu0_L1I TOTAL        ACCESS:          0 HIT:          0 MISS:          0
cpu0_L1I LOAD         ACCESS:          0 HIT:          0 MISS:          0
cpu0_L1I RFO          ACCESS:          0 HIT:          0 MISS:          0
cpu0_L1I PREFETCH     ACCESS:          0 HIT:          0 MISS:          0
cpu0_L1I WRITE        ACCESS:          0 HIT:          0 MISS:          0
cpu0_L1I TRANSLATION  ACCESS:          0 HIT:          0 MISS:          0
cpu0_L1I PREFETCH REQUESTED:          0 ISSUED:          0 USEFUL:          0 USELESS:          0
cpu0_L1I AVERAGE MISS LATENCY: 56.82 cycles
cpu0_L2C TOTAL        ACCESS:    5050469 HIT:    2503307 MISS:    2547162
cpu0_L2C LOAD         ACCESS:    2539421 HIT:     848172 MISS:    1691249
cpu0_L2C RFO          ACCESS:     365447 HIT:     107652 MISS:     257795
cpu0_L2C PREFETCH     ACCESS:          0 HIT:          0 MISS:          0
cpu0_L2C WRITE        ACCESS:    1400417 HIT:    1398209 MISS:       2208
cpu0_L2C TRANSLATION  ACCESS:     745184 HIT:     149274 MISS:     595910
cpu0_L2C PREFETCH REQUESTED:          0 ISSUED:          0 USEFUL:          0 USELESS:          0
cpu0_L2C AVERAGE MISS LATENCY: 802.3 cycles
cpu0_L2C TOTAL        ACCESS:          0 HIT:          0 MISS:          0
cpu0_L2C LOAD         ACCESS:          0 HIT:          0 MISS:          0
cpu0_L2C RFO          ACCESS:          0 HIT:          0 MISS:          0
cpu0_L2C PREFETCH     ACCESS:          0 HIT:          0 MISS:          0
cpu0_L2C WRITE        ACCESS:          0 HIT:          0 MISS:          0
cpu0_L2C TRANSLATION  ACCESS:          0 HIT:          0 MISS:          0
cpu0_L2C PREFETCH REQUESTED:          0 ISSUED:          0 USEFUL:          0 USELESS:          0
cpu0_L2C AVERAGE MISS LATENCY: 802.3 cycles
cpu0_L2C TOTAL        ACCESS:          0 HIT:          0 MISS:          0
cpu0_L2C LOAD         ACCESS:          0 HIT:          0 MISS:          0
cpu0_L2C RFO          ACCESS:          0 HIT:          0 MISS:          0
cpu0_L2C PREFETCH     ACCESS:          0 HIT:          0 MISS:          0
cpu0_L2C WRITE        ACCESS:          0 HIT:          0 MISS:          0
cpu0_L2C TRANSLATION  ACCESS:          0 HIT:          0 MISS:          0
cpu0_L2C PREFETCH REQUESTED:          0 ISSUED:          0 USEFUL:          0 USELESS:          0
cpu0_L2C AVERAGE MISS LATENCY: 802.3 cycles
cpu0_L2C TOTAL        ACCESS:          0 HIT:          0 MISS:          0
cpu0_L2C LOAD         ACCESS:          0 HIT:          0 MISS:          0
cpu0_L2C RFO          ACCESS:          0 HIT:          0 MISS:          0
cpu0_L2C PREFETCH     ACCESS:          0 HIT:          0 MISS:          0
cpu0_L2C WRITE        ACCESS:          0 HIT:          0 MISS:          0
cpu0_L2C TRANSLATION  ACCESS:          0 HIT:          0 MISS:          0
cpu0_L2C PREFETCH REQUESTED:          0 ISSUED:          0 USEFUL:          0 USELESS:          0
cpu0_L2C AVERAGE MISS LATENCY: 802.3 cycles
cpu0_STLB TOTAL        ACCESS:    3014558 HIT:    2372138 MISS:     642420
cpu0_STLB LOAD         ACCESS:    3014558 HIT:    2372138 MISS:     642420
cpu0_STLB RFO          ACCESS:          0 HIT:          0 MISS:          0
cpu0_STLB PREFETCH     ACCESS:          0 HIT:          0 MISS:          0
cpu0_STLB WRITE        ACCESS:          0 HIT:          0 MISS:          0
cpu0_STLB TRANSLATION  ACCESS:          0 HIT:          0 MISS:          0
cpu0_STLB PREFETCH REQUESTED:          0 ISSUED:          0 USEFUL:          0 USELESS:          0
cpu0_STLB AVERAGE MISS LATENCY: 853.6 cycles
cpu0_STLB TOTAL        ACCESS:          0 HIT:          0 MISS:          0
cpu0_STLB LOAD         ACCESS:          0 HIT:          0 MISS:          0
cpu0_STLB RFO          ACCESS:          0 HIT:          0 MISS:          0
cpu0_STLB PREFETCH     ACCESS:          0 HIT:          0 MISS:          0
cpu0_STLB WRITE        ACCESS:          0 HIT:          0 MISS:          0
cpu0_STLB TRANSLATION  ACCESS:          0 HIT:          0 MISS:          0
cpu0_STLB PREFETCH REQUESTED:          0 ISSUED:          0 USEFUL:          0 USELESS:          0
cpu0_STLB AVERAGE MISS LATENCY: 853.6 cycles
cpu0_STLB TOTAL        ACCESS:          0 HIT:          0 MISS:          0
cpu0_STLB LOAD         ACCESS:          0 HIT:          0 MISS:          0
cpu0_STLB RFO          ACCESS:          0 HIT:          0 MISS:          0
cpu0_STLB PREFETCH     ACCESS:          0 HIT:          0 MISS:          0
cpu0_STLB WRITE        ACCESS:          0 HIT:          0 MISS:          0
cpu0_STLB TRANSLATION  ACCESS:          0 HIT:          0 MISS:          0
cpu0_STLB PREFETCH REQUESTED:          0 ISSUED:          0 USEFUL:          0 USELESS:          0
cpu0_STLB AVERAGE MISS LATENCY: 853.6 cycles
cpu0_STLB TOTAL        ACCESS:          0 HIT:          0 MISS:          0
cpu0_STLB LOAD         ACCESS:          0 HIT:          0 MISS:          0
cpu0_STLB RFO          ACCESS:          0 HIT:          0 MISS:          0
cpu0_STLB PREFETCH     ACCESS:          0 HIT:          0 MISS:          0
cpu0_STLB WRITE        ACCESS:          0 HIT:          0 MISS:          0
cpu0_STLB TRANSLATION  ACCESS:          0 HIT:          0 MISS:          0
cpu0_STLB PREFETCH REQUESTED:          0 ISSUED:          0 USEFUL:          0 USELESS:          0
cpu0_STLB AVERAGE MISS LATENCY: 853.6 cycles
cpu1_DTLB TOTAL        ACCESS:          0 HIT:          0 MISS:          0
cpu1_DTLB LOAD         ACCESS:          0 HIT:          0 MISS:          0
cpu1_DTLB RFO          ACCESS:          0 HIT:          0 MISS:          0
cpu1_DTLB PREFETCH     ACCESS:          0 HIT:          0 MISS:          0
cpu1_DTLB WRITE        ACCESS:          0 HIT:          0 MISS:          0
cpu1_DTLB TRANSLATION  ACCESS:          0 HIT:          0 MISS:          0
cpu1_DTLB PREFETCH REQUESTED:          0 ISSUED:          0 USEFUL:          0 USELESS:          0
cpu1_DTLB AVERAGE MISS LATENCY: 29.14 cycles
cpu1_DTLB TOTAL        ACCESS:   41952090 HIT:   41699886 MISS:     252204
cpu1_DTLB LOAD         ACCESS:   41952090 HIT:   41699886 MISS:     252204
cpu1_DTLB RFO          ACCESS:          0 HIT:          0 MISS:          0
cpu1_DTLB PREFETCH     ACCESS:          0 HIT:          0 MISS:          0
cpu1_DTLB WRITE        ACCESS:          0 HIT:          0 MISS:          0
cpu1_DTLB TRANSLATION  ACCESS:          0 HIT:          0 MISS:          0
cpu1_DTLB PREFETCH REQUESTED:          0 ISSUED:          0 USEFUL:          0 USELESS:          0
cpu1_DTLB AVERAGE MISS LATENCY: 29.14 cycles
cpu1_DTLB TOTAL        ACCESS:          0 HIT:          0 MISS:          0
cpu1_DTLB LOAD         ACCESS:          0 HIT:          0 MISS:          0
cpu1_DTLB RFO          ACCESS:          0 HIT:          0 MISS:          0
cpu1_DTLB PREFETCH     ACCESS:          0 HIT:          0 MISS:          0
cpu1_DTLB WRITE        ACCESS:          0 HIT:          0 MISS:          0
cpu1_DTLB TRANSLATION  ACCESS:          0 HIT:          0 MISS:          0
cpu1_DTLB PREFETCH REQUESTED:          0 ISSUED:          0 USEFUL:          0 USELESS:          0
cpu1_DTLB AVERAGE MISS LATENCY: 29.14 cycles
cpu1_DTLB TOTAL        ACCESS:          0 HIT:          0 MISS:          0
cpu1_DTLB LOAD         ACCESS:          0 HIT:          0 MISS:          0
cpu1_DTLB RFO          ACCESS:          0 HIT:          0 MISS:          0
cpu1_DTLB PREFETCH     ACCESS:          0 HIT:          0 MISS:          0
cpu1_DTLB WRITE        ACCESS:          0 HIT:          0 MISS:          0
cpu1_DTLB TRANSLATION  ACCESS:          0 HIT:          0 MISS:          0
cpu1_DTLB PREFETCH REQUESTED:          0 ISSUED:          0 USEFUL:          0 USELESS:          0
cpu1_DTLB AVERAGE MISS LATENCY: 29.14 cycles
cpu1_ITLB TOTAL        ACCESS:          0 HIT:          0 MISS:          0
cpu1_ITLB LOAD         ACCESS:          0 HIT:          0 MISS:          0
cpu1_ITLB RFO          ACCESS:          0 HIT:          0 MISS:          0
cpu1_ITLB PREFETCH     ACCESS:          0 HIT:          0 MISS:          0
cpu1_ITLB WRITE        ACCESS:          0 HIT:          0 MISS:          0
cpu1_ITLB TRANSLATION  ACCESS:          0 HIT:          0 MISS:          0
cpu1_ITLB PREFETCH REQUESTED:          0 ISSUED:          0 USEFUL:          0 USELESS:          0
cpu1_ITLB AVERAGE MISS LATENCY: 2036 cycles
cpu1_ITLB TOTAL        ACCESS:       2739 HIT:       2719 MISS:         20
cpu1_ITLB LOAD         ACCESS:       2739 HIT:       2719 MISS:         20
cpu1_ITLB RFO          ACCESS:          0 HIT:          0 MISS:          0
cpu1_ITLB PREFETCH     ACCESS:          0 HIT:          0 MISS:          0
cpu1_ITLB WRITE        ACCESS:          0 HIT:          0 MISS:          0
cpu1_ITLB TRANSLATION  ACCESS:          0 HIT:          0 MISS:          0
cpu1_ITLB PREFETCH REQUESTED:          0 ISSUED:          0 USEFUL:          0 USELESS:          0
cpu1_ITLB AVERAGE MISS LATENCY: 2036 cycles
cpu1_ITLB TOTAL        ACCESS:          0 HIT:          0 MISS:          0
cpu1_ITLB LOAD         ACCESS:          0 HIT:          0 MISS:          0
cpu1_ITLB RFO          ACCESS:          0 HIT:          0 MISS:          0
cpu1_ITLB PREFETCH     ACCESS:          0 HIT:          0 MISS:          0
cpu1_ITLB WRITE        ACCESS:          0 HIT:          0 MISS:          0
cpu1_ITLB TRANSLATION  ACCESS:          0 HIT:          0 MISS:          0
cpu1_ITLB PREFETCH REQUESTED:          0 ISSUED:          0 USEFUL:          0 USELESS:          0
cpu1_ITLB AVERAGE MISS LATENCY: 2036 cycles
cpu1_ITLB TOTAL        ACCESS:          0 HIT:          0 MISS:          0
cpu1_ITLB LOAD         ACCESS:          0 HIT:          0 MISS:          0
cpu1_ITLB RFO          ACCESS:          0 HIT:          0 MISS:          0
cpu1_ITLB PREFETCH     ACCESS:          0 HIT:          0 MISS:          0
cpu1_ITLB WRITE        ACCESS:          0 HIT:          0 MISS:          0
cpu1_ITLB TRANSLATION  ACCESS:          0 HIT:          0 MISS:          0
cpu1_ITLB PREFETCH REQUESTED:          0 ISSUED:          0 USEFUL:          0 USELESS:          0
cpu1_ITLB AVERAGE MISS LATENCY: 2036 cycles
cpu1_L1D TOTAL        ACCESS:          0 HIT:          0 MISS:          0
cpu1_L1D LOAD         ACCESS:          0 HIT:          0 MISS:          0
cpu1_L1D RFO          ACCESS:          0 HIT:          0 MISS:          0
cpu1_L1D PREFETCH     ACCESS:          0 HIT:          0 MISS:          0
cpu1_L1D WRITE        ACCESS:          0 HIT:          0 MISS:          0
cpu1_L1D TRANSLATION  ACCESS:          0 HIT:          0 MISS:          0
cpu1_L1D PREFETCH REQUESTED:          0 ISSUED:          0 USEFUL:          0 USELESS:          0
cpu1_L1D AVERAGE MISS LATENCY: 242.1 cycles
cpu1_L1D TOTAL        ACCESS:   61858477 HIT:   52758907 MISS:    9099570
cpu1_L1D LOAD         ACCESS:   36575273 HIT:   27505451 MISS:    9069822
cpu1_L1D RFO          ACCESS:          0 HIT:          0 MISS:          0
cpu1_L1D PREFETCH     ACCESS:          0 HIT:          0 MISS:          0
cpu1_L1D WRITE        ACCESS:   25234303 HIT:   25206514 MISS:      27789
cpu1_L1D TRANSLATION  ACCESS:      48901 HIT:      46942 MISS:       1959
cpu1_L1D PREFETCH REQUESTED:          0 ISSUED:          0 USEFUL:          0 USELESS:          0
cpu1_L1D AVERAGE MISS LATENCY: 242.1 cycles
cpu1_L1D TOTAL        ACCESS:          0 HIT:          0 MISS:          0
cpu1_L1D LOAD         ACCESS:          0 HIT:          0 MISS:          0
cpu1_L1D RFO          ACCESS:          0 HIT:          0 MISS:          0
cpu1_L1D PREFETCH     ACCESS:          0 HIT:          0 MISS:          0
cpu1_L1D WRITE        ACCESS:          0 HIT:          0 MISS:          0
cpu1_L1D TRANSLATION  ACCESS:          0 HIT:          0 MISS:          0
cpu1_L1D PREFETCH REQUESTED:          0 ISSUED:          0 USEFUL:          0 USELESS:          0
cpu1_L1D AVERAGE MISS LATENCY: 242.1 cycles
cpu1_L1D TOTAL        ACCESS:          0 HIT:          0 MISS:          0
cpu1_L1D LOAD         ACCESS:          0 HIT:          0 MISS:          0
cpu1_L1D RFO          ACCESS:          0 HIT:          0 MISS:          0
cpu1_L1D PREFETCH     ACCESS:          0 HIT:          0 MISS:          0
cpu1_L1D WRITE        ACCESS:          0 HIT:          0 MISS:          0
cpu1_L1D TRANSLATION  ACCESS:          0 HIT:          0 MISS:          0
cpu1_L1D PREFETCH REQUESTED:          0 ISSUED:          0 USEFUL:          0 USELESS:          0
cpu1_L1D AVERAGE MISS LATENCY: 242.1 cycles
cpu1_L1I TOTAL        ACCESS:          0 HIT:          0 MISS:          0
cpu1_L1I LOAD         ACCESS:          0 HIT:          0 MISS:          0
cpu1_L1I RFO          ACCESS:          0 HIT:          0 MISS:          0
cpu1_L1I PREFETCH     ACCESS:          0 HIT:          0 MISS:          0
cpu1_L1I WRITE        ACCESS:          0 HIT:          0 MISS:          0
cpu1_L1I TRANSLATION  ACCESS:          0 HIT:          0 MISS:          0
cpu1_L1I PREFETCH REQUESTED:          0 ISSUED:          0 USEFUL:          0 USELESS:          0
cpu1_L1I AVERAGE MISS LATENCY: 2148 cycles
cpu1_L1I TOTAL        ACCESS:       3217 HIT:       2871 MISS:        346
cpu1_L1I LOAD         ACCESS:       3217 HIT:       2871 MISS:        346
cpu1_L1I RFO          ACCESS:          0 HIT:          0 MISS:          0
cpu1_L1I PREFETCH     ACCESS:          0 HIT:          0 MISS:          0
cpu1_L1I WRITE        ACCESS:          0 HIT:          0 MISS:          0
cpu1_L1I TRANSLATION  ACCESS:          0 HIT:          0 MISS:          0
cpu1_L1I PREFETCH REQUESTED:          0 ISSUED:          0 USEFUL:          0 USELESS:          0
cpu1_L1I AVERAGE MISS LATENCY: 2148 cycles
cpu1_L1I TOTAL        ACCESS:          0 HIT:          0 MISS:          0
cpu1_L1I LOAD         ACCESS:          0 HIT:          0 MISS:          0
cpu1_L1I RFO          ACCESS:          0 HIT:          0 MISS:          0
cpu1_L1I PREFETCH     ACCESS:          0 HIT:          0 MISS:          0
cpu1_L1I WRITE        ACCESS:          0 HIT:          0 MISS:          0
cpu1_L1I TRANSLATION  ACCESS:          0 HIT:          0 MISS:          0
cpu1_L1I PREFETCH REQUESTED:          0 ISSUED:          0 USEFUL:          0 USELESS:          0
cpu1_L1I AVERAGE MISS LATENCY: 2148 cycles
cpu1_L1I TOTAL        ACCESS:          0 HIT:          0 MISS:          0
cpu1_L1I LOAD         ACCESS:          0 HIT:          0 MISS:          0
cpu1_L1I RFO          ACCESS:          0 HIT:          0 MISS:          0
cpu1_L1I PREFETCH     ACCESS:          0 HIT:          0 MISS:          0
cpu1_L1I WRITE        ACCESS:          0 HIT:          0 MISS:          0
cpu1_L1I TRANSLATION  ACCESS:          0 HIT:          0 MISS:          0
cpu1_L1I PREFETCH REQUESTED:          0 ISSUED:          0 USEFUL:          0 USELESS:          0
cpu1_L1I AVERAGE MISS LATENCY: 2148 cycles
cpu1_L2C TOTAL        ACCESS:          0 HIT:          0 MISS:          0
cpu1_L2C LOAD         ACCESS:          0 HIT:          0 MISS:          0
cpu1_L2C RFO          ACCESS:          0 HIT:          0 MISS:          0
cpu1_L2C PREFETCH     ACCESS:          0 HIT:          0 MISS:          0
cpu1_L2C WRITE        ACCESS:          0 HIT:          0 MISS:          0
cpu1_L2C TRANSLATION  ACCESS:          0 HIT:          0 MISS:          0
cpu1_L2C PREFETCH REQUESTED:          0 ISSUED:          0 USEFUL:          0 USELESS:          0
cpu1_L2C AVERAGE MISS LATENCY: 845 cycles
cpu1_L2C TOTAL        ACCESS:    7817516 HIT:    4584327 MISS:    3233189
cpu1_L2C LOAD         ACCESS:    4690042 HIT:    1458767 MISS:    3231275
cpu1_L2C RFO          ACCESS:       7453 HIT:       6127 MISS:       1326
cpu1_L2C PREFETCH     ACCESS:          0 HIT:          0 MISS:          0
cpu1_L2C WRITE        ACCESS:    3118074 HIT:    3118074 MISS:          0
cpu1_L2C TRANSLATION  ACCESS:       1947 HIT:       1359 MISS:        588
cpu1_L2C PREFETCH REQUESTED:          0 ISSUED:          0 USEFUL:          0 USELESS:          0
cpu1_L2C AVERAGE MISS LATENCY: 845 cycles
cpu1_L2C TOTAL        ACCESS:          0 HIT:          0 MISS:          0
cpu1_L2C LOAD         ACCESS:          0 HIT:          0 MISS:          0
cpu1_L2C RFO          ACCESS:          0 HIT:          0 MISS:          0
cpu1_L2C PREFETCH     ACCESS:          0 HIT:          0 MISS:          0
cpu1_L2C WRITE        ACCESS:          0 HIT:          0 MISS:          0
cpu1_L2C TRANSLATION  ACCESS:          0 HIT:          0 MISS:          0
cpu1_L2C PREFETCH REQUESTED:          0 ISSUED:          0 USEFUL:          0 USELESS:          0
cpu1_L2C AVERAGE MISS LATENCY: 845 cycles
cpu1_L2C TOTAL        ACCESS:          0 HIT:          0 MISS:          0
cpu1_L2C LOAD         ACCESS:          0 HIT:          0 MISS:          0
cpu1_L2C RFO          ACCESS:          0 HIT:          0 MISS:          0
cpu1_L2C PREFETCH     ACCESS:          0 HIT:          0 MISS:          0
cpu1_L2C WRITE        ACCESS:          0 HIT:          0 MISS:          0
cpu1_L2C TRANSLATION  ACCESS:          0 HIT:          0 MISS:          0
cpu1_L2C PREFETCH REQUESTED:          0 ISSUED:          0 USEFUL:          0 USELESS:          0
cpu1_L2C AVERAGE MISS LATENCY: 845 cycles
cpu1_STLB TOTAL        ACCESS:          0 HIT:          0 MISS:          0
cpu1_STLB LOAD         ACCESS:          0 HIT:          0 MISS:          0
cpu1_STLB RFO          ACCESS:          0 HIT:          0 MISS:          0
cpu1_STLB PREFETCH     ACCESS:          0 HIT:          0 MISS:          0
cpu1_STLB WRITE        ACCESS:          0 HIT:          0 MISS:          0
cpu1_STLB TRANSLATION  ACCESS:          0 HIT:          0 MISS:          0
cpu1_STLB PREFETCH REQUESTED:          0 ISSUED:          0 USEFUL:          0 USELESS:          0
cpu1_STLB AVERAGE MISS LATENCY: 217.3 cycles
cpu1_STLB TOTAL        ACCESS:      82946 HIT:      34232 MISS:      48714
cpu1_STLB LOAD         ACCESS:      82946 HIT:      34232 MISS:      48714
cpu1_STLB RFO          ACCESS:          0 HIT:          0 MISS:          0
cpu1_STLB PREFETCH     ACCESS:          0 HIT:          0 MISS:          0
cpu1_STLB WRITE        ACCESS:          0 HIT:          0 MISS:          0
cpu1_STLB TRANSLATION  ACCESS:          0 HIT:          0 MISS:          0
cpu1_STLB PREFETCH REQUESTED:          0 ISSUED:          0 USEFUL:          0 USELESS:          0
cpu1_STLB AVERAGE MISS LATENCY: 217.3 cycles
cpu1_STLB TOTAL        ACCESS:          0 HIT:          0 MISS:          0
cpu1_STLB LOAD         ACCESS:          0 HIT:          0 MISS:          0
cpu1_STLB RFO          ACCESS:          0 HIT:          0 MISS:          0
cpu1_STLB PREFETCH     ACCESS:          0 HIT:          0 MISS:          0
cpu1_STLB WRITE        ACCESS:          0 HIT:          0 MISS:          0
cpu1_STLB TRANSLATION  ACCESS:          0 HIT:          0 MISS:          0
cpu1_STLB PREFETCH REQUESTED:          0 ISSUED:          0 USEFUL:          0 USELESS:          0
cpu1_STLB AVERAGE MISS LATENCY: 217.3 cycles
cpu1_STLB TOTAL        ACCESS:          0 HIT:          0 MISS:          0
cpu1_STLB LOAD         ACCESS:          0 HIT:          0 MISS:          0
cpu1_STLB RFO          ACCESS:          0 HIT:          0 MISS:          0
cpu1_STLB PREFETCH     ACCESS:          0 HIT:          0 MISS:          0
cpu1_STLB WRITE        ACCESS:          0 HIT:          0 MISS:          0
cpu1_STLB TRANSLATION  ACCESS:          0 HIT:          0 MISS:          0
cpu1_STLB PREFETCH REQUESTED:          0 ISSUED:          0 USEFUL:          0 USELESS:          0
cpu1_STLB AVERAGE MISS LATENCY: 217.3 cycles
cpu2_DTLB TOTAL        ACCESS:          0 HIT:          0 MISS:          0
cpu2_DTLB LOAD         ACCESS:          0 HIT:          0 MISS:          0
cpu2_DTLB RFO          ACCESS:          0 HIT:          0 MISS:          0
cpu2_DTLB PREFETCH     ACCESS:          0 HIT:          0 MISS:          0
cpu2_DTLB WRITE        ACCESS:          0 HIT:          0 MISS:          0
cpu2_DTLB TRANSLATION  ACCESS:          0 HIT:          0 MISS:          0
cpu2_DTLB PREFETCH REQUESTED:          0 ISSUED:          0 USEFUL:          0 USELESS:          0
cpu2_DTLB AVERAGE MISS LATENCY: 7.886 cycles
cpu2_DTLB TOTAL        ACCESS:          0 HIT:          0 MISS:          0
cpu2_DTLB LOAD         ACCESS:          0 HIT:          0 MISS:          0
cpu2_DTLB RFO          ACCESS:          0 HIT:          0 MISS:          0
cpu2_DTLB PREFETCH     ACCESS:          0 HIT:          0 MISS:          0
cpu2_DTLB WRITE        ACCESS:          0 HIT:          0 MISS:          0
cpu2_DTLB TRANSLATION  ACCESS:          0 HIT:          0 MISS:          0
cpu2_DTLB PREFETCH REQUESTED:          0 ISSUED:          0 USEFUL:          0 USELESS:          0
cpu2_DTLB AVERAGE MISS LATENCY: 7.886 cycles
cpu2_DTLB TOTAL        ACCESS:  178970366 HIT:  145639888 MISS:   33330478
cpu2_DTLB LOAD         ACCESS:  178970366 HIT:  145639888 MISS:   33330478
cpu2_DTLB RFO          ACCESS:          0 HIT:          0 MISS:          0
cpu2_DTLB PREFETCH     ACCESS:          0 HIT:          0 MISS:          0
cpu2_DTLB WRITE        ACCESS:          0 HIT:          0 MISS:          0
cpu2_DTLB TRANSLATION  ACCESS:          0 HIT:          0 MISS:          0
cpu2_DTLB PREFETCH REQUESTED:          0 ISSUED:          0 USEFUL:          0 USELESS:          0
cpu2_DTLB AVERAGE MISS LATENCY: 7.886 cycles
cpu2_DTLB TOTAL        ACCESS:          0 HIT:          0 MISS:          0
cpu2_DTLB LOAD         ACCESS:          0 HIT:          0 MISS:          0
cpu2_DTLB RFO          ACCESS:          0 HIT:          0 MISS:          0
cpu2_DTLB PREFETCH     ACCESS:          0 HIT:          0 MISS:          0
cpu2_DTLB WRITE        ACCESS:          0 HIT:          0 MISS:          0
cpu2_DTLB TRANSLATION  ACCESS:          0 HIT:          0 MISS:          0
cpu2_DTLB PREFETCH REQUESTED:          0 ISSUED:          0 USEFUL:          0 USELESS:          0
cpu2_DTLB AVERAGE MISS LATENCY: 7.886 cycles
cpu2_ITLB TOTAL        ACCESS:          0 HIT:          0 MISS:          0
cpu2_ITLB LOAD         ACCESS:          0 HIT:          0 MISS:          0
cpu2_ITLB RFO          ACCESS:          0 HIT:          0 MISS:          0
cpu2_ITLB PREFETCH     ACCESS:          0 HIT:          0 MISS:          0
cpu2_ITLB WRITE        ACCESS:          0 HIT:          0 MISS:          0
cpu2_ITLB TRANSLATION  ACCESS:          0 HIT:          0 MISS:          0
cpu2_ITLB PREFETCH REQUESTED:          0 ISSUED:          0 USEFUL:          0 USELESS:          0
cpu2_ITLB AVERAGE MISS LATENCY: 7.042 cycles
cpu2_ITLB TOTAL        ACCESS:          0 HIT:          0 MISS:          0
cpu2_ITLB LOAD         ACCESS:          0 HIT:          0 MISS:          0
cpu2_ITLB RFO          ACCESS:          0 HIT:          0 MISS:          0
cpu2_ITLB PREFETCH     ACCESS:          0 HIT:          0 MISS:          0
cpu2_ITLB WRITE        ACCESS:          0 HIT:          0 MISS:          0
cpu2_ITLB TRANSLATION  ACCESS:          0 HIT:          0 MISS:          0
cpu2_ITLB PREFETCH REQUESTED:          0 ISSUED:          0 USEFUL:          0 USELESS:          0
cpu2_ITLB AVERAGE MISS LATENCY: 7.042 cycles
cpu2_ITLB TOTAL        ACCESS:   28795900 HIT:   28145150 MISS:     650750
cpu2_ITLB LOAD         ACCESS:   28795900 HIT:   28145150 MISS:     650750
cpu2_ITLB RFO          ACCESS:          0 HIT:          0 MISS:          0
cpu2_ITLB PREFETCH     ACCESS:          0 HIT:          0 MISS:          0
cpu2_ITLB WRITE        ACCESS:          0 HIT:          0 MISS:          0
cpu2_ITLB TRANSLATION  ACCESS:          0 HIT:          0 MISS:          0
cpu2_ITLB PREFETCH REQUESTED:          0 ISSUED:          0 USEFUL:          0 USELESS:          0
cpu2_ITLB AVERAGE MISS LATENCY: 7.042 cycles
cpu2_ITLB TOTAL        ACCESS:          0 HIT:          0 MISS:          0
cpu2_ITLB LOAD         ACCESS:          0 HIT:          0 MISS:          0
cpu2_ITLB RFO          ACCESS:          0 HIT:          0 MISS:          0
cpu2_ITLB PREFETCH     ACCESS:          0 HIT:          0 MISS:          0
cpu2_ITLB WRITE        ACCESS:          0 HIT:          0 MISS:          0
cpu2_ITLB TRANSLATION  ACCESS:          0 HIT:          0 MISS:          0
cpu2_ITLB PREFETCH REQUESTED:          0 ISSUED:          0 USEFUL:          0 USELESS:          0
cpu2_ITLB AVERAGE MISS LATENCY: 7.042 cycles
cpu2_L1D TOTAL        ACCESS:          0 HIT:          0 MISS:          0
cpu2_L1D LOAD         ACCESS:          0 HIT:          0 MISS:          0
cpu2_L1D RFO          ACCESS:          0 HIT:          0 MISS:          0
cpu2_L1D PREFETCH     ACCESS:          0 HIT:          0 MISS:          0
cpu2_L1D WRITE        ACCESS:          0 HIT:          0 MISS:          0
cpu2_L1D TRANSLATION  ACCESS:          0 HIT:          0 MISS:          0
cpu2_L1D PREFETCH REQUESTED:          0 ISSUED:          0 USEFUL:          0 USELESS:          0
cpu2_L1D AVERAGE MISS LATENCY: 50.32 cycles
cpu2_L1D TOTAL        ACCESS:          0 HIT:          0 MISS:          0
cpu2_L1D LOAD         ACCESS:          0 HIT:          0 MISS:          0
cpu2_L1D RFO          ACCESS:          0 HIT:          0 MISS:          0
cpu2_L1D PREFETCH     ACCESS:          0 HIT:          0 MISS:          0
cpu2_L1D WRITE        ACCESS:          0 HIT:          0 MISS:          0
cpu2_L1D TRANSLATION  ACCESS:          0 HIT:          0 MISS:          0
cpu2_L1D PREFETCH REQUESTED:          0 ISSUED:          0 USEFUL:          0 USELESS:          0
cpu2_L1D AVERAGE MISS LATENCY: 50.32 cycles
cpu2_L1D TOTAL        ACCESS:  226249023 HIT:  167218045 MISS:   59030978
cpu2_L1D LOAD         ACCESS:  162648174 HIT:  110369025 MISS:   52279149
cpu2_L1D RFO          ACCESS:          0 HIT:          0 MISS:          0
cpu2_L1D PREFETCH     ACCESS:          0 HIT:          0 MISS:          0
cpu2_L1D WRITE        ACCESS:   62160303 HIT:   56782801 MISS:    5377502
cpu2_L1D TRANSLATION  ACCESS:    1440546 HIT:      66219 MISS:    1374327
cpu2_L1D PREFETCH REQUESTED:          0 ISSUED:          0 USEFUL:          0 USELESS:          0
cpu2_L1D AVERAGE MISS LATENCY: 50.32 cycles
cpu2_L1D TOTAL        ACCESS:          0 HIT:          0 MISS:          0
cpu2_L1D LOAD         ACCESS:          0 HIT:          0 MISS:          0
cpu2_L1D RFO          ACCESS:          0 HIT:          0 MISS:          0
cpu2_L1D PREFETCH     ACCESS:          0 HIT:          0 MISS:          0
cpu2_L1D WRITE        ACCESS:          0 HIT:          0 MISS:          0
cpu2_L1D TRANSLATION  ACCESS:          0 HIT:          0 MISS:          0
cpu2_L1D PREFETCH REQUESTED:          0 ISSUED:          0 USEFUL:          0 USELESS:          0
cpu2_L1D AVERAGE MISS LATENCY: 50.32 cycles
cpu2_L1I TOTAL        ACCESS:          0 HIT:          0 MISS:          0
cpu2_L1I LOAD         ACCESS:          0 HIT:          0 MISS:          0
cpu2_L1I RFO          ACCESS:          0 HIT:          0 MISS:          0
cpu2_L1I PREFETCH     ACCESS:          0 HIT:          0 MISS:          0
cpu2_L1I WRITE        ACCESS:          0 HIT:          0 MISS:          0
cpu2_L1I TRANSLATION  ACCESS:          0 HIT:          0 MISS:          0
cpu2_L1I PREFETCH REQUESTED:          0 ISSUED:          0 USEFUL:          0 USELESS:          0
cpu2_L1I AVERAGE MISS LATENCY: 16.38 cycles
cpu2_L1I TOTAL        ACCESS:          0 HIT:          0 MISS:          0
cpu2_L1I LOAD         ACCESS:          0 HIT:          0 MISS:          0
cpu2_L1I RFO          ACCESS:          0 HIT:          0 MISS:          0
cpu2_L1I PREFETCH     ACCESS:          0 HIT:          0 MISS:          0
cpu2_L1I WRITE        ACCESS:          0 HIT:          0 MISS:          0
cpu2_L1I TRANSLATION  ACCESS:          0 HIT:          0 MISS:          0
cpu2_L1I PREFETCH REQUESTED:          0 ISSUED:          0 USEFUL:          0 USELESS:          0
cpu2_L1I AVERAGE MISS LATENCY: 16.38 cycles
cpu2_L1I TOTAL        ACCESS:   34321294 HIT:   31326716 MISS:    2994578
cpu2_L1I LOAD         ACCESS:   34321294 HIT:   31326716 MISS:    2994578
cpu2_L1I RFO          ACCESS:          0 HIT:          0 MISS:          0
cpu2_L1I PREFETCH     ACCESS:          0 HIT:          0 MISS:          0
cpu2_L1I WRITE        ACCESS:          0 HIT:          0 MISS:          0
cpu2_L1I TRANSLATION  ACCESS:          0 HIT:          0 MISS:          0
cpu2_L1I PREFETCH REQUESTED:          0 ISSUED:          0 USEFUL:          0 USELESS:          0
cpu2_L1I AVERAGE MISS LATENCY: 16.38 cycles
cpu2_L1I TOTAL        ACCESS:          0 HIT:          0 MISS:          0
cpu2_L1I LOAD         ACCESS:          0 HIT:          0 MISS:          0
cpu2_L1I RFO          ACCESS:          0 HIT:          0 MISS:          0
cpu2_L1I PREFETCH     ACCESS:          0 HIT:          0 MISS:          0
cpu2_L1I WRITE        ACCESS:          0 HIT:          0 MISS:          0
cpu2_L1I TRANSLATION  ACCESS:          0 HIT:          0 MISS:          0
cpu2_L1I PREFETCH REQUESTED:          0 ISSUED:          0 USEFUL:          0 USELESS:          0
cpu2_L1I AVERAGE MISS LATENCY: 16.38 cycles
cpu2_L2C TOTAL        ACCESS:          0 HIT:          0 MISS:          0
cpu2_L2C LOAD         ACCESS:          0 HIT:          0 MISS:          0
cpu2_L2C RFO          ACCESS:          0 HIT:          0 MISS:          0
cpu2_L2C PREFETCH     ACCESS:          0 HIT:          0 MISS:          0
cpu2_L2C WRITE        ACCESS:          0 HIT:          0 MISS:          0
cpu2_L2C TRANSLATION  ACCESS:          0 HIT:          0 MISS:          0
cpu2_L2C PREFETCH REQUESTED:          0 ISSUED:          0 USEFUL:          0 USELESS:          0
cpu2_L2C AVERAGE MISS LATENCY: 876.4 cycles
cpu2_L2C TOTAL        ACCESS:          0 HIT:          0 MISS:          0
cpu2_L2C LOAD         ACCESS:          0 HIT:          0 MISS:          0
cpu2_L2C RFO          ACCESS:          0 HIT:          0 MISS:          0
cpu2_L2C PREFETCH     ACCESS:          0 HIT:          0 MISS:          0
cpu2_L2C WRITE        ACCESS:          0 HIT:          0 MISS:          0
cpu2_L2C TRANSLATION  ACCESS:          0 HIT:          0 MISS:          0
cpu2_L2C PREFETCH REQUESTED:          0 ISSUED:          0 USEFUL:          0 USELESS:          0
cpu2_L2C AVERAGE MISS LATENCY: 876.4 cycles
cpu2_L2C TOTAL        ACCESS:   47725517 HIT:   44748035 MISS:    2977482
cpu2_L2C LOAD         ACCESS:   42861195 HIT:   41187286 MISS:    1673909
cpu2_L2C RFO          ACCESS:    1369832 HIT:     237832 MISS:    1132000
cpu2_L2C PREFETCH     ACCESS:          0 HIT:          0 MISS:          0
cpu2_L2C WRITE        ACCESS:    2120648 HIT:    2120606 MISS:         42
cpu2_L2C TRANSLATION  ACCESS:    1373842 HIT:    1202311 MISS:     171531
cpu2_L2C PREFETCH REQUESTED:          0 ISSUED:          0 USEFUL:          0 USELESS:          0
cpu2_L2C AVERAGE MISS LATENCY: 876.4 cycles
cpu2_L2C TOTAL        ACCESS:          0 HIT:          0 MISS:          0
cpu2_L2C LOAD         ACCESS:          0 HIT:          0 MISS:          0
cpu2_L2C RFO          ACCESS:          0 HIT:          0 MISS:          0
cpu2_L2C PREFETCH     ACCESS:          0 HIT:          0 MISS:          0
cpu2_L2C WRITE        ACCESS:          0 HIT:          0 MISS:          0
cpu2_L2C TRANSLATION  ACCESS:          0 HIT:          0 MISS:          0
[...]
cpu2_L1I WRITE        ACCESS:          0 HIT:          0 MISS:          0
cpu2_L1I TRANSLATION  ACCESS:          0 HIT:          0 MISS:          0
cpu2_L1I PREFETCH REQUESTED:          0 ISSUED:          0 USEFUL:          0 USELESS:          0
cpu2_L1I AVERAGE MISS LATENCY: 16.38 cycles
cpu2_L1I TOTAL        ACCESS:          0 HIT:          0 MISS:          0
cpu2_L1I LOAD         ACCESS:          0 HIT:          0 MISS:          0
cpu2_L1I RFO          ACCESS:          0 HIT:          0 MISS:          0
cpu2_L1I PREFETCH     ACCESS:          0 HIT:          0 MISS:          0
cpu2_L1I WRITE        ACCESS:          0 HIT:          0 MISS:          0
cpu2_L1I TRANSLATION  ACCESS:          0 HIT:          0 MISS:          0
cpu2_L1I PREFETCH REQUESTED:          0 ISSUED:          0 USEFUL:          0 USELESS:          0
cpu2_L1I AVERAGE MISS LATENCY: 16.38 cycles
cpu2_L2C TOTAL        ACCESS:          0 HIT:          0 MISS:          0
cpu2_L2C LOAD         ACCESS:          0 HIT:          0 MISS:          0
cpu2_L2C RFO          ACCESS:          0 HIT:          0 MISS:          0
cpu2_L2C PREFETCH     ACCESS:          0 HIT:          0 MISS:          0
cpu2_L2C WRITE        ACCESS:          0 HIT:          0 MISS:          0
cpu2_L2C TRANSLATION  ACCESS:          0 HIT:          0 MISS:          0
cpu2_L2C PREFETCH REQUESTED:          0 ISSUED:          0 USEFUL:          0 USELESS:          0
cpu2_L2C AVERAGE MISS LATENCY: 876.4 cycles
cpu2_L2C TOTAL        ACCESS:          0 HIT:          0 MISS:          0
cpu2_L2C LOAD         ACCESS:          0 HIT:          0 MISS:          0
cpu2_L2C RFO          ACCESS:          0 HIT:          0 MISS:          0
cpu2_L2C PREFETCH     ACCESS:          0 HIT:          0 MISS:          0
cpu2_L2C WRITE        ACCESS:          0 HIT:          0 MISS:          0
cpu2_L2C TRANSLATION  ACCESS:          0 HIT:          0 MISS:          0
cpu2_L2C PREFETCH REQUESTED:          0 ISSUED:          0 USEFUL:          0 USELESS:          0
cpu2_L2C AVERAGE MISS LATENCY: 876.4 cycles
cpu2_L2C TOTAL        ACCESS:    8579496 HIT:    8097863 MISS:     481633
cpu2_L2C LOAD         ACCESS:    7781794 HIT:    7496831 MISS:     284963
cpu2_L2C RFO          ACCESS:     204218 HIT:      39258 MISS:     164960
cpu2_L2C PREFETCH     ACCESS:          0 HIT:          0 MISS:          0
cpu2_L2C WRITE        ACCESS:     336402 HIT:     336395 MISS:          7
cpu2_L2C TRANSLATION  ACCESS:     257082 HIT:     225379 MISS:      31703
cpu2_L2C PREFETCH REQUESTED:          0 ISSUED:          0 USEFUL:          0 USELESS:          0
cpu2_L2C AVERAGE MISS LATENCY: 876.4 cycles
cpu2_L2C TOTAL        ACCESS:          0 HIT:          0 MISS:          0
cpu2_L2C LOAD         ACCESS:          0 HIT:          0 MISS:          0
cpu2_L2C RFO          ACCESS:          0 HIT:          0 MISS:          0
cpu2_L2C PREFETCH     ACCESS:          0 HIT:          0 MISS:          0
cpu2_L2C WRITE        ACCESS:          0 HIT:          0 MISS:          0
cpu2_L2C TRANSLATION  ACCESS:          0 HIT:          0 MISS:          0
cpu2_L2C PREFETCH REQUESTED:          0 ISSUED:          0 USEFUL:          0 USELESS:          0
cpu2_L2C AVERAGE MISS LATENCY: 876.4 cycles
cpu2_STLB TOTAL        ACCESS:          0 HIT:          0 MISS:          0
cpu2_STLB LOAD         ACCESS:          0 HIT:          0 MISS:          0
cpu2_STLB RFO          ACCESS:          0 HIT:          0 MISS:          0
cpu2_STLB PREFETCH     ACCESS:          0 HIT:          0 MISS:          0
cpu2_STLB WRITE        ACCESS:          0 HIT:          0 MISS:          0
cpu2_STLB TRANSLATION  ACCESS:          0 HIT:          0 MISS:          0
cpu2_STLB PREFETCH REQUESTED:          0 ISSUED:          0 USEFUL:          0 USELESS:          0
cpu2_STLB AVERAGE MISS LATENCY: 78.94 cycles
cpu2_STLB TOTAL        ACCESS:          0 HIT:          0 MISS:          0
cpu2_STLB LOAD         ACCESS:          0 HIT:          0 MISS:          0
cpu2_STLB RFO          ACCESS:          0 HIT:          0 MISS:          0
cpu2_STLB PREFETCH     ACCESS:          0 HIT:          0 MISS:          0
cpu2_STLB WRITE        ACCESS:          0 HIT:          0 MISS:          0
cpu2_STLB TRANSLATION  ACCESS:          0 HIT:          0 MISS:          0
cpu2_STLB PREFETCH REQUESTED:          0 ISSUED:          0 USEFUL:          0 USELESS:          0
cpu2_STLB AVERAGE MISS LATENCY: 78.94 cycles
cpu2_STLB TOTAL        ACCESS:    4511384 HIT:    4242656 MISS:     268728
cpu2_STLB LOAD         ACCESS:    4511384 HIT:    4242656 MISS:     268728
cpu2_STLB RFO          ACCESS:          0 HIT:          0 MISS:          0
cpu2_STLB PREFETCH     ACCESS:          0 HIT:          0 MISS:          0
cpu2_STLB WRITE        ACCESS:          0 HIT:          0 MISS:          0
cpu2_STLB TRANSLATION  ACCESS:          0 HIT:          0 MISS:          0
cpu2_STLB PREFETCH REQUESTED:          0 ISSUED:          0 USEFUL:          0 USELESS:          0
cpu2_STLB AVERAGE MISS LATENCY: 78.94 cycles
cpu2_STLB TOTAL        ACCESS:          0 HIT:          0 MISS:          0
cpu2_STLB LOAD         ACCESS:          0 HIT:          0 MISS:          0
cpu2_STLB RFO          ACCESS:          0 HIT:          0 MISS:          0
cpu2_STLB PREFETCH     ACCESS:          0 HIT:          0 MISS:          0
cpu2_STLB WRITE        ACCESS:          0 HIT:          0 MISS:          0
cpu2_STLB TRANSLATION  ACCESS:          0 HIT:          0 MISS:          0
cpu2_STLB PREFETCH REQUESTED:          0 ISSUED:          0 USEFUL:          0 USELESS:          0
cpu2_STLB AVERAGE MISS LATENCY: 78.94 cycles
cpu3_DTLB TOTAL        ACCESS:          0 HIT:          0 MISS:          0
cpu3_DTLB LOAD         ACCESS:          0 HIT:          0 MISS:          0
cpu3_DTLB RFO          ACCESS:          0 HIT:          0 MISS:          0
cpu3_DTLB PREFETCH     ACCESS:          0 HIT:          0 MISS:          0
cpu3_DTLB WRITE        ACCESS:          0 HIT:          0 MISS:          0
cpu3_DTLB TRANSLATION  ACCESS:          0 HIT:          0 MISS:          0
cpu3_DTLB PREFETCH REQUESTED:          0 ISSUED:          0 USEFUL:          0 USELESS:          0
cpu3_DTLB AVERAGE MISS LATENCY: 10.61 cycles
cpu3_DTLB TOTAL        ACCESS:          0 HIT:          0 MISS:          0
cpu3_DTLB LOAD         ACCESS:          0 HIT:          0 MISS:          0
cpu3_DTLB RFO          ACCESS:          0 HIT:          0 MISS:          0
cpu3_DTLB PREFETCH     ACCESS:          0 HIT:          0 MISS:          0
cpu3_DTLB WRITE        ACCESS:          0 HIT:          0 MISS:          0
cpu3_DTLB TRANSLATION  ACCESS:          0 HIT:          0 MISS:          0
cpu3_DTLB PREFETCH REQUESTED:          0 ISSUED:          0 USEFUL:          0 USELESS:          0
cpu3_DTLB AVERAGE MISS LATENCY: 10.61 cycles
cpu3_DTLB TOTAL        ACCESS:          0 HIT:          0 MISS:          0
cpu3_DTLB LOAD         ACCESS:          0 HIT:          0 MISS:          0
cpu3_DTLB RFO          ACCESS:          0 HIT:          0 MISS:          0
cpu3_DTLB PREFETCH     ACCESS:          0 HIT:          0 MISS:          0
cpu3_DTLB WRITE        ACCESS:          0 HIT:          0 MISS:          0
cpu3_DTLB TRANSLATION  ACCESS:          0 HIT:          0 MISS:          0
cpu3_DTLB PREFETCH REQUESTED:          0 ISSUED:          0 USEFUL:          0 USELESS:          0
cpu3_DTLB AVERAGE MISS LATENCY: 10.61 cycles
cpu3_DTLB TOTAL        ACCESS:   17888851 HIT:   17878364 MISS:      10487
cpu3_DTLB LOAD         ACCESS:   17888851 HIT:   17878364 MISS:      10487
cpu3_DTLB RFO          ACCESS:          0 HIT:          0 MISS:          0
cpu3_DTLB PREFETCH     ACCESS:          0 HIT:          0 MISS:          0
cpu3_DTLB WRITE        ACCESS:          0 HIT:          0 MISS:          0
cpu3_DTLB TRANSLATION  ACCESS:          0 HIT:          0 MISS:          0
cpu3_DTLB PREFETCH REQUESTED:          0 ISSUED:          0 USEFUL:          0 USELESS:          0
cpu3_DTLB AVERAGE MISS LATENCY: 10.61 cycles
cpu3_ITLB TOTAL        ACCESS:          0 HIT:          0 MISS:          0
cpu3_ITLB LOAD         ACCESS:          0 HIT:          0 MISS:          0
cpu3_ITLB RFO          ACCESS:          0 HIT:          0 MISS:          0
cpu3_ITLB PREFETCH     ACCESS:          0 HIT:          0 MISS:          0
cpu3_ITLB WRITE        ACCESS:          0 HIT:          0 MISS:          0
cpu3_ITLB TRANSLATION  ACCESS:          0 HIT:          0 MISS:          0
cpu3_ITLB PREFETCH REQUESTED:          0 ISSUED:          0 USEFUL:          0 USELESS:          0
cpu3_ITLB AVERAGE MISS LATENCY: 361.5 cycles
cpu3_ITLB TOTAL        ACCESS:          0 HIT:          0 MISS:          0
cpu3_ITLB LOAD         ACCESS:          0 HIT:          0 MISS:          0
cpu3_ITLB RFO          ACCESS:          0 HIT:          0 MISS:          0
cpu3_ITLB PREFETCH     ACCESS:          0 HIT:          0 MISS:          0
cpu3_ITLB WRITE        ACCESS:          0 HIT:          0 MISS:          0
cpu3_ITLB TRANSLATION  ACCESS:          0 HIT:          0 MISS:          0
cpu3_ITLB PREFETCH REQUESTED:          0 ISSUED:          0 USEFUL:          0 USELESS:          0
cpu3_ITLB AVERAGE MISS LATENCY: 361.5 cycles
cpu3_ITLB TOTAL        ACCESS:          0 HIT:          0 MISS:          0
cpu3_ITLB LOAD         ACCESS:          0 HIT:          0 MISS:          0
cpu3_ITLB RFO          ACCESS:          0 HIT:          0 MISS:          0
cpu3_ITLB PREFETCH     ACCESS:          0 HIT:          0 MISS:          0
cpu3_ITLB WRITE        ACCESS:          0 HIT:          0 MISS:          0
cpu3_ITLB TRANSLATION  ACCESS:          0 HIT:          0 MISS:          0
cpu3_ITLB PREFETCH REQUESTED:          0 ISSUED:          0 USEFUL:          0 USELESS:          0
cpu3_ITLB AVERAGE MISS LATENCY: 361.5 cycles
cpu3_ITLB TOTAL        ACCESS:     497416 HIT:     497416 MISS:          0
cpu3_ITLB LOAD         ACCESS:     497416 HIT:     497416 MISS:          0
cpu3_ITLB RFO          ACCESS:          0 HIT:          0 MISS:          0
cpu3_ITLB PREFETCH     ACCESS:          0 HIT:          0 MISS:          0
cpu3_ITLB WRITE        ACCESS:          0 HIT:          0 MISS:          0
cpu3_ITLB TRANSLATION  ACCESS:          0 HIT:          0 MISS:          0
cpu3_ITLB PREFETCH REQUESTED:          0 ISSUED:          0 USEFUL:          0 USELESS:          0
cpu3_ITLB AVERAGE MISS LATENCY: 361.5 cycles
cpu3_L1D TOTAL        ACCESS:          0 HIT:          0 MISS:          0
cpu3_L1D LOAD         ACCESS:          0 HIT:          0 MISS:          0
cpu3_L1D RFO          ACCESS:          0 HIT:          0 MISS:          0
cpu3_L1D PREFETCH     ACCESS:          0 HIT:          0 MISS:          0
cpu3_L1D WRITE        ACCESS:          0 HIT:          0 MISS:          0
cpu3_L1D TRANSLATION  ACCESS:          0 HIT:          0 MISS:          0
cpu3_L1D PREFETCH REQUESTED:          0 ISSUED:          0 USEFUL:          0 USELESS:          0
cpu3_L1D AVERAGE MISS LATENCY: 241.3 cycles
cpu3_L1D TOTAL        ACCESS:          0 HIT:          0 MISS:          0
cpu3_L1D LOAD         ACCESS:          0 HIT:          0 MISS:          0
cpu3_L1D RFO          ACCESS:          0 HIT:          0 MISS:          0
cpu3_L1D PREFETCH     ACCESS:          0 HIT:          0 MISS:          0
cpu3_L1D WRITE        ACCESS:          0 HIT:          0 MISS:          0
cpu3_L1D TRANSLATION  ACCESS:          0 HIT:          0 MISS:          0
cpu3_L1D PREFETCH REQUESTED:          0 ISSUED:          0 USEFUL:          0 USELESS:          0
cpu3_L1D AVERAGE MISS LATENCY: 241.3 cycles
cpu3_L1D TOTAL        ACCESS:          0 HIT:          0 MISS:          0
cpu3_L1D LOAD         ACCESS:          0 HIT:          0 MISS:          0
cpu3_L1D RFO          ACCESS:          0 HIT:          0 MISS:          0
cpu3_L1D PREFETCH     ACCESS:          0 HIT:          0 MISS:          0
cpu3_L1D WRITE        ACCESS:          0 HIT:          0 MISS:          0
cpu3_L1D TRANSLATION  ACCESS:          0 HIT:          0 MISS:          0
cpu3_L1D PREFETCH REQUESTED:          0 ISSUED:          0 USEFUL:          0 USELESS:          0
cpu3_L1D AVERAGE MISS LATENCY: 241.3 cycles
cpu3_L1D TOTAL        ACCESS:   21949712 HIT:   21938212 MISS:      11500
cpu3_L1D LOAD         ACCESS:   16387043 HIT:   16383969 MISS:       3074
cpu3_L1D RFO          ACCESS:          0 HIT:          0 MISS:          0
cpu3_L1D PREFETCH     ACCESS:          0 HIT:          0 MISS:          0
cpu3_L1D WRITE        ACCESS:    5562498 HIT:    5554225 MISS:       8273
cpu3_L1D TRANSLATION  ACCESS:        171 HIT:         18 MISS:        153
cpu3_L1D PREFETCH REQUESTED:          0 ISSUED:          0 USEFUL:          0 USELESS:          0
cpu3_L1D AVERAGE MISS LATENCY: 241.3 cycles
cpu3_L1I TOTAL        ACCESS:          0 HIT:          0 MISS:          0
cpu3_L1I LOAD         ACCESS:          0 HIT:          0 MISS:          0
cpu3_L1I RFO          ACCESS:          0 HIT:          0 MISS:          0
cpu3_L1I PREFETCH     ACCESS:          0 HIT:          0 MISS:          0
cpu3_L1I WRITE        ACCESS:          0 HIT:          0 MISS:          0
cpu3_L1I TRANSLATION  ACCESS:          0 HIT:          0 MISS:          0
cpu3_L1I PREFETCH REQUESTED:          0 ISSUED:          0 USEFUL:          0 USELESS:          0
cpu3_L1I AVERAGE MISS LATENCY: 17.83 cycles
cpu3_L1I TOTAL        ACCESS:          0 HIT:          0 MISS:          0
cpu3_L1I LOAD         ACCESS:          0 HIT:          0 MISS:          0
cpu3_L1I RFO          ACCESS:          0 HIT:          0 MISS:          0
cpu3_L1I PREFETCH     ACCESS:          0 HIT:          0 MISS:          0
cpu3_L1I WRITE        ACCESS:          0 HIT:          0 MISS:          0
cpu3_L1I TRANSLATION  ACCESS:          0 HIT:          0 MISS:          0
cpu3_L1I PREFETCH REQUESTED:          0 ISSUED:          0 USEFUL:          0 USELESS:          0
cpu3_L1I AVERAGE MISS LATENCY: 17.83 cycles
cpu3_L1I TOTAL        ACCESS:          0 HIT:          0 MISS:          0
cpu3_L1I LOAD         ACCESS:          0 HIT:          0 MISS:          0
cpu3_L1I RFO          ACCESS:          0 HIT:          0 MISS:          0
cpu3_L1I PREFETCH     ACCESS:          0 HIT:          0 MISS:          0
cpu3_L1I WRITE        ACCESS:          0 HIT:          0 MISS:          0
cpu3_L1I TRANSLATION  ACCESS:          0 HIT:          0 MISS:          0
cpu3_L1I PREFETCH REQUESTED:          0 ISSUED:          0 USEFUL:          0 USELESS:          0
cpu3_L1I AVERAGE MISS LATENCY: 17.83 cycles
cpu3_L1I TOTAL        ACCESS:     550935 HIT:     549515 MISS:       1420
cpu3_L1I LOAD         ACCESS:     550935 HIT:     549515 MISS:       1420
cpu3_L1I RFO          ACCESS:          0 HIT:          0 MISS:          0
cpu3_L1I PREFETCH     ACCESS:          0 HIT:          0 MISS:          0
cpu3_L1I WRITE        ACCESS:          0 HIT:          0 MISS:          0
cpu3_L1I TRANSLATION  ACCESS:          0 HIT:          0 MISS:          0
cpu3_L1I PREFETCH REQUESTED:          0 ISSUED:          0 USEFUL:          0 USELESS:          0
cpu3_L1I AVERAGE MISS LATENCY: 17.83 cycles
cpu3_L2C TOTAL        ACCESS:          0 HIT:          0 MISS:          0
cpu3_L2C LOAD         ACCESS:          0 HIT:          0 MISS:          0
cpu3_L2C RFO          ACCESS:          0 HIT:          0 MISS:          0
cpu3_L2C PREFETCH     ACCESS:          0 HIT:          0 MISS:          0
cpu3_L2C WRITE        ACCESS:          0 HIT:          0 MISS:          0
cpu3_L2C TRANSLATION  ACCESS:          0 HIT:          0 MISS:          0
cpu3_L2C PREFETCH REQUESTED:          0 ISSUED:          0 USEFUL:          0 USELESS:          0
cpu3_L2C AVERAGE MISS LATENCY: 1148 cycles
cpu3_L2C TOTAL        ACCESS:          0 HIT:          0 MISS:          0
cpu3_L2C LOAD         ACCESS:          0 HIT:          0 MISS:          0
cpu3_L2C RFO          ACCESS:          0 HIT:          0 MISS:          0
cpu3_L2C PREFETCH     ACCESS:          0 HIT:          0 MISS:          0
cpu3_L2C WRITE        ACCESS:          0 HIT:          0 MISS:          0
cpu3_L2C TRANSLATION  ACCESS:          0 HIT:          0 MISS:          0
cpu3_L2C PREFETCH REQUESTED:          0 ISSUED:          0 USEFUL:          0 USELESS:          0
cpu3_L2C AVERAGE MISS LATENCY: 1148 cycles
cpu3_L2C TOTAL        ACCESS:          0 HIT:          0 MISS:          0
cpu3_L2C LOAD         ACCESS:          0 HIT:          0 MISS:          0
cpu3_L2C RFO          ACCESS:          0 HIT:          0 MISS:          0
cpu3_L2C PREFETCH     ACCESS:          0 HIT:          0 MISS:          0
cpu3_L2C WRITE        ACCESS:          0 HIT:          0 MISS:          0
cpu3_L2C TRANSLATION  ACCESS:          0 HIT:          0 MISS:          0
cpu3_L2C PREFETCH REQUESTED:          0 ISSUED:          0 USEFUL:          0 USELESS:          0
cpu3_L2C AVERAGE MISS LATENCY: 1148 cycles
cpu3_L2C TOTAL        ACCESS:       8529 HIT:       4366 MISS:       4163
cpu3_L2C LOAD         ACCESS:       2782 HIT:       1202 MISS:       1580
cpu3_L2C RFO          ACCESS:       2548 HIT:         62 MISS:       2486
cpu3_L2C PREFETCH     ACCESS:          0 HIT:          0 MISS:          0
cpu3_L2C WRITE        ACCESS:       3046 HIT:       3044 MISS:          2
cpu3_L2C TRANSLATION  ACCESS:        153 HIT:         58 MISS:         95
cpu3_L2C PREFETCH REQUESTED:          0 ISSUED:          0 USEFUL:          0 USELESS:          0
cpu3_L2C AVERAGE MISS LATENCY: 1148 cycles
cpu3_STLB TOTAL        ACCESS:          0 HIT:          0 MISS:          0
cpu3_STLB LOAD         ACCESS:          0 HIT:          0 MISS:          0
cpu3_STLB RFO          ACCESS:          0 HIT:          0 MISS:          0
cpu3_STLB PREFETCH     ACCESS:          0 HIT:          0 MISS:          0
cpu3_STLB WRITE        ACCESS:          0 HIT:          0 MISS:          0
cpu3_STLB TRANSLATION  ACCESS:          0 HIT:          0 MISS:          0
cpu3_STLB PREFETCH REQUESTED:          0 ISSUED:          0 USEFUL:          0 USELESS:          0
cpu3_STLB AVERAGE MISS LATENCY: 368.3 cycles
cpu3_STLB TOTAL        ACCESS:          0 HIT:          0 MISS:          0
cpu3_STLB LOAD         ACCESS:          0 HIT:          0 MISS:          0
cpu3_STLB RFO          ACCESS:          0 HIT:          0 MISS:          0
cpu3_STLB PREFETCH     ACCESS:          0 HIT:          0 MISS:          0
cpu3_STLB WRITE        ACCESS:          0 HIT:          0 MISS:          0
cpu3_STLB TRANSLATION  ACCESS:          0 HIT:          0 MISS:          0
cpu3_STLB PREFETCH REQUESTED:          0 ISSUED:          0 USEFUL:          0 USELESS:          0
cpu3_STLB AVERAGE MISS LATENCY: 368.3 cycles
cpu3_STLB TOTAL        ACCESS:          0 HIT:          0 MISS:          0
cpu3_STLB LOAD         ACCESS:          0 HIT:          0 MISS:          0
cpu3_STLB RFO          ACCESS:          0 HIT:          0 MISS:          0
cpu3_STLB PREFETCH     ACCESS:          0 HIT:          0 MISS:          0
cpu3_STLB WRITE        ACCESS:          0 HIT:          0 MISS:          0
cpu3_STLB TRANSLATION  ACCESS:          0 HIT:          0 MISS:          0
cpu3_STLB PREFETCH REQUESTED:          0 ISSUED:          0 USEFUL:          0 USELESS:          0
cpu3_STLB AVERAGE MISS LATENCY: 368.3 cycles
cpu3_STLB TOTAL        ACCESS:       9242 HIT:       9072 MISS:        170
cpu3_STLB LOAD         ACCESS:       9242 HIT:       9072 MISS:        170
cpu3_STLB RFO          ACCESS:          0 HIT:          0 MISS:          0
cpu3_STLB PREFETCH     ACCESS:          0 HIT:          0 MISS:          0
cpu3_STLB WRITE        ACCESS:          0 HIT:          0 MISS:          0
cpu3_STLB TRANSLATION  ACCESS:          0 HIT:          0 MISS:          0
cpu3_STLB PREFETCH REQUESTED:          0 ISSUED:          0 USEFUL:          0 USELESS:          0
cpu3_STLB AVERAGE MISS LATENCY: 368.3 cycles

DRAM Statistics

Channel 0 RQ ROW_BUFFER_HIT:    1024095
  ROW_BUFFER_MISS:    7775556
 AVG DBUS CONGESTED CYCLE: 3.993
WQ ROW_BUFFER_HIT: Channel 0 
  ROW_BUFFER_MISS:     103782
  FULL:    5996435
