WARNING: physical memory size is smaller than virtual memory size.
WARNING: option --warmup_instructions is deprecated. Use --warmup-instructions instead.
WARNING: option --simulation_instructions is deprecated. Use --simulation-instructions instead.

*** ChampSim Multicore Out-of-Order Simulator ***
Warmup Instructions: 50000000
Simulation Instructions: 150000000
Number of CPUs: 4
Page size: 4096

Off-chip DRAM Size: 4 GiB Channels: 1 Width: 64-bit Data Race: 3200 MT/s
Heartbeat CPU 2 instructions: 10000001 cycles: 2500046 heartbeat IPC: 4 cumulative IPC: 4 (Simulation time: 00 hr 01 min 48 sec)
Heartbeat CPU 1 instructions: 10000002 cycles: 2505992 heartbeat IPC: 3.99 cumulative IPC: 3.99 (Simulation time: 00 hr 01 min 48 sec)
Heartbeat CPU 0 instructions: 10000002 cycles: 2521898 heartbeat IPC: 3.965 cumulative IPC: 3.965 (Simulation time: 00 hr 01 min 49 sec)
Heartbeat CPU 3 instructions: 10000000 cycles: 2653573 heartbeat IPC: 3.769 cumulative IPC: 3.769 (Simulation time: 00 hr 01 min 55 sec)
Heartbeat CPU 2 instructions: 20000001 cycles: 5000046 heartbeat IPC: 4 cumulative IPC: 4 (Simulation time: 00 hr 03 min 41 sec)
Heartbeat CPU 1 instructions: 20000001 cycles: 5014203 heartbeat IPC: 3.987 cumulative IPC: 3.989 (Simulation time: 00 hr 03 min 41 sec)
Heartbeat CPU 0 instructions: 20000001 cycles: 5038282 heartbeat IPC: 3.974 cumulative IPC: 3.97 (Simulation time: 00 hr 03 min 43 sec)
Heartbeat CPU 3 instructions: 20000000 cycles: 5306482 heartbeat IPC: 3.769 cumulative IPC: 3.769 (Simulation time: 00 hr 03 min 55 sec)
Heartbeat CPU 2 instructions: 30000001 cycles: 7500046 heartbeat IPC: 4 cumulative IPC: 4 (Simulation time: 00 hr 05 min 42 sec)
Heartbeat CPU 1 instructions: 30000001 cycles: 7517912 heartbeat IPC: 3.994 cumulative IPC: 3.99 (Simulation time: 00 hr 05 min 43 sec)
Heartbeat CPU 0 instructions: 30000001 cycles: 7553327 heartbeat IPC: 3.976 cumulative IPC: 3.972 (Simulation time: 00 hr 05 min 44 sec)
Heartbeat CPU 3 instructions: 30000003 cycles: 7959654 heartbeat IPC: 3.769 cumulative IPC: 3.769 (Simulation time: 00 hr 06 min 03 sec)
Heartbeat CPU 2 instructions: 40000001 cycles: 10000046 heartbeat IPC: 4 cumulative IPC: 4 (Simulation time: 00 hr 07 min 34 sec)
Heartbeat CPU 1 instructions: 40000000 cycles: 10026788 heartbeat IPC: 3.986 cumulative IPC: 3.989 (Simulation time: 00 hr 07 min 36 sec)
Heartbeat CPU 0 instructions: 40000000 cycles: 10077359 heartbeat IPC: 3.962 cumulative IPC: 3.969 (Simulation time: 00 hr 07 min 39 sec)
Heartbeat CPU 3 instructions: 40000001 cycles: 10612463 heartbeat IPC: 3.77 cumulative IPC: 3.769 (Simulation time: 00 hr 08 min 04 sec)
Heartbeat CPU 2 instructions: 50000001 cycles: 12500046 heartbeat IPC: 4 cumulative IPC: 4 (Simulation time: 00 hr 09 min 31 sec)
Warmup finished CPU 2 instructions: 50000001 cycles: 12500047 cumulative IPC: 4 (Simulation time: 00 hr 09 min 31 sec)
Heartbeat CPU 1 instructions: 50000001 cycles: 12546992 heartbeat IPC: 3.968 cumulative IPC: 3.985 (Simulation time: 00 hr 09 min 33 sec)
Warmup finished CPU 1 instructions: 50000001 cycles: 12546993 cumulative IPC: 3.985 (Simulation time: 00 hr 09 min 33 sec)
Heartbeat CPU 0 instructions: 50000000 cycles: 12599190 heartbeat IPC: 3.965 cumulative IPC: 3.969 (Simulation time: 00 hr 09 min 36 sec)
Warmup finished CPU 0 instructions: 50000000 cycles: 12599191 cumulative IPC: 3.969 (Simulation time: 00 hr 09 min 36 sec)
Heartbeat CPU 3 instructions: 50000001 cycles: 13266056 heartbeat IPC: 3.768 cumulative IPC: 3.769 (Simulation time: 00 hr 10 min 06 sec)
Warmup finished CPU 3 instructions: 50000001 cycles: 13266057 cumulative IPC: 3.769 (Simulation time: 00 hr 10 min 06 sec)
Warmup complete CPU 0 instructions: 52641469 cycles: 13266057 cumulative IPC: 3.968 (Simulation time: 00 hr 10 min 06 sec)
Warmup complete CPU 1 instructions: 52870084 cycles: 13266057 cumulative IPC: 3.985 (Simulation time: 00 hr 10 min 06 sec)
Warmup complete CPU 2 instructions: 53064041 cycles: 13266057 cumulative IPC: 4 (Simulation time: 00 hr 10 min 06 sec)
Warmup complete CPU 3 instructions: 50000001 cycles: 13266057 cumulative IPC: 3.769 (Simulation time: 00 hr 10 min 06 sec)
Heartbeat CPU 1 instructions: 60000002 cycles: 15910325 heartbeat IPC: 2.973 cumulative IPC: 2.696 (Simulation time: 00 hr 11 min 37 sec)
Heartbeat CPU 0 instructions: 60000002 cycles: 16478299 heartbeat IPC: 2.578 cumulative IPC: 2.291 (Simulation time: 00 hr 11 min 54 sec)
Heartbeat CPU 1 instructions: 70000003 cycles: 19756614 heartbeat IPC: 2.6 cumulative IPC: 2.639 (Simulation time: 00 hr 13 min 46 sec)
Heartbeat CPU 3 instructions: 60000003 cycles: 20725294 heartbeat IPC: 1.341 cumulative IPC: 1.341 (Simulation time: 00 hr 14 min 24 sec)
Heartbeat CPU 0 instructions: 70000004 cycles: 20892446 heartbeat IPC: 2.265 cumulative IPC: 2.276 (Simulation time: 00 hr 14 min 32 sec)
Heartbeat CPU 2 instructions: 60000004 cycles: 22017241 heartbeat IPC: 1.051 cumulative IPC: 0.7926 (Simulation time: 00 hr 15 min 15 sec)
Heartbeat CPU 1 instructions: 80000000 cycles: 23499936 heartbeat IPC: 2.671 cumulative IPC: 2.651 (Simulation time: 00 hr 16 min 04 sec)
Heartbeat CPU 0 instructions: 80000000 cycles: 25189041 heartbeat IPC: 2.327 cumulative IPC: 2.295 (Simulation time: 00 hr 17 min 01 sec)
Heartbeat CPU 1 instructions: 90000001 cycles: 27351634 heartbeat IPC: 2.596 cumulative IPC: 2.636 (Simulation time: 00 hr 18 min 16 sec)
Heartbeat CPU 3 instructions: 70000002 cycles: 27879861 heartbeat IPC: 1.398 cumulative IPC: 1.369 (Simulation time: 00 hr 18 min 34 sec)
Heartbeat CPU 0 instructions: 90000001 cycles: 29593313 heartbeat IPC: 2.271 cumulative IPC: 2.288 (Simulation time: 00 hr 19 min 39 sec)
Heartbeat CPU 1 instructions: 100000002 cycles: 30938391 heartbeat IPC: 2.788 cumulative IPC: 2.667 (Simulation time: 00 hr 20 min 31 sec)
Heartbeat CPU 0 instructions: 100000000 cycles: 33957400 heartbeat IPC: 2.291 cumulative IPC: 2.289 (Simulation time: 00 hr 22 min 17 sec)
Heartbeat CPU 3 instructions: 80000000 cycles: 34198311 heartbeat IPC: 1.583 cumulative IPC: 1.433 (Simulation time: 00 hr 22 min 26 sec)
Heartbeat CPU 1 instructions: 110000001 cycles: 35168768 heartbeat IPC: 2.364 cumulative IPC: 2.608 (Simulation time: 00 hr 22 min 58 sec)
Heartbeat CPU 2 instructions: 70000004 cycles: 35750436 heartbeat IPC: 0.7282 cumulative IPC: 0.7532 (Simulation time: 00 hr 23 min 18 sec)
Heartbeat CPU 0 instructions: 110000003 cycles: 38555236 heartbeat IPC: 2.175 cumulative IPC: 2.268 (Simulation time: 00 hr 25 min 02 sec)
Heartbeat CPU 1 instructions: 120000002 cycles: 38827266 heartbeat IPC: 2.733 cumulative IPC: 2.626 (Simulation time: 00 hr 25 min 10 sec)
Heartbeat CPU 3 instructions: 90000003 cycles: 39513232 heartbeat IPC: 1.881 cumulative IPC: 1.524 (Simulation time: 00 hr 25 min 37 sec)
Heartbeat CPU 1 instructions: 130000003 cycles: 42304615 heartbeat IPC: 2.876 cumulative IPC: 2.656 (Simulation time: 00 hr 27 min 19 sec)
Heartbeat CPU 0 instructions: 120000001 cycles: 42899263 heartbeat IPC: 2.302 cumulative IPC: 2.273 (Simulation time: 00 hr 27 min 43 sec)
Heartbeat CPU 3 instructions: 100000003 cycles: 45714843 heartbeat IPC: 1.612 cumulative IPC: 1.541 (Simulation time: 00 hr 29 min 27 sec)
Heartbeat CPU 1 instructions: 140000003 cycles: 46568124 heartbeat IPC: 2.345 cumulative IPC: 2.616 (Simulation time: 00 hr 29 min 51 sec)
Heartbeat CPU 0 instructions: 130000000 cycles: 47770838 heartbeat IPC: 2.053 cumulative IPC: 2.242 (Simulation time: 00 hr 30 min 35 sec)
Heartbeat CPU 2 instructions: 80000003 cycles: 49196562 heartbeat IPC: 0.7437 cumulative IPC: 0.7497 (Simulation time: 00 hr 31 min 21 sec)
Heartbeat CPU 1 instructions: 150000003 cycles: 51128811 heartbeat IPC: 2.193 cumulative IPC: 2.565 (Simulation time: 00 hr 32 min 26 sec)
Heartbeat CPU 0 instructions: 140000000 cycles: 52561614 heartbeat IPC: 2.087 cumulative IPC: 2.223 (Simulation time: 00 hr 33 min 18 sec)
Heartbeat CPU 3 instructions: 110000001 cycles: 53358645 heartbeat IPC: 1.308 cumulative IPC: 1.497 (Simulation time: 00 hr 33 min 43 sec)
Heartbeat CPU 1 instructions: 160000001 cycles: 54986854 heartbeat IPC: 2.592 cumulative IPC: 2.568 (Simulation time: 00 hr 34 min 38 sec)
Heartbeat CPU 0 instructions: 150000002 cycles: 57258563 heartbeat IPC: 2.129 cumulative IPC: 2.213 (Simulation time: 00 hr 36 min 00 sec)
Heartbeat CPU 1 instructions: 170000003 cycles: 59158411 heartbeat IPC: 2.397 cumulative IPC: 2.552 (Simulation time: 00 hr 37 min 01 sec)
Heartbeat CPU 3 instructions: 120000003 cycles: 60499440 heartbeat IPC: 1.4 cumulative IPC: 1.482 (Simulation time: 00 hr 37 min 49 sec)
Heartbeat CPU 0 instructions: 160000001 cycles: 61842974 heartbeat IPC: 2.181 cumulative IPC: 2.21 (Simulation time: 00 hr 38 min 43 sec)
Heartbeat CPU 1 instructions: 180000003 cycles: 63241934 heartbeat IPC: 2.449 cumulative IPC: 2.544 (Simulation time: 00 hr 39 min 37 sec)
Heartbeat CPU 0 instructions: 170000000 cycles: 66370630 heartbeat IPC: 2.209 cumulative IPC: 2.21 (Simulation time: 00 hr 41 min 24 sec)
Heartbeat CPU 3 instructions: 130000001 cycles: 66689698 heartbeat IPC: 1.615 cumulative IPC: 1.497 (Simulation time: 00 hr 41 min 33 sec)
Heartbeat CPU 2 instructions: 90000003 cycles: 66906960 heartbeat IPC: 0.5646 cumulative IPC: 0.6886 (Simulation time: 00 hr 41 min 40 sec)
Heartbeat CPU 1 instructions: 190000001 cycles: 67288066 heartbeat IPC: 2.471 cumulative IPC: 2.538 (Simulation time: 00 hr 41 min 53 sec)
Heartbeat CPU 0 instructions: 180000000 cycles: 71239151 heartbeat IPC: 2.054 cumulative IPC: 2.197 (Simulation time: 00 hr 44 min 00 sec)
Heartbeat CPU 1 instructions: 200000004 cycles: 71950136 heartbeat IPC: 2.145 cumulative IPC: 2.507 (Simulation time: 00 hr 44 min 28 sec)
Heartbeat CPU 3 instructions: 140000003 cycles: 72640441 heartbeat IPC: 1.68 cumulative IPC: 1.516 (Simulation time: 00 hr 44 min 58 sec)
Simulation finished CPU 1 instructions: 150000004 cycles: 59701400 cumulative IPC: 2.513 (Simulation time: 00 hr 45 min 10 sec)
Heartbeat CPU 1 instructions: 210000004 cycles: 75518657 heartbeat IPC: 2.802 cumulative IPC: 2.524 (Simulation time: 00 hr 46 min 47 sec)
Heartbeat CPU 0 instructions: 190000000 cycles: 75708415 heartbeat IPC: 2.238 cumulative IPC: 2.2 (Simulation time: 00 hr 46 min 54 sec)
Heartbeat CPU 3 instructions: 150000001 cycles: 77524549 heartbeat IPC: 2.047 cumulative IPC: 1.556 (Simulation time: 00 hr 47 min 55 sec)
Heartbeat CPU 2 instructions: 100000002 cycles: 79337199 heartbeat IPC: 0.8045 cumulative IPC: 0.7104 (Simulation time: 00 hr 48 min 53 sec)
Heartbeat CPU 1 instructions: 220000001 cycles: 79415339 heartbeat IPC: 2.566 cumulative IPC: 2.527 (Simulation time: 00 hr 48 min 56 sec)
Heartbeat CPU 0 instructions: 200000004 cycles: 80206612 heartbeat IPC: 2.223 cumulative IPC: 2.201 (Simulation time: 00 hr 49 min 23 sec)
Simulation finished CPU 0 instructions: 150000002 cycles: 68247180 cumulative IPC: 2.198 (Simulation time: 00 hr 50 min 00 sec)
Heartbeat CPU 1 instructions: 230000000 cycles: 83341922 heartbeat IPC: 2.547 cumulative IPC: 2.528 (Simulation time: 00 hr 50 min 53 sec)
Heartbeat CPU 3 instructions: 160000000 cycles: 84740914 heartbeat IPC: 1.386 cumulative IPC: 1.539 (Simulation time: 00 hr 51 min 49 sec)
Heartbeat CPU 0 instructions: 210000001 cycles: 85106244 heartbeat IPC: 2.041 cumulative IPC: 2.19 (Simulation time: 00 hr 52 min 01 sec)
Heartbeat CPU 1 instructions: 240000002 cycles: 87187519 heartbeat IPC: 2.6 cumulative IPC: 2.531 (Simulation time: 00 hr 53 min 22 sec)
Heartbeat CPU 3 instructions: 170000002 cycles: 89865485 heartbeat IPC: 1.951 cumulative IPC: 1.567 (Simulation time: 00 hr 54 min 58 sec)
Heartbeat CPU 0 instructions: 220000002 cycles: 89897335 heartbeat IPC: 2.087 cumulative IPC: 2.184 (Simulation time: 00 hr 54 min 59 sec)
Heartbeat CPU 1 instructions: 250000004 cycles: 90929510 heartbeat IPC: 2.672 cumulative IPC: 2.538 (Simulation time: 00 hr 55 min 32 sec)
Heartbeat CPU 2 instructions: 110000003 cycles: 92762507 heartbeat IPC: 0.7449 cumulative IPC: 0.7162 (Simulation time: 00 hr 56 min 38 sec)
Heartbeat CPU 0 instructions: 230000000 cycles: 94593368 heartbeat IPC: 2.129 cumulative IPC: 2.181 (Simulation time: 00 hr 57 min 37 sec)
Heartbeat CPU 1 instructions: 260000002 cycles: 94669308 heartbeat IPC: 2.674 cumulative IPC: 2.544 (Simulation time: 00 hr 57 min 39 sec)
Heartbeat CPU 3 instructions: 180000000 cycles: 98255381 heartbeat IPC: 1.192 cumulative IPC: 1.53 (Simulation time: 00 hr 59 min 38 sec)
Heartbeat CPU 1 instructions: 270000004 cycles: 98590745 heartbeat IPC: 2.55 cumulative IPC: 2.545 (Simulation time: 00 hr 59 min 50 sec)
Heartbeat CPU 0 instructions: 240000001 cycles: 99372096 heartbeat IPC: 2.093 cumulative IPC: 2.176 (Simulation time: 01 hr 00 min 17 sec)
Heartbeat CPU 1 instructions: 280000004 cycles: 102362081 heartbeat IPC: 2.652 cumulative IPC: 2.549 (Simulation time: 01 hr 02 min 07 sec)
Heartbeat CPU 0 instructions: 250000001 cycles: 103939142 heartbeat IPC: 2.19 cumulative IPC: 2.177 (Simulation time: 01 hr 03 min 03 sec)
Heartbeat CPU 1 instructions: 290000003 cycles: 105857235 heartbeat IPC: 2.861 cumulative IPC: 2.561 (Simulation time: 01 hr 04 min 08 sec)
Heartbeat CPU 3 instructions: 190000004 cycles: 106254188 heartbeat IPC: 1.25 cumulative IPC: 1.506 (Simulation time: 01 hr 04 min 22 sec)
Heartbeat CPU 2 instructions: 120000004 cycles: 107237250 heartbeat IPC: 0.6909 cumulative IPC: 0.7123 (Simulation time: 01 hr 05 min 03 sec)
Heartbeat CPU 0 instructions: 260000000 cycles: 108533388 heartbeat IPC: 2.177 cumulative IPC: 2.177 (Simulation time: 01 hr 05 min 48 sec)
Heartbeat CPU 1 instructions: 300000000 cycles: 109527705 heartbeat IPC: 2.724 cumulative IPC: 2.567 (Simulation time: 01 hr 06 min 25 sec)
Heartbeat CPU 1 instructions: 310000004 cycles: 113003599 heartbeat IPC: 2.877 cumulative IPC: 2.578 (Simulation time: 01 hr 08 min 27 sec)
Heartbeat CPU 0 instructions: 270000003 cycles: 113174380 heartbeat IPC: 2.155 cumulative IPC: 2.176 (Simulation time: 01 hr 08 min 34 sec)
Heartbeat CPU 3 instructions: 200000003 cycles: 113732498 heartbeat IPC: 1.337 cumulative IPC: 1.493 (Simulation time: 01 hr 08 min 54 sec)
Simulation finished CPU 3 instructions: 150000002 cycles: 100466442 cumulative IPC: 1.493 (Simulation time: 01 hr 08 min 54 sec)
Heartbeat CPU 1 instructions: 320000001 cycles: 116472005 heartbeat IPC: 2.883 cumulative IPC: 2.588 (Simulation time: 01 hr 10 min 36 sec)
Heartbeat CPU 0 instructions: 280000003 cycles: 117750607 heartbeat IPC: 2.185 cumulative IPC: 2.176 (Simulation time: 01 hr 11 min 22 sec)
Heartbeat CPU 2 instructions: 130000001 cycles: 119448741 heartbeat IPC: 0.8189 cumulative IPC: 0.7246 (Simulation time: 01 hr 12 min 29 sec)
Heartbeat CPU 1 instructions: 330000001 cycles: 119939391 heartbeat IPC: 2.884 cumulative IPC: 2.598 (Simulation time: 01 hr 12 min 51 sec)
Heartbeat CPU 3 instructions: 210000000 cycles: 121280363 heartbeat IPC: 1.325 cumulative IPC: 1.481 (Simulation time: 01 hr 13 min 36 sec)
Heartbeat CPU 0 instructions: 290000001 cycles: 122272601 heartbeat IPC: 2.211 cumulative IPC: 2.177 (Simulation time: 01 hr 14 min 12 sec)
Heartbeat CPU 1 instructions: 340000002 cycles: 123569221 heartbeat IPC: 2.755 cumulative IPC: 2.603 (Simulation time: 01 hr 15 min 00 sec)
Heartbeat CPU 0 instructions: 300000002 cycles: 126847190 heartbeat IPC: 2.186 cumulative IPC: 2.178 (Simulation time: 01 hr 16 min 58 sec)
Heartbeat CPU 1 instructions: 350000001 cycles: 127137223 heartbeat IPC: 2.803 cumulative IPC: 2.609 (Simulation time: 01 hr 17 min 09 sec)
Heartbeat CPU 3 instructions: 220000004 cycles: 128727805 heartbeat IPC: 1.343 cumulative IPC: 1.472 (Simulation time: 01 hr 18 min 05 sec)
Heartbeat CPU 1 instructions: 360000001 cycles: 130668521 heartbeat IPC: 2.832 cumulative IPC: 2.616 (Simulation time: 01 hr 19 min 08 sec)
Heartbeat CPU 0 instructions: 310000000 cycles: 131339884 heartbeat IPC: 2.226 cumulative IPC: 2.18 (Simulation time: 01 hr 19 min 30 sec)
Heartbeat CPU 2 instructions: 140000002 cycles: 131999578 heartbeat IPC: 0.7968 cumulative IPC: 0.7322 (Simulation time: 01 hr 19 min 57 sec)
Heartbeat CPU 1 instructions: 370000001 cycles: 134280819 heartbeat IPC: 2.768 cumulative IPC: 2.621 (Simulation time: 01 hr 21 min 09 sec)
Heartbeat CPU 0 instructions: 320000002 cycles: 135892329 heartbeat IPC: 2.197 cumulative IPC: 2.18 (Simulation time: 01 hr 22 min 08 sec)
Heartbeat CPU 3 instructions: 230000000 cycles: 136133333 heartbeat IPC: 1.35 cumulative IPC: 1.465 (Simulation time: 01 hr 22 min 16 sec)
Heartbeat CPU 1 instructions: 380000003 cycles: 138817995 heartbeat IPC: 2.204 cumulative IPC: 2.606 (Simulation time: 01 hr 23 min 46 sec)
Heartbeat CPU 0 instructions: 330000004 cycles: 140565399 heartbeat IPC: 2.14 cumulative IPC: 2.179 (Simulation time: 01 hr 24 min 45 sec)
Heartbeat CPU 1 instructions: 390000002 cycles: 142760995 heartbeat IPC: 2.536 cumulative IPC: 2.603 (Simulation time: 01 hr 26 min 02 sec)
Heartbeat CPU 3 instructions: 240000000 cycles: 144063653 heartbeat IPC: 1.261 cumulative IPC: 1.453 (Simulation time: 01 hr 26 min 45 sec)
Heartbeat CPU 0 instructions: 340000001 cycles: 145222106 heartbeat IPC: 2.147 cumulative IPC: 2.178 (Simulation time: 01 hr 27 min 24 sec)
Heartbeat CPU 2 instructions: 150000001 cycles: 145294827 heartbeat IPC: 0.7521 cumulative IPC: 0.7342 (Simulation time: 01 hr 27 min 28 sec)
Heartbeat CPU 1 instructions: 400000003 cycles: 146296502 heartbeat IPC: 2.828 cumulative IPC: 2.609 (Simulation time: 01 hr 28 min 03 sec)
Heartbeat CPU 0 instructions: 350000001 cycles: 149863820 heartbeat IPC: 2.154 cumulative IPC: 2.177 (Simulation time: 01 hr 30 min 16 sec)
Heartbeat CPU 1 instructions: 410000004 cycles: 149957987 heartbeat IPC: 2.731 cumulative IPC: 2.613 (Simulation time: 01 hr 30 min 19 sec)
Heartbeat CPU 3 instructions: 250000003 cycles: 151186982 heartbeat IPC: 1.404 cumulative IPC: 1.45 (Simulation time: 01 hr 31 min 00 sec)
Heartbeat CPU 1 instructions: 420000001 cycles: 153462383 heartbeat IPC: 2.854 cumulative IPC: 2.619 (Simulation time: 01 hr 32 min 28 sec)
Heartbeat CPU 0 instructions: 360000004 cycles: 154700798 heartbeat IPC: 2.067 cumulative IPC: 2.173 (Simulation time: 01 hr 33 min 11 sec)
Heartbeat CPU 1 instructions: 430000003 cycles: 158369258 heartbeat IPC: 2.038 cumulative IPC: 2.599 (Simulation time: 01 hr 34 min 58 sec)
Heartbeat CPU 3 instructions: 260000003 cycles: 158460692 heartbeat IPC: 1.375 cumulative IPC: 1.446 (Simulation time: 01 hr 35 min 02 sec)
Heartbeat CPU 2 instructions: 160000003 cycles: 159199135 heartbeat IPC: 0.7192 cumulative IPC: 0.7328 (Simulation time: 01 hr 35 min 28 sec)
Heartbeat CPU 0 instructions: 370000000 cycles: 159299334 heartbeat IPC: 2.175 cumulative IPC: 2.173 (Simulation time: 01 hr 35 min 31 sec)
Heartbeat CPU 1 instructions: 440000000 cycles: 162186078 heartbeat IPC: 2.62 cumulative IPC: 2.6 (Simulation time: 01 hr 37 min 19 sec)
Heartbeat CPU 3 instructions: 270000001 cycles: 163256765 heartbeat IPC: 2.085 cumulative IPC: 1.467 (Simulation time: 01 hr 37 min 54 sec)
Heartbeat CPU 0 instructions: 380000000 cycles: 163887870 heartbeat IPC: 2.179 cumulative IPC: 2.173 (Simulation time: 01 hr 38 min 14 sec)
Heartbeat CPU 1 instructions: 450000003 cycles: 168998644 heartbeat IPC: 1.468 cumulative IPC: 2.55 (Simulation time: 01 hr 40 min 49 sec)
Heartbeat CPU 0 instructions: 390000000 cycles: 169072109 heartbeat IPC: 1.929 cumulative IPC: 2.165 (Simulation time: 01 hr 40 min 51 sec)
Heartbeat CPU 3 instructions: 280000003 cycles: 170515765 heartbeat IPC: 1.378 cumulative IPC: 1.463 (Simulation time: 01 hr 41 min 40 sec)
Heartbeat CPU 1 instructions: 460000000 cycles: 172561098 heartbeat IPC: 2.807 cumulative IPC: 2.556 (Simulation time: 01 hr 42 min 46 sec)
Heartbeat CPU 2 instructions: 170000002 cycles: 173503390 heartbeat IPC: 0.6991 cumulative IPC: 0.7298 (Simulation time: 01 hr 43 min 14 sec)
Heartbeat CPU 0 instructions: 400000000 cycles: 173673057 heartbeat IPC: 2.173 cumulative IPC: 2.165 (Simulation time: 01 hr 43 min 20 sec)
Heartbeat CPU 1 instructions: 470000002 cycles: 176349843 heartbeat IPC: 2.639 cumulative IPC: 2.558 (Simulation time: 01 hr 44 min 50 sec)
Heartbeat CPU 3 instructions: 290000002 cycles: 177940681 heartbeat IPC: 1.347 cumulative IPC: 1.457 (Simulation time: 01 hr 45 min 42 sec)
Heartbeat CPU 0 instructions: 410000000 cycles: 178366897 heartbeat IPC: 2.13 cumulative IPC: 2.164 (Simulation time: 01 hr 45 min 52 sec)
Heartbeat CPU 1 instructions: 480000000 cycles: 180495955 heartbeat IPC: 2.412 cumulative IPC: 2.554 (Simulation time: 01 hr 47 min 01 sec)
Heartbeat CPU 0 instructions: 420000004 cycles: 183091616 heartbeat IPC: 2.117 cumulative IPC: 2.163 (Simulation time: 01 hr 48 min 26 sec)
Heartbeat CPU 3 instructions: 300000000 cycles: 184455604 heartbeat IPC: 1.535 cumulative IPC: 1.46 (Simulation time: 01 hr 49 min 07 sec)
Heartbeat CPU 0 instructions: 430000002 cycles: 187964235 heartbeat IPC: 2.052 cumulative IPC: 2.16 (Simulation time: 01 hr 50 min 38 sec)
Heartbeat CPU 0 instructions: 440000003 cycles: 192841145 heartbeat IPC: 2.05 cumulative IPC: 2.157 (Simulation time: 01 hr 52 min 47 sec)
Heartbeat CPU 3 instructions: 310000002 cycles: 194919325 heartbeat IPC: 0.9557 cumulative IPC: 1.431 (Simulation time: 01 hr 53 min 45 sec)
Heartbeat CPU 0 instructions: 450000003 cycles: 197517325 heartbeat IPC: 2.138 cumulative IPC: 2.157 (Simulation time: 01 hr 55 min 05 sec)
Heartbeat CPU 0 instructions: 460000003 cycles: 202523178 heartbeat IPC: 1.998 cumulative IPC: 2.152 (Simulation time: 01 hr 57 min 24 sec)
Heartbeat CPU 3 instructions: 320000003 cycles: 203062033 heartbeat IPC: 1.228 cumulative IPC: 1.423 (Simulation time: 01 hr 57 min 42 sec)
Heartbeat CPU 2 instructions: 180000003 cycles: 204436678 heartbeat IPC: 0.3233 cumulative IPC: 0.664 (Simulation time: 01 hr 58 min 27 sec)
Heartbeat CPU 1 instructions: 490000001 cycles: 204905888 heartbeat IPC: 0.4097 cumulative IPC: 2.281 (Simulation time: 01 hr 58 min 50 sec)
Heartbeat CPU 0 instructions: 470000002 cycles: 206875453 heartbeat IPC: 2.298 cumulative IPC: 2.156 (Simulation time: 01 hr 59 min 56 sec)
Heartbeat CPU 3 instructions: 330000002 cycles: 209379425 heartbeat IPC: 1.583 cumulative IPC: 1.428 (Simulation time: 02 hr 01 min 22 sec)
Heartbeat CPU 0 instructions: 480000000 cycles: 211331966 heartbeat IPC: 2.244 cumulative IPC: 2.158 (Simulation time: 02 hr 02 min 28 sec)
Heartbeat CPU 1 instructions: 500000002 cycles: 211749414 heartbeat IPC: 1.461 cumulative IPC: 2.253 (Simulation time: 02 hr 02 min 41 sec)
Heartbeat CPU 0 instructions: 490000002 cycles: 215705734 heartbeat IPC: 2.286 cumulative IPC: 2.16 (Simulation time: 02 hr 04 min 33 sec)
Heartbeat CPU 3 instructions: 340000000 cycles: 216551721 heartbeat IPC: 1.394 cumulative IPC: 1.427 (Simulation time: 02 hr 05 min 02 sec)
Heartbeat CPU 2 instructions: 190000004 cycles: 218270728 heartbeat IPC: 0.7229 cumulative IPC: 0.668 (Simulation time: 02 hr 06 min 03 sec)
Heartbeat CPU 1 instructions: 510000001 cycles: 219017145 heartbeat IPC: 1.376 cumulative IPC: 2.222 (Simulation time: 02 hr 06 min 29 sec)
Heartbeat CPU 0 instructions: 500000000 cycles: 220110381 heartbeat IPC: 2.27 cumulative IPC: 2.163 (Simulation time: 02 hr 07 min 06 sec)
Heartbeat CPU 3 instructions: 350000000 cycles: 221579425 heartbeat IPC: 1.989 cumulative IPC: 1.44 (Simulation time: 02 hr 07 min 56 sec)
Heartbeat CPU 0 instructions: 510000004 cycles: 224451432 heartbeat IPC: 2.304 cumulative IPC: 2.166 (Simulation time: 02 hr 09 min 31 sec)
Heartbeat CPU 1 instructions: 520000003 cycles: 225212983 heartbeat IPC: 1.614 cumulative IPC: 2.204 (Simulation time: 02 hr 09 min 55 sec)
Heartbeat CPU 0 instructions: 520000000 cycles: 228897519 heartbeat IPC: 2.249 cumulative IPC: 2.167 (Simulation time: 02 hr 11 min 52 sec)
Heartbeat CPU 3 instructions: 360000002 cycles: 230444319 heartbeat IPC: 1.128 cumulative IPC: 1.427 (Simulation time: 02 hr 12 min 42 sec)
Heartbeat CPU 1 instructions: 530000000 cycles: 233318455 heartbeat IPC: 1.234 cumulative IPC: 2.168 (Simulation time: 02 hr 14 min 05 sec)
Heartbeat CPU 2 instructions: 200000000 cycles: 234102068 heartbeat IPC: 0.6317 cumulative IPC: 0.6654 (Simulation time: 02 hr 14 min 25 sec)
Heartbeat CPU 0 instructions: 530000002 cycles: 238745764 heartbeat IPC: 1.015 cumulative IPC: 2.117 (Simulation time: 02 hr 16 min 40 sec)
Simulation finished CPU 2 instructions: 150000002 cycles: 228760209 cumulative IPC: 0.6557 (Simulation time: 02 hr 18 min 12 sec)
Simulation complete CPU 0 instructions: 479306829 cycles: 228760209 cumulative IPC: 2.095 (Simulation time: 02 hr 18 min 12 sec)
Simulation complete CPU 1 instructions: 485431840 cycles: 228760209 cumulative IPC: 2.122 (Simulation time: 02 hr 18 min 12 sec)
Simulation complete CPU 2 instructions: 150000002 cycles: 228760209 cumulative IPC: 0.6557 (Simulation time: 02 hr 18 min 12 sec)
Simulation complete CPU 3 instructions: 319956453 cycles: 228760209 cumulative IPC: 1.399 (Simulation time: 02 hr 18 min 12 sec)

ChampSim completed all CPUs

=== Simulation ===
CPU 0 runs /home/das/dpc3_traces/603.bwaves_s-3699B.champsimtrace.xzCPU 1 runs /home/das/dpc3_traces/654.roms_s-842B.champsimtrace.xzCPU 2 runs /home/das/dpc3_traces/649.fotonik3d_s-1176B.champsimtrace.xzCPU 3 runs /home/das/dpc3_traces/628.pop2_s-17B.champsimtrace.xz
Total Simulation Statistics (not including warmup)

CPU 0 cumulative IPC: 2.095 instructions: 479306829 cycles: 228760209
CPU 0 Branch Prediction Accuracy: 90.05% MPKI: 14.46 Average ROB Occupancy at Mispredict: 30.04
Branch type MPKI
BRANCH_DIRECT_JUMP: 0.0595
BRANCH_INDIRECT: 0
BRANCH_CONDITIONAL: 14.3
BRANCH_DIRECT_CALL: 0
BRANCH_INDIRECT_CALL: 0
BRANCH_RETURN: 0.0663


CPU 1 cumulative IPC: 2.122 instructions: 485431840 cycles: 228760209
CPU 1 Branch Prediction Accuracy: 94.43% MPKI: 8.789 Average ROB Occupancy at Mispredict: 94.09
Branch type MPKI
BRANCH_DIRECT_JUMP: 0.138
BRANCH_INDIRECT: 0
BRANCH_CONDITIONAL: 6.83
BRANCH_DIRECT_CALL: 1.65e-05
BRANCH_INDIRECT_CALL: 0
BRANCH_RETURN: 1.82


CPU 2 cumulative IPC: 0.6557 instructions: 150000002 cycles: 228760209
CPU 2 Branch Prediction Accuracy: 99.98% MPKI: 0.00438 Average ROB Occupancy at Mispredict: 352
Branch type MPKI
BRANCH_DIRECT_JUMP: 0
BRANCH_INDIRECT: 0
BRANCH_CONDITIONAL: 0.00438
BRANCH_DIRECT_CALL: 0
BRANCH_INDIRECT_CALL: 0
BRANCH_RETURN: 0


CPU 3 cumulative IPC: 1.399 instructions: 319956453 cycles: 228760209
CPU 3 Branch Prediction Accuracy: 97.62% MPKI: 3.848 Average ROB Occupancy at Mispredict: 106
Branch type MPKI
BRANCH_DIRECT_JUMP: 0.0267
BRANCH_INDIRECT: 0.000647
BRANCH_CONDITIONAL: 3.76
BRANCH_DIRECT_CALL: 0.000866
BRANCH_INDIRECT_CALL: 0
BRANCH_RETURN: 0.0552

LLC TOTAL        ACCESS:     182579 HIT:      34553 MISS:     148026
LLC LOAD         ACCESS:      16608 HIT:          0 MISS:      16608
LLC RFO          ACCESS:      82879 HIT:          0 MISS:      82879
LLC PREFETCH     ACCESS:          0 HIT:          0 MISS:          0
LLC WRITE        ACCESS:      83084 HIT:      34551 MISS:      48533
LLC TRANSLATION  ACCESS:          8 HIT:          2 MISS:          6
LLC PREFETCH REQUESTED:          0 ISSUED:          0 USEFUL:          0 USELESS:          0
LLC AVERAGE MISS LATENCY: 991.5 cycles
LLC TOTAL        ACCESS:     400695 HIT:      93424 MISS:     307271
LLC LOAD         ACCESS:     171646 HIT:       3517 MISS:     168129
LLC RFO          ACCESS:     114087 HIT:         55 MISS:     114032
LLC PREFETCH     ACCESS:          0 HIT:          0 MISS:          0
LLC WRITE        ACCESS:     113841 HIT:      89627 MISS:      24214
LLC TRANSLATION  ACCESS:       1121 HIT:        225 MISS:        896
LLC PREFETCH REQUESTED:          0 ISSUED:          0 USEFUL:          0 USELESS:          0
LLC AVERAGE MISS LATENCY: 991.5 cycles
LLC TOTAL        ACCESS:    2734628 HIT:    1410718 MISS:    1323910
LLC LOAD         ACCESS:    1419037 HIT:      95515 MISS:    1323522
LLC RFO          ACCESS:        282 HIT:        282 MISS:          0
LLC PREFETCH     ACCESS:          0 HIT:          0 MISS:          0
LLC WRITE        ACCESS:    1315084 HIT:    1314840 MISS:        244
LLC TRANSLATION  ACCESS:        225 HIT:         81 MISS:        144
LLC PREFETCH REQUESTED:          0 ISSUED:          0 USEFUL:          0 USELESS:          0
LLC AVERAGE MISS LATENCY: 991.5 cycles
LLC TOTAL        ACCESS:    2856720 HIT:    1859894 MISS:     996826
LLC LOAD         ACCESS:    1256177 HIT:     711503 MISS:     544674
LLC RFO          ACCESS:     665693 HIT:     223116 MISS:     442577
LLC PREFETCH     ACCESS:          0 HIT:          0 MISS:          0
LLC WRITE        ACCESS:     926580 HIT:     922895 MISS:       3685
LLC TRANSLATION  ACCESS:       8270 HIT:       2380 MISS:       5890
LLC PREFETCH REQUESTED:          0 ISSUED:          0 USEFUL:          0 USELESS:          0
LLC AVERAGE MISS LATENCY: 991.5 cycles
cpu0_DTLB TOTAL        ACCESS:   59766989 HIT:   59754797 MISS:      12192
cpu0_DTLB LOAD         ACCESS:   59766989 HIT:   59754797 MISS:      12192
cpu0_DTLB RFO          ACCESS:          0 HIT:          0 MISS:          0
cpu0_DTLB PREFETCH     ACCESS:          0 HIT:          0 MISS:          0
cpu0_DTLB WRITE        ACCESS:          0 HIT:          0 MISS:          0
cpu0_DTLB TRANSLATION  ACCESS:          0 HIT:          0 MISS:          0
cpu0_DTLB PREFETCH REQUESTED:          0 ISSUED:          0 USEFUL:          0 USELESS:          0
cpu0_DTLB AVERAGE MISS LATENCY: 22.86 cycles
cpu0_DTLB TOTAL        ACCESS:          0 HIT:          0 MISS:          0
cpu0_DTLB LOAD         ACCESS:          0 HIT:          0 MISS:          0
cpu0_DTLB RFO          ACCESS:          0 HIT:          0 MISS:          0
cpu0_DTLB PREFETCH     ACCESS:          0 HIT:          0 MISS:          0
cpu0_DTLB WRITE        ACCESS:          0 HIT:          0 MISS:          0
cpu0_DTLB TRANSLATION  ACCESS:          0 HIT:          0 MISS:          0
cpu0_DTLB PREFETCH REQUESTED:          0 ISSUED:          0 USEFUL:          0 USELESS:          0
cpu0_DTLB AVERAGE MISS LATENCY: 22.86 cycles
cpu0_DTLB TOTAL        ACCESS:          0 HIT:          0 MISS:          0
cpu0_DTLB LOAD         ACCESS:          0 HIT:          0 MISS:          0
cpu0_DTLB RFO          ACCESS:          0 HIT:          0 MISS:          0
cpu0_DTLB PREFETCH     ACCESS:          0 HIT:          0 MISS:          0
cpu0_DTLB WRITE        ACCESS:          0 HIT:          0 MISS:          0
cpu0_DTLB TRANSLATION  ACCESS:          0 HIT:          0 MISS:          0
cpu0_DTLB PREFETCH REQUESTED:          0 ISSUED:          0 USEFUL:          0 USELESS:          0
cpu0_DTLB AVERAGE MISS LATENCY: 22.86 cycles
cpu0_DTLB TOTAL        ACCESS:          0 HIT:          0 MISS:          0
cpu0_DTLB LOAD         ACCESS:          0 HIT:          0 MISS:          0
cpu0_DTLB RFO          ACCESS:          0 HIT:          0 MISS:          0
cpu0_DTLB PREFETCH     ACCESS:          0 HIT:          0 MISS:          0
cpu0_DTLB WRITE        ACCESS:          0 HIT:          0 MISS:          0
cpu0_DTLB TRANSLATION  ACCESS:          0 HIT:          0 MISS:          0
cpu0_DTLB PREFETCH REQUESTED:          0 ISSUED:          0 USEFUL:          0 USELESS:          0
cpu0_DTLB AVERAGE MISS LATENCY: 22.86 cycles
cpu0_ITLB TOTAL        ACCESS:    1638457 HIT:    1638457 MISS:          0
cpu0_ITLB LOAD         ACCESS:    1638457 HIT:    1638457 MISS:          0
cpu0_ITLB RFO          ACCESS:          0 HIT:          0 MISS:          0
cpu0_ITLB PREFETCH     ACCESS:          0 HIT:          0 MISS:          0
cpu0_ITLB WRITE        ACCESS:          0 HIT:          0 MISS:          0
cpu0_ITLB TRANSLATION  ACCESS:          0 HIT:          0 MISS:          0
cpu0_ITLB PREFETCH REQUESTED:          0 ISSUED:          0 USEFUL:          0 USELESS:          0
cpu0_ITLB AVERAGE MISS LATENCY: -nan cycles
cpu0_ITLB TOTAL        ACCESS:          0 HIT:          0 MISS:          0
cpu0_ITLB LOAD         ACCESS:          0 HIT:          0 MISS:          0
cpu0_ITLB RFO          ACCESS:          0 HIT:          0 MISS:          0
cpu0_ITLB PREFETCH     ACCESS:          0 HIT:          0 MISS:          0
cpu0_ITLB WRITE        ACCESS:          0 HIT:          0 MISS:          0
cpu0_ITLB TRANSLATION  ACCESS:          0 HIT:          0 MISS:          0
cpu0_ITLB PREFETCH REQUESTED:          0 ISSUED:          0 USEFUL:          0 USELESS:          0
cpu0_ITLB AVERAGE MISS LATENCY: -nan cycles
cpu0_ITLB TOTAL        ACCESS:          0 HIT:          0 MISS:          0
cpu0_ITLB LOAD         ACCESS:          0 HIT:          0 MISS:          0
cpu0_ITLB RFO          ACCESS:          0 HIT:          0 MISS:          0
cpu0_ITLB PREFETCH     ACCESS:          0 HIT:          0 MISS:          0
cpu0_ITLB WRITE        ACCESS:          0 HIT:          0 MISS:          0
cpu0_ITLB TRANSLATION  ACCESS:          0 HIT:          0 MISS:          0
cpu0_ITLB PREFETCH REQUESTED:          0 ISSUED:          0 USEFUL:          0 USELESS:          0
cpu0_ITLB AVERAGE MISS LATENCY: -nan cycles
cpu0_ITLB TOTAL        ACCESS:          0 HIT:          0 MISS:          0
cpu0_ITLB LOAD         ACCESS:          0 HIT:          0 MISS:          0
cpu0_ITLB RFO          ACCESS:          0 HIT:          0 MISS:          0
cpu0_ITLB PREFETCH     ACCESS:          0 HIT:          0 MISS:          0
cpu0_ITLB WRITE        ACCESS:          0 HIT:          0 MISS:          0
cpu0_ITLB TRANSLATION  ACCESS:          0 HIT:          0 MISS:          0
cpu0_ITLB PREFETCH REQUESTED:          0 ISSUED:          0 USEFUL:          0 USELESS:          0
cpu0_ITLB AVERAGE MISS LATENCY: -nan cycles
cpu0_L1D TOTAL        ACCESS:   89849558 HIT:   89232355 MISS:     617203
cpu0_L1D LOAD         ACCESS:   71009084 HIT:   70987315 MISS:      21769
cpu0_L1D RFO          ACCESS:          0 HIT:          0 MISS:          0
cpu0_L1D PREFETCH     ACCESS:          0 HIT:          0 MISS:          0
cpu0_L1D WRITE        ACCESS:   18838916 HIT:   18243561 MISS:     595355
cpu0_L1D TRANSLATION  ACCESS:       1558 HIT:       1479 MISS:         79
cpu0_L1D PREFETCH REQUESTED:          0 ISSUED:          0 USEFUL:          0 USELESS:          0
cpu0_L1D AVERAGE MISS LATENCY: 215.8 cycles
cpu0_L1D TOTAL        ACCESS:          0 HIT:          0 MISS:          0
cpu0_L1D LOAD         ACCESS:          0 HIT:          0 MISS:          0
cpu0_L1D RFO          ACCESS:          0 HIT:          0 MISS:          0
cpu0_L1D PREFETCH     ACCESS:          0 HIT:          0 MISS:          0
cpu0_L1D WRITE        ACCESS:          0 HIT:          0 MISS:          0
cpu0_L1D TRANSLATION  ACCESS:          0 HIT:          0 MISS:          0
cpu0_L1D PREFETCH REQUESTED:          0 ISSUED:          0 USEFUL:          0 USELESS:          0
cpu0_L1D AVERAGE MISS LATENCY: 215.8 cycles
cpu0_L1D TOTAL        ACCESS:          0 HIT:          0 MISS:          0
cpu0_L1D LOAD         ACCESS:          0 HIT:          0 MISS:          0
cpu0_L1D RFO          ACCESS:          0 HIT:          0 MISS:          0
cpu0_L1D PREFETCH     ACCESS:          0 HIT:          0 MISS:          0
cpu0_L1D WRITE        ACCESS:          0 HIT:          0 MISS:          0
cpu0_L1D TRANSLATION  ACCESS:          0 HIT:          0 MISS:          0
cpu0_L1D PREFETCH REQUESTED:          0 ISSUED:          0 USEFUL:          0 USELESS:          0
cpu0_L1D AVERAGE MISS LATENCY: 215.8 cycles
cpu0_L1D TOTAL        ACCESS:          0 HIT:          0 MISS:          0
cpu0_L1D LOAD         ACCESS:          0 HIT:          0 MISS:          0
cpu0_L1D RFO          ACCESS:          0 HIT:          0 MISS:          0
cpu0_L1D PREFETCH     ACCESS:          0 HIT:          0 MISS:          0
cpu0_L1D WRITE        ACCESS:          0 HIT:          0 MISS:          0
cpu0_L1D TRANSLATION  ACCESS:          0 HIT:          0 MISS:          0
cpu0_L1D PREFETCH REQUESTED:          0 ISSUED:          0 USEFUL:          0 USELESS:          0
cpu0_L1D AVERAGE MISS LATENCY: 215.8 cycles
cpu0_L1I TOTAL        ACCESS:    1927303 HIT:    1927303 MISS:          0
cpu0_L1I LOAD         ACCESS:    1927303 HIT:    1927303 MISS:          0
cpu0_L1I RFO          ACCESS:          0 HIT:          0 MISS:          0
cpu0_L1I PREFETCH     ACCESS:          0 HIT:          0 MISS:          0
cpu0_L1I WRITE        ACCESS:          0 HIT:          0 MISS:          0
cpu0_L1I TRANSLATION  ACCESS:          0 HIT:          0 MISS:          0
cpu0_L1I PREFETCH REQUESTED:          0 ISSUED:          0 USEFUL:          0 USELESS:          0
cpu0_L1I AVERAGE MISS LATENCY: -nan cycles
cpu0_L1I TOTAL        ACCESS:          0 HIT:          0 MISS:          0
cpu0_L1I LOAD         ACCESS:          0 HIT:          0 MISS:          0
cpu0_L1I RFO          ACCESS:          0 HIT:          0 MISS:          0
cpu0_L1I PREFETCH     ACCESS:          0 HIT:          0 MISS:          0
cpu0_L1I WRITE        ACCESS:          0 HIT:          0 MISS:          0
cpu0_L1I TRANSLATION  ACCESS:          0 HIT:          0 MISS:          0
cpu0_L1I PREFETCH REQUESTED:          0 ISSUED:          0 USEFUL:          0 USELESS:          0
cpu0_L1I AVERAGE MISS LATENCY: -nan cycles
cpu0_L1I TOTAL        ACCESS:          0 HIT:          0 MISS:          0
cpu0_L1I LOAD         ACCESS:          0 HIT:          0 MISS:          0
cpu0_L1I RFO          ACCESS:          0 HIT:          0 MISS:          0
cpu0_L1I PREFETCH     ACCESS:          0 HIT:          0 MISS:          0
cpu0_L1I WRITE        ACCESS:          0 HIT:          0 MISS:          0
cpu0_L1I TRANSLATION  ACCESS:          0 HIT:          0 MISS:          0
cpu0_L1I PREFETCH REQUESTED:          0 ISSUED:          0 USEFUL:          0 USELESS:          0
cpu0_L1I AVERAGE MISS LATENCY: -nan cycles
cpu0_L1I TOTAL        ACCESS:          0 HIT:          0 MISS:          0
cpu0_L1I LOAD         ACCESS:          0 HIT:          0 MISS:          0
cpu0_L1I RFO          ACCESS:          0 HIT:          0 MISS:          0
cpu0_L1I PREFETCH     ACCESS:          0 HIT:          0 MISS:          0
cpu0_L1I WRITE        ACCESS:          0 HIT:          0 MISS:          0
cpu0_L1I TRANSLATION  ACCESS:          0 HIT:          0 MISS:          0
cpu0_L1I PREFETCH REQUESTED:          0 ISSUED:          0 USEFUL:          0 USELESS:          0
cpu0_L1I AVERAGE MISS LATENCY: -nan cycles
cpu0_L2C TOTAL        ACCESS:     184803 HIT:      85174 MISS:      99629
cpu0_L2C LOAD         ACCESS:      17673 HIT:       1065 MISS:      16608
cpu0_L2C RFO          ACCESS:      83470 HIT:        591 MISS:      82879
cpu0_L2C PREFETCH     ACCESS:          0 HIT:          0 MISS:          0
cpu0_L2C WRITE        ACCESS:      83581 HIT:      83447 MISS:        134
cpu0_L2C TRANSLATION  ACCESS:         79 HIT:         71 MISS:          8
cpu0_L2C PREFETCH REQUESTED:          0 ISSUED:          0 USEFUL:          0 USELESS:          0
cpu0_L2C AVERAGE MISS LATENCY: 1387 cycles
cpu0_L2C TOTAL        ACCESS:          0 HIT:          0 MISS:          0
cpu0_L2C LOAD         ACCESS:          0 HIT:          0 MISS:          0
cpu0_L2C RFO          ACCESS:          0 HIT:          0 MISS:          0
cpu0_L2C PREFETCH     ACCESS:          0 HIT:          0 MISS:          0
cpu0_L2C WRITE        ACCESS:          0 HIT:          0 MISS:          0
cpu0_L2C TRANSLATION  ACCESS:          0 HIT:          0 MISS:          0
cpu0_L2C PREFETCH REQUESTED:          0 ISSUED:          0 USEFUL:          0 USELESS:          0
cpu0_L2C AVERAGE MISS LATENCY: 1387 cycles
cpu0_L2C TOTAL        ACCESS:          0 HIT:          0 MISS:          0
cpu0_L2C LOAD         ACCESS:          0 HIT:          0 MISS:          0
cpu0_L2C RFO          ACCESS:          0 HIT:          0 MISS:          0
cpu0_L2C PREFETCH     ACCESS:          0 HIT:          0 MISS:          0
cpu0_L2C WRITE        ACCESS:          0 HIT:          0 MISS:          0
cpu0_L2C TRANSLATION  ACCESS:          0 HIT:          0 MISS:          0
cpu0_L2C PREFETCH REQUESTED:          0 ISSUED:          0 USEFUL:          0 USELESS:          0
cpu0_L2C AVERAGE MISS LATENCY: 1387 cycles
cpu0_L2C TOTAL        ACCESS:          0 HIT:          0 MISS:          0
cpu0_L2C LOAD         ACCESS:          0 HIT:          0 MISS:          0
cpu0_L2C RFO          ACCESS:          0 HIT:          0 MISS:          0
cpu0_L2C PREFETCH     ACCESS:          0 HIT:          0 MISS:          0
cpu0_L2C WRITE        ACCESS:          0 HIT:          0 MISS:          0
cpu0_L2C TRANSLATION  ACCESS:          0 HIT:          0 MISS:          0
cpu0_L2C PREFETCH REQUESTED:          0 ISSUED:          0 USEFUL:          0 USELESS:          0
cpu0_L2C AVERAGE MISS LATENCY: 1387 cycles
cpu0_STLB TOTAL        ACCESS:       1628 HIT:         73 MISS:       1555
cpu0_STLB LOAD         ACCESS:       1628 HIT:         73 MISS:       1555
cpu0_STLB RFO          ACCESS:          0 HIT:          0 MISS:          0
cpu0_STLB PREFETCH     ACCESS:          0 HIT:          0 MISS:          0
cpu0_STLB WRITE        ACCESS:          0 HIT:          0 MISS:          0
cpu0_STLB TRANSLATION  ACCESS:          0 HIT:          0 MISS:          0
cpu0_STLB PREFETCH REQUESTED:          0 ISSUED:          0 USEFUL:          0 USELESS:          0
cpu0_STLB AVERAGE MISS LATENCY: 204.3 cycles
cpu0_STLB TOTAL        ACCESS:          0 HIT:          0 MISS:          0
cpu0_STLB LOAD         ACCESS:          0 HIT:          0 MISS:          0
cpu0_STLB RFO          ACCESS:          0 HIT:          0 MISS:          0
cpu0_STLB PREFETCH     ACCESS:          0 HIT:          0 MISS:          0
cpu0_STLB WRITE        ACCESS:          0 HIT:          0 MISS:          0
cpu0_STLB TRANSLATION  ACCESS:          0 HIT:          0 MISS:          0
cpu0_STLB PREFETCH REQUESTED:          0 ISSUED:          0 USEFUL:          0 USELESS:          0
cpu0_STLB AVERAGE MISS LATENCY: 204.3 cycles
cpu0_STLB TOTAL        ACCESS:          0 HIT:          0 MISS:          0
cpu0_STLB LOAD         ACCESS:          0 HIT:          0 MISS:          0
cpu0_STLB RFO          ACCESS:          0 HIT:          0 MISS:          0
cpu0_STLB PREFETCH     ACCESS:          0 HIT:          0 MISS:          0
cpu0_STLB WRITE        ACCESS:          0 HIT:          0 MISS:          0
cpu0_STLB TRANSLATION  ACCESS:          0 HIT:          0 MISS:          0
cpu0_STLB PREFETCH REQUESTED:          0 ISSUED:          0 USEFUL:          0 USELESS:          0
cpu0_STLB AVERAGE MISS LATENCY: 204.3 cycles
cpu0_STLB TOTAL        ACCESS:          0 HIT:          0 MISS:          0
cpu0_STLB LOAD         ACCESS:          0 HIT:          0 MISS:          0
cpu0_STLB RFO          ACCESS:          0 HIT:          0 MISS:          0
cpu0_STLB PREFETCH     ACCESS:          0 HIT:          0 MISS:          0
cpu0_STLB WRITE        ACCESS:          0 HIT:          0 MISS:          0
cpu0_STLB TRANSLATION  ACCESS:          0 HIT:          0 MISS:          0
cpu0_STLB PREFETCH REQUESTED:          0 ISSUED:          0 USEFUL:          0 USELESS:          0
cpu0_STLB AVERAGE MISS LATENCY: 204.3 cycles
cpu1_DTLB TOTAL        ACCESS:          0 HIT:          0 MISS:          0
cpu1_DTLB LOAD         ACCESS:          0 HIT:          0 MISS:          0
cpu1_DTLB RFO          ACCESS:          0 HIT:          0 MISS:          0
cpu1_DTLB PREFETCH     ACCESS:          0 HIT:          0 MISS:          0
cpu1_DTLB WRITE        ACCESS:          0 HIT:          0 MISS:          0
cpu1_DTLB TRANSLATION  ACCESS:          0 HIT:          0 MISS:          0
cpu1_DTLB PREFETCH REQUESTED:          0 ISSUED:          0 USEFUL:          0 USELESS:          0
cpu1_DTLB AVERAGE MISS LATENCY: 39.39 cycles
cpu1_DTLB TOTAL        ACCESS:   61559022 HIT:   61524589 MISS:      34433
cpu1_DTLB LOAD         ACCESS:   61559022 HIT:   61524589 MISS:      34433
cpu1_DTLB RFO          ACCESS:          0 HIT:          0 MISS:          0
cpu1_DTLB PREFETCH     ACCESS:          0 HIT:          0 MISS:          0
cpu1_DTLB WRITE        ACCESS:          0 HIT:          0 MISS:          0
cpu1_DTLB TRANSLATION  ACCESS:          0 HIT:          0 MISS:          0
cpu1_DTLB PREFETCH REQUESTED:          0 ISSUED:          0 USEFUL:          0 USELESS:          0
cpu1_DTLB AVERAGE MISS LATENCY: 39.39 cycles
cpu1_DTLB TOTAL        ACCESS:          0 HIT:          0 MISS:          0
cpu1_DTLB LOAD         ACCESS:          0 HIT:          0 MISS:          0
cpu1_DTLB RFO          ACCESS:          0 HIT:          0 MISS:          0
cpu1_DTLB PREFETCH     ACCESS:          0 HIT:          0 MISS:          0
cpu1_DTLB WRITE        ACCESS:          0 HIT:          0 MISS:          0
cpu1_DTLB TRANSLATION  ACCESS:          0 HIT:          0 MISS:          0
cpu1_DTLB PREFETCH REQUESTED:          0 ISSUED:          0 USEFUL:          0 USELESS:          0
cpu1_DTLB AVERAGE MISS LATENCY: 39.39 cycles
cpu1_DTLB TOTAL        ACCESS:          0 HIT:          0 MISS:          0
cpu1_DTLB LOAD         ACCESS:          0 HIT:          0 MISS:          0
cpu1_DTLB RFO          ACCESS:          0 HIT:          0 MISS:          0
cpu1_DTLB PREFETCH     ACCESS:          0 HIT:          0 MISS:          0
cpu1_DTLB WRITE        ACCESS:          0 HIT:          0 MISS:          0
cpu1_DTLB TRANSLATION  ACCESS:          0 HIT:          0 MISS:          0
cpu1_DTLB PREFETCH REQUESTED:          0 ISSUED:          0 USEFUL:          0 USELESS:          0
cpu1_DTLB AVERAGE MISS LATENCY: 39.39 cycles
cpu1_ITLB TOTAL        ACCESS:          0 HIT:          0 MISS:          0
cpu1_ITLB LOAD         ACCESS:          0 HIT:          0 MISS:          0
cpu1_ITLB RFO          ACCESS:          0 HIT:          0 MISS:          0
cpu1_ITLB PREFETCH     ACCESS:          0 HIT:          0 MISS:          0
cpu1_ITLB WRITE        ACCESS:          0 HIT:          0 MISS:          0
cpu1_ITLB TRANSLATION  ACCESS:          0 HIT:          0 MISS:          0
cpu1_ITLB PREFETCH REQUESTED:          0 ISSUED:          0 USEFUL:          0 USELESS:          0
cpu1_ITLB AVERAGE MISS LATENCY: 611.6 cycles
cpu1_ITLB TOTAL        ACCESS:    4092024 HIT:    4092015 MISS:          9
cpu1_ITLB LOAD         ACCESS:    4092024 HIT:    4092015 MISS:          9
cpu1_ITLB RFO          ACCESS:          0 HIT:          0 MISS:          0
cpu1_ITLB PREFETCH     ACCESS:          0 HIT:          0 MISS:          0
cpu1_ITLB WRITE        ACCESS:          0 HIT:          0 MISS:          0
cpu1_ITLB TRANSLATION  ACCESS:          0 HIT:          0 MISS:          0
cpu1_ITLB PREFETCH REQUESTED:          0 ISSUED:          0 USEFUL:          0 USELESS:          0
cpu1_ITLB AVERAGE MISS LATENCY: 611.6 cycles
cpu1_ITLB TOTAL        ACCESS:          0 HIT:          0 MISS:          0
cpu1_ITLB LOAD         ACCESS:          0 HIT:          0 MISS:          0
cpu1_ITLB RFO          ACCESS:          0 HIT:          0 MISS:          0
cpu1_ITLB PREFETCH     ACCESS:          0 HIT:          0 MISS:          0
cpu1_ITLB WRITE        ACCESS:          0 HIT:          0 MISS:          0
cpu1_ITLB TRANSLATION  ACCESS:          0 HIT:          0 MISS:          0
cpu1_ITLB PREFETCH REQUESTED:          0 ISSUED:          0 USEFUL:          0 USELESS:          0
cpu1_ITLB AVERAGE MISS LATENCY: 611.6 cycles
cpu1_ITLB TOTAL        ACCESS:          0 HIT:          0 MISS:          0
cpu1_ITLB LOAD         ACCESS:          0 HIT:          0 MISS:          0
cpu1_ITLB RFO          ACCESS:          0 HIT:          0 MISS:          0
cpu1_ITLB PREFETCH     ACCESS:          0 HIT:          0 MISS:          0
cpu1_ITLB WRITE        ACCESS:          0 HIT:          0 MISS:          0
cpu1_ITLB TRANSLATION  ACCESS:          0 HIT:          0 MISS:          0
cpu1_ITLB PREFETCH REQUESTED:          0 ISSUED:          0 USEFUL:          0 USELESS:          0
cpu1_ITLB AVERAGE MISS LATENCY: 611.6 cycles
cpu1_L1D TOTAL        ACCESS:          0 HIT:          0 MISS:          0
cpu1_L1D LOAD         ACCESS:          0 HIT:          0 MISS:          0
cpu1_L1D RFO          ACCESS:          0 HIT:          0 MISS:          0
cpu1_L1D PREFETCH     ACCESS:          0 HIT:          0 MISS:          0
cpu1_L1D WRITE        ACCESS:          0 HIT:          0 MISS:          0
cpu1_L1D TRANSLATION  ACCESS:          0 HIT:          0 MISS:          0
cpu1_L1D PREFETCH REQUESTED:          0 ISSUED:          0 USEFUL:          0 USELESS:          0
cpu1_L1D AVERAGE MISS LATENCY: 359.3 cycles
cpu1_L1D TOTAL        ACCESS:   84132220 HIT:   83212437 MISS:     919783
cpu1_L1D LOAD         ACCESS:   47375560 HIT:   47077309 MISS:     298251
cpu1_L1D RFO          ACCESS:          0 HIT:          0 MISS:          0
cpu1_L1D PREFETCH     ACCESS:          0 HIT:          0 MISS:          0
cpu1_L1D WRITE        ACCESS:   36750781 HIT:   36130380 MISS:     620401
cpu1_L1D TRANSLATION  ACCESS:       5879 HIT:       4748 MISS:       1131
cpu1_L1D PREFETCH REQUESTED:          0 ISSUED:          0 USEFUL:          0 USELESS:          0
cpu1_L1D AVERAGE MISS LATENCY: 359.3 cycles
cpu1_L1D TOTAL        ACCESS:          0 HIT:          0 MISS:          0
cpu1_L1D LOAD         ACCESS:          0 HIT:          0 MISS:          0
cpu1_L1D RFO          ACCESS:          0 HIT:          0 MISS:          0
cpu1_L1D PREFETCH     ACCESS:          0 HIT:          0 MISS:          0
cpu1_L1D WRITE        ACCESS:          0 HIT:          0 MISS:          0
cpu1_L1D TRANSLATION  ACCESS:          0 HIT:          0 MISS:          0
cpu1_L1D PREFETCH REQUESTED:          0 ISSUED:          0 USEFUL:          0 USELESS:          0
cpu1_L1D AVERAGE MISS LATENCY: 359.3 cycles
cpu1_L1D TOTAL        ACCESS:          0 HIT:          0 MISS:          0
cpu1_L1D LOAD         ACCESS:          0 HIT:          0 MISS:          0
cpu1_L1D RFO          ACCESS:          0 HIT:          0 MISS:          0
cpu1_L1D PREFETCH     ACCESS:          0 HIT:          0 MISS:          0
cpu1_L1D WRITE        ACCESS:          0 HIT:          0 MISS:          0
cpu1_L1D TRANSLATION  ACCESS:          0 HIT:          0 MISS:          0
cpu1_L1D PREFETCH REQUESTED:          0 ISSUED:          0 USEFUL:          0 USELESS:          0
cpu1_L1D AVERAGE MISS LATENCY: 359.3 cycles
cpu1_L1I TOTAL        ACCESS:          0 HIT:          0 MISS:          0
cpu1_L1I LOAD         ACCESS:          0 HIT:          0 MISS:          0
cpu1_L1I RFO          ACCESS:          0 HIT:          0 MISS:          0
cpu1_L1I PREFETCH     ACCESS:          0 HIT:          0 MISS:          0
cpu1_L1I WRITE        ACCESS:          0 HIT:          0 MISS:          0
cpu1_L1I TRANSLATION  ACCESS:          0 HIT:          0 MISS:          0
cpu1_L1I PREFETCH REQUESTED:          0 ISSUED:          0 USEFUL:          0 USELESS:          0
cpu1_L1I AVERAGE MISS LATENCY: 498.5 cycles
cpu1_L1I TOTAL        ACCESS:    4981460 HIT:    4981380 MISS:         80
cpu1_L1I LOAD         ACCESS:    4981460 HIT:    4981380 MISS:         80
cpu1_L1I RFO          ACCESS:          0 HIT:          0 MISS:          0
cpu1_L1I PREFETCH     ACCESS:          0 HIT:          0 MISS:          0
cpu1_L1I WRITE        ACCESS:          0 HIT:          0 MISS:          0
cpu1_L1I TRANSLATION  ACCESS:          0 HIT:          0 MISS:          0
cpu1_L1I PREFETCH REQUESTED:          0 ISSUED:          0 USEFUL:          0 USELESS:          0
cpu1_L1I AVERAGE MISS LATENCY: 498.5 cycles
cpu1_L1I TOTAL        ACCESS:          0 HIT:          0 MISS:          0
cpu1_L1I LOAD         ACCESS:          0 HIT:          0 MISS:          0
cpu1_L1I RFO          ACCESS:          0 HIT:          0 MISS:          0
cpu1_L1I PREFETCH     ACCESS:          0 HIT:          0 MISS:          0
cpu1_L1I WRITE        ACCESS:          0 HIT:          0 MISS:          0
cpu1_L1I TRANSLATION  ACCESS:          0 HIT:          0 MISS:          0
cpu1_L1I PREFETCH REQUESTED:          0 ISSUED:          0 USEFUL:          0 USELESS:          0
cpu1_L1I AVERAGE MISS LATENCY: 498.5 cycles
cpu1_L1I TOTAL        ACCESS:          0 HIT:          0 MISS:          0
cpu1_L1I LOAD         ACCESS:          0 HIT:          0 MISS:          0
cpu1_L1I RFO          ACCESS:          0 HIT:          0 MISS:          0
cpu1_L1I PREFETCH     ACCESS:          0 HIT:          0 MISS:          0
cpu1_L1I WRITE        ACCESS:          0 HIT:          0 MISS:          0
cpu1_L1I TRANSLATION  ACCESS:          0 HIT:          0 MISS:          0
cpu1_L1I PREFETCH REQUESTED:          0 ISSUED:          0 USEFUL:          0 USELESS:          0
cpu1_L1I AVERAGE MISS LATENCY: 498.5 cycles
cpu1_L2C TOTAL        ACCESS:          0 HIT:          0 MISS:          0
cpu1_L2C LOAD         ACCESS:          0 HIT:          0 MISS:          0
cpu1_L2C RFO          ACCESS:          0 HIT:          0 MISS:          0
cpu1_L2C PREFETCH     ACCESS:          0 HIT:          0 MISS:          0
cpu1_L2C WRITE        ACCESS:          0 HIT:          0 MISS:          0
cpu1_L2C TRANSLATION  ACCESS:          0 HIT:          0 MISS:          0
cpu1_L2C PREFETCH REQUESTED:          0 ISSUED:          0 USEFUL:          0 USELESS:          0
cpu1_L2C AVERAGE MISS LATENCY: 1262 cycles
cpu1_L2C TOTAL        ACCESS:     403204 HIT:     116148 MISS:     287056
cpu1_L2C LOAD         ACCESS:     171910 HIT:        264 MISS:     171646
cpu1_L2C RFO          ACCESS:     115060 HIT:        973 MISS:     114087
cpu1_L2C PREFETCH     ACCESS:          0 HIT:          0 MISS:          0
cpu1_L2C WRITE        ACCESS:     115103 HIT:     114901 MISS:        202
cpu1_L2C TRANSLATION  ACCESS:       1131 HIT:         10 MISS:       1121
cpu1_L2C PREFETCH REQUESTED:          0 ISSUED:          0 USEFUL:          0 USELESS:          0
cpu1_L2C AVERAGE MISS LATENCY: 1262 cycles
cpu1_L2C TOTAL        ACCESS:          0 HIT:          0 MISS:          0
cpu1_L2C LOAD         ACCESS:          0 HIT:          0 MISS:          0
cpu1_L2C RFO          ACCESS:          0 HIT:          0 MISS:          0
cpu1_L2C PREFETCH     ACCESS:          0 HIT:          0 MISS:          0
cpu1_L2C WRITE        ACCESS:          0 HIT:          0 MISS:          0
cpu1_L2C TRANSLATION  ACCESS:          0 HIT:          0 MISS:          0
cpu1_L2C PREFETCH REQUESTED:          0 ISSUED:          0 USEFUL:          0 USELESS:          0
cpu1_L2C AVERAGE MISS LATENCY: 1262 cycles
cpu1_L2C TOTAL        ACCESS:          0 HIT:          0 MISS:          0
cpu1_L2C LOAD         ACCESS:          0 HIT:          0 MISS:          0
cpu1_L2C RFO          ACCESS:          0 HIT:          0 MISS:          0
cpu1_L2C PREFETCH     ACCESS:          0 HIT:          0 MISS:          0
cpu1_L2C WRITE        ACCESS:          0 HIT:          0 MISS:          0
cpu1_L2C TRANSLATION  ACCESS:          0 HIT:          0 MISS:          0
cpu1_L2C PREFETCH REQUESTED:          0 ISSUED:          0 USEFUL:          0 USELESS:          0
cpu1_L2C AVERAGE MISS LATENCY: 1262 cycles
cpu1_STLB TOTAL        ACCESS:          0 HIT:          0 MISS:          0
cpu1_STLB LOAD         ACCESS:          0 HIT:          0 MISS:          0
cpu1_STLB RFO          ACCESS:          0 HIT:          0 MISS:          0
cpu1_STLB PREFETCH     ACCESS:          0 HIT:          0 MISS:          0
cpu1_STLB WRITE        ACCESS:          0 HIT:          0 MISS:          0
cpu1_STLB TRANSLATION  ACCESS:          0 HIT:          0 MISS:          0
cpu1_STLB PREFETCH REQUESTED:          0 ISSUED:          0 USEFUL:          0 USELESS:          0
cpu1_STLB AVERAGE MISS LATENCY: 368.4 cycles
cpu1_STLB TOTAL        ACCESS:       6357 HIT:        496 MISS:       5861
cpu1_STLB LOAD         ACCESS:       6357 HIT:        496 MISS:       5861
cpu1_STLB RFO          ACCESS:          0 HIT:          0 MISS:          0
cpu1_STLB PREFETCH     ACCESS:          0 HIT:          0 MISS:          0
cpu1_STLB WRITE        ACCESS:          0 HIT:          0 MISS:          0
cpu1_STLB TRANSLATION  ACCESS:          0 HIT:          0 MISS:          0
cpu1_STLB PREFETCH REQUESTED:          0 ISSUED:          0 USEFUL:          0 USELESS:          0
cpu1_STLB AVERAGE MISS LATENCY: 368.4 cycles
cpu1_STLB TOTAL        ACCESS:          0 HIT:          0 MISS:          0
cpu1_STLB LOAD         ACCESS:          0 HIT:          0 MISS:          0
cpu1_STLB RFO          ACCESS:          0 HIT:          0 MISS:          0
cpu1_STLB PREFETCH     ACCESS:          0 HIT:          0 MISS:          0
cpu1_STLB WRITE        ACCESS:          0 HIT:          0 MISS:          0
cpu1_STLB TRANSLATION  ACCESS:          0 HIT:          0 MISS:          0
cpu1_STLB PREFETCH REQUESTED:          0 ISSUED:          0 USEFUL:          0 USELESS:          0
cpu1_STLB AVERAGE MISS LATENCY: 368.4 cycles
cpu1_STLB TOTAL        ACCESS:          0 HIT:          0 MISS:          0
cpu1_STLB LOAD         ACCESS:          0 HIT:          0 MISS:          0
cpu1_STLB RFO          ACCESS:          0 HIT:          0 MISS:          0
cpu1_STLB PREFETCH     ACCESS:          0 HIT:          0 MISS:          0
cpu1_STLB WRITE        ACCESS:          0 HIT:          0 MISS:          0
cpu1_STLB TRANSLATION  ACCESS:          0 HIT:          0 MISS:          0
cpu1_STLB PREFETCH REQUESTED:          0 ISSUED:          0 USEFUL:          0 USELESS:          0
cpu1_STLB AVERAGE MISS LATENCY: 368.4 cycles
cpu2_DTLB TOTAL        ACCESS:          0 HIT:          0 MISS:          0
cpu2_DTLB LOAD         ACCESS:          0 HIT:          0 MISS:          0
cpu2_DTLB RFO          ACCESS:          0 HIT:          0 MISS:          0
cpu2_DTLB PREFETCH     ACCESS:          0 HIT:          0 MISS:          0
cpu2_DTLB WRITE        ACCESS:          0 HIT:          0 MISS:          0
cpu2_DTLB TRANSLATION  ACCESS:          0 HIT:          0 MISS:          0
cpu2_DTLB PREFETCH REQUESTED:          0 ISSUED:          0 USEFUL:          0 USELESS:          0
cpu2_DTLB AVERAGE MISS LATENCY: 28.14 cycles
cpu2_DTLB TOTAL        ACCESS:          0 HIT:          0 MISS:          0
cpu2_DTLB LOAD         ACCESS:          0 HIT:          0 MISS:          0
cpu2_DTLB RFO          ACCESS:          0 HIT:          0 MISS:          0
cpu2_DTLB PREFETCH     ACCESS:          0 HIT:          0 MISS:          0
cpu2_DTLB WRITE        ACCESS:          0 HIT:          0 MISS:          0
cpu2_DTLB TRANSLATION  ACCESS:          0 HIT:          0 MISS:          0
cpu2_DTLB PREFETCH REQUESTED:          0 ISSUED:          0 USEFUL:          0 USELESS:          0
cpu2_DTLB AVERAGE MISS LATENCY: 28.14 cycles
cpu2_DTLB TOTAL        ACCESS:   17346834 HIT:   17236529 MISS:     110305
cpu2_DTLB LOAD         ACCESS:   17346834 HIT:   17236529 MISS:     110305
cpu2_DTLB RFO          ACCESS:          0 HIT:          0 MISS:          0
cpu2_DTLB PREFETCH     ACCESS:          0 HIT:          0 MISS:          0
cpu2_DTLB WRITE        ACCESS:          0 HIT:          0 MISS:          0
cpu2_DTLB TRANSLATION  ACCESS:          0 HIT:          0 MISS:          0
cpu2_DTLB PREFETCH REQUESTED:          0 ISSUED:          0 USEFUL:          0 USELESS:          0
cpu2_DTLB AVERAGE MISS LATENCY: 28.14 cycles
cpu2_DTLB TOTAL        ACCESS:          0 HIT:          0 MISS:          0
cpu2_DTLB LOAD         ACCESS:          0 HIT:          0 MISS:          0
cpu2_DTLB RFO          ACCESS:          0 HIT:          0 MISS:          0
cpu2_DTLB PREFETCH     ACCESS:          0 HIT:          0 MISS:          0
cpu2_DTLB WRITE        ACCESS:          0 HIT:          0 MISS:          0
cpu2_DTLB TRANSLATION  ACCESS:          0 HIT:          0 MISS:          0
cpu2_DTLB PREFETCH REQUESTED:          0 ISSUED:          0 USEFUL:          0 USELESS:          0
cpu2_DTLB AVERAGE MISS LATENCY: 28.14 cycles
cpu2_ITLB TOTAL        ACCESS:          0 HIT:          0 MISS:          0
cpu2_ITLB LOAD         ACCESS:          0 HIT:          0 MISS:          0
cpu2_ITLB RFO          ACCESS:          0 HIT:          0 MISS:          0
cpu2_ITLB PREFETCH     ACCESS:          0 HIT:          0 MISS:          0
cpu2_ITLB WRITE        ACCESS:          0 HIT:          0 MISS:          0
cpu2_ITLB TRANSLATION  ACCESS:          0 HIT:          0 MISS:          0
cpu2_ITLB PREFETCH REQUESTED:          0 ISSUED:          0 USEFUL:          0 USELESS:          0
cpu2_ITLB AVERAGE MISS LATENCY: -nan cycles
cpu2_ITLB TOTAL        ACCESS:          0 HIT:          0 MISS:          0
cpu2_ITLB LOAD         ACCESS:          0 HIT:          0 MISS:          0
cpu2_ITLB RFO          ACCESS:          0 HIT:          0 MISS:          0
cpu2_ITLB PREFETCH     ACCESS:          0 HIT:          0 MISS:          0
cpu2_ITLB WRITE        ACCESS:          0 HIT:          0 MISS:          0
cpu2_ITLB TRANSLATION  ACCESS:          0 HIT:          0 MISS:          0
cpu2_ITLB PREFETCH REQUESTED:          0 ISSUED:          0 USEFUL:          0 USELESS:          0
cpu2_ITLB AVERAGE MISS LATENCY: -nan cycles
cpu2_ITLB TOTAL        ACCESS:          0 HIT:          0 MISS:          0
cpu2_ITLB LOAD         ACCESS:          0 HIT:          0 MISS:          0
cpu2_ITLB RFO          ACCESS:          0 HIT:          0 MISS:          0
cpu2_ITLB PREFETCH     ACCESS:          0 HIT:          0 MISS:          0
cpu2_ITLB WRITE        ACCESS:          0 HIT:          0 MISS:          0
cpu2_ITLB TRANSLATION  ACCESS:          0 HIT:          0 MISS:          0
cpu2_ITLB PREFETCH REQUESTED:          0 ISSUED:          0 USEFUL:          0 USELESS:          0
cpu2_ITLB AVERAGE MISS LATENCY: -nan cycles
cpu2_ITLB TOTAL        ACCESS:          0 HIT:          0 MISS:          0
cpu2_ITLB LOAD         ACCESS:          0 HIT:          0 MISS:          0
cpu2_ITLB RFO          ACCESS:          0 HIT:          0 MISS:          0
cpu2_ITLB PREFETCH     ACCESS:          0 HIT:          0 MISS:          0
cpu2_ITLB WRITE        ACCESS:          0 HIT:          0 MISS:          0
cpu2_ITLB TRANSLATION  ACCESS:          0 HIT:          0 MISS:          0
cpu2_ITLB PREFETCH REQUESTED:          0 ISSUED:          0 USEFUL:          0 USELESS:          0
cpu2_ITLB AVERAGE MISS LATENCY: -nan cycles
cpu2_L1D TOTAL        ACCESS:          0 HIT:          0 MISS:          0
cpu2_L1D LOAD         ACCESS:          0 HIT:          0 MISS:          0
cpu2_L1D RFO          ACCESS:          0 HIT:          0 MISS:          0
cpu2_L1D PREFETCH     ACCESS:          0 HIT:          0 MISS:          0
cpu2_L1D WRITE        ACCESS:          0 HIT:          0 MISS:          0
cpu2_L1D TRANSLATION  ACCESS:          0 HIT:          0 MISS:          0
cpu2_L1D PREFETCH REQUESTED:          0 ISSUED:          0 USEFUL:          0 USELESS:          0
cpu2_L1D AVERAGE MISS LATENCY: 167.7 cycles
cpu2_L1D TOTAL        ACCESS:          0 HIT:          0 MISS:          0
cpu2_L1D LOAD         ACCESS:          0 HIT:          0 MISS:          0
cpu2_L1D RFO          ACCESS:          0 HIT:          0 MISS:          0
cpu2_L1D PREFETCH     ACCESS:          0 HIT:          0 MISS:          0
cpu2_L1D WRITE        ACCESS:          0 HIT:          0 MISS:          0
cpu2_L1D TRANSLATION  ACCESS:          0 HIT:          0 MISS:          0
cpu2_L1D PREFETCH REQUESTED:          0 ISSUED:          0 USEFUL:          0 USELESS:          0
cpu2_L1D AVERAGE MISS LATENCY: 167.7 cycles
cpu2_L1D TOTAL        ACCESS:   24898323 HIT:   21105721 MISS:    3792602
cpu2_L1D LOAD         ACCESS:   14346836 HIT:   10562908 MISS:    3783928
cpu2_L1D RFO          ACCESS:          0 HIT:          0 MISS:          0
cpu2_L1D PREFETCH     ACCESS:          0 HIT:          0 MISS:          0
cpu2_L1D WRITE        ACCESS:   10530829 HIT:   10522966 MISS:       7863
cpu2_L1D TRANSLATION  ACCESS:      20658 HIT:      19847 MISS:        811
cpu2_L1D PREFETCH REQUESTED:          0 ISSUED:          0 USEFUL:          0 USELESS:          0
cpu2_L1D AVERAGE MISS LATENCY: 167.7 cycles
cpu2_L1D TOTAL        ACCESS:          0 HIT:          0 MISS:          0
cpu2_L1D LOAD         ACCESS:          0 HIT:          0 MISS:          0
cpu2_L1D RFO          ACCESS:          0 HIT:          0 MISS:          0
cpu2_L1D PREFETCH     ACCESS:          0 HIT:          0 MISS:          0
cpu2_L1D WRITE        ACCESS:          0 HIT:          0 MISS:          0
cpu2_L1D TRANSLATION  ACCESS:          0 HIT:          0 MISS:          0
cpu2_L1D PREFETCH REQUESTED:          0 ISSUED:          0 USEFUL:          0 USELESS:          0
cpu2_L1D AVERAGE MISS LATENCY: 167.7 cycles
cpu2_L1I TOTAL        ACCESS:          0 HIT:          0 MISS:          0
cpu2_L1I LOAD         ACCESS:          0 HIT:          0 MISS:          0
cpu2_L1I RFO          ACCESS:          0 HIT:          0 MISS:          0
cpu2_L1I PREFETCH     ACCESS:          0 HIT:          0 MISS:          0
cpu2_L1I WRITE        ACCESS:          0 HIT:          0 MISS:          0
cpu2_L1I TRANSLATION  ACCESS:          0 HIT:          0 MISS:          0
cpu2_L1I PREFETCH REQUESTED:          0 ISSUED:          0 USEFUL:          0 USELESS:          0
cpu2_L1I AVERAGE MISS LATENCY: -nan cycles
cpu2_L1I TOTAL        ACCESS:          0 HIT:          0 MISS:          0
cpu2_L1I LOAD         ACCESS:          0 HIT:          0 MISS:          0
cpu2_L1I RFO          ACCESS:          0 HIT:          0 MISS:          0
cpu2_L1I PREFETCH     ACCESS:          0 HIT:          0 MISS:          0
cpu2_L1I WRITE        ACCESS:          0 HIT:          0 MISS:          0
cpu2_L1I TRANSLATION  ACCESS:          0 HIT:          0 MISS:          0
cpu2_L1I PREFETCH REQUESTED:          0 ISSUED:          0 USEFUL:          0 USELESS:          0
cpu2_L1I AVERAGE MISS LATENCY: -nan cycles
cpu2_L1I TOTAL        ACCESS:          0 HIT:          0 MISS:          0
cpu2_L1I LOAD         ACCESS:          0 HIT:          0 MISS:          0
cpu2_L1I RFO          ACCESS:          0 HIT:          0 MISS:          0
cpu2_L1I PREFETCH     ACCESS:          0 HIT:          0 MISS:          0
cpu2_L1I WRITE        ACCESS:          0 HIT:          0 MISS:          0
cpu2_L1I TRANSLATION  ACCESS:          0 HIT:          0 MISS:          0
cpu2_L1I PREFETCH REQUESTED:          0 ISSUED:          0 USEFUL:          0 USELESS:          0
cpu2_L1I AVERAGE MISS LATENCY: -nan cycles
cpu2_L1I TOTAL        ACCESS:          0 HIT:          0 MISS:          0
cpu2_L1I LOAD         ACCESS:          0 HIT:          0 MISS:          0
cpu2_L1I RFO          ACCESS:          0 HIT:          0 MISS:          0
cpu2_L1I PREFETCH     ACCESS:          0 HIT:          0 MISS:          0
cpu2_L1I WRITE        ACCESS:          0 HIT:          0 MISS:          0
cpu2_L1I TRANSLATION  ACCESS:          0 HIT:          0 MISS:          0
cpu2_L1I PREFETCH REQUESTED:          0 ISSUED:          0 USEFUL:          0 USELESS:          0
cpu2_L1I AVERAGE MISS LATENCY: -nan cycles
cpu2_L2C TOTAL        ACCESS:          0 HIT:          0 MISS:          0
cpu2_L2C LOAD         ACCESS:          0 HIT:          0 MISS:          0
cpu2_L2C RFO          ACCESS:          0 HIT:          0 MISS:          0
cpu2_L2C PREFETCH     ACCESS:          0 HIT:          0 MISS:          0
cpu2_L2C WRITE        ACCESS:          0 HIT:          0 MISS:          0
cpu2_L2C TRANSLATION  ACCESS:          0 HIT:          0 MISS:          0
cpu2_L2C PREFETCH REQUESTED:          0 ISSUED:          0 USEFUL:          0 USELESS:          0
cpu2_L2C AVERAGE MISS LATENCY: 551.5 cycles
cpu2_L2C TOTAL        ACCESS:          0 HIT:          0 MISS:          0
cpu2_L2C LOAD         ACCESS:          0 HIT:          0 MISS:          0
cpu2_L2C RFO          ACCESS:          0 HIT:          0 MISS:          0
cpu2_L2C PREFETCH     ACCESS:          0 HIT:          0 MISS:          0
cpu2_L2C WRITE        ACCESS:          0 HIT:          0 MISS:          0
cpu2_L2C TRANSLATION  ACCESS:          0 HIT:          0 MISS:          0
cpu2_L2C PREFETCH REQUESTED:          0 ISSUED:          0 USEFUL:          0 USELESS:          0
cpu2_L2C AVERAGE MISS LATENCY: 551.5 cycles
cpu2_L2C TOTAL        ACCESS:    3303632 HIT:    1884088 MISS:    1419544
cpu2_L2C LOAD         ACCESS:    1982772 HIT:     563735 MISS:    1419037
cpu2_L2C RFO          ACCESS:       2303 HIT:       2021 MISS:        282
cpu2_L2C PREFETCH     ACCESS:          0 HIT:          0 MISS:          0
cpu2_L2C WRITE        ACCESS:    1317748 HIT:    1317748 MISS:          0
cpu2_L2C TRANSLATION  ACCESS:        809 HIT:        584 MISS:        225
cpu2_L2C PREFETCH REQUESTED:          0 ISSUED:          0 USEFUL:          0 USELESS:          0
cpu2_L2C AVERAGE MISS LATENCY: 551.5 cycles
cpu2_L2C TOTAL        ACCESS:          0 HIT:          0 MISS:          0
cpu2_L2C LOAD         ACCESS:          0 HIT:          0 MISS:          0
cpu2_L2C RFO          ACCESS:          0 HIT:          0 MISS:          0
cpu2_L2C PREFETCH     ACCESS:          0 HIT:          0 MISS:          0
cpu2_L2C WRITE        ACCESS:          0 HIT:          0 MISS:          0
cpu2_L2C TRANSLATION  ACCESS:          0 HIT:          0 MISS:          0
cpu2_L2C PREFETCH REQUESTED:          0 ISSUED:          0 USEFUL:          0 USELESS:          0
cpu2_L2C AVERAGE MISS LATENCY: 551.5 cycles
cpu2_STLB TOTAL        ACCESS:          0 HIT:          0 MISS:          0
cpu2_STLB LOAD         ACCESS:          0 HIT:          0 MISS:          0
cpu2_STLB RFO          ACCESS:          0 HIT:          0 MISS:          0
cpu2_STLB PREFETCH     ACCESS:          0 HIT:          0 MISS:          0
cpu2_STLB WRITE        ACCESS:          0 HIT:          0 MISS:          0
cpu2_STLB TRANSLATION  ACCESS:          0 HIT:          0 MISS:          0
cpu2_STLB PREFETCH REQUESTED:          0 ISSUED:          0 USEFUL:          0 USELESS:          0
cpu2_STLB AVERAGE MISS LATENCY: 211.7 cycles
cpu2_STLB TOTAL        ACCESS:          0 HIT:          0 MISS:          0
cpu2_STLB LOAD         ACCESS:          0 HIT:          0 MISS:          0
cpu2_STLB RFO          ACCESS:          0 HIT:          0 MISS:          0
cpu2_STLB PREFETCH     ACCESS:          0 HIT:          0 MISS:          0
cpu2_STLB WRITE        ACCESS:          0 HIT:          0 MISS:          0
cpu2_STLB TRANSLATION  ACCESS:          0 HIT:          0 MISS:          0
cpu2_STLB PREFETCH REQUESTED:          0 ISSUED:          0 USEFUL:          0 USELESS:          0
cpu2_STLB AVERAGE MISS LATENCY: 211.7 cycles
cpu2_STLB TOTAL        ACCESS:      35091 HIT:      14508 MISS:      20583
cpu2_STLB LOAD         ACCESS:      35091 HIT:      14508 MISS:      20583
cpu2_STLB RFO          ACCESS:          0 HIT:          0 MISS:          0
cpu2_STLB PREFETCH     ACCESS:          0 HIT:          0 MISS:          0
cpu2_STLB WRITE        ACCESS:          0 HIT:          0 MISS:          0
cpu2_STLB TRANSLATION  ACCESS:          0 HIT:          0 MISS:          0
cpu2_STLB PREFETCH REQUESTED:          0 ISSUED:          0 USEFUL:          0 USELESS:          0
cpu2_STLB AVERAGE MISS LATENCY: 211.7 cycles
cpu2_STLB TOTAL        ACCESS:          0 HIT:          0 MISS:          0
cpu2_STLB LOAD         ACCESS:          0 HIT:          0 MISS:          0
cpu2_STLB RFO          ACCESS:          0 HIT:          0 MISS:          0
cpu2_STLB PREFETCH     ACCESS:          0 HIT:          0 MISS:          0
cpu2_STLB WRITE        ACCESS:          0 HIT:          0 MISS:          0
cpu2_STLB TRANSLATION  ACCESS:          0 HIT:          0 MISS:          0
cpu2_STLB PREFETCH REQUESTED:          0 ISSUED:          0 USEFUL:          0 USELESS:          0
cpu2_STLB AVERAGE MISS LATENCY: 211.7 cycles
cpu3_DTLB TOTAL        ACCESS:          0 HIT:          0 MISS:          0
cpu3_DTLB LOAD         ACCESS:          0 HIT:          0 MISS:          0
cpu3_DTLB RFO          ACCESS:          0 HIT:          0 MISS:          0
cpu3_DTLB PREFETCH     ACCESS:          0 HIT:          0 MISS:          0
cpu3_DTLB WRITE        ACCESS:          0 HIT:          0 MISS:          0
cpu3_DTLB TRANSLATION  ACCESS:          0 HIT:          0 MISS:          0
cpu3_DTLB PREFETCH REQUESTED:          0 ISSUED:          0 USEFUL:          0 USELESS:          0
cpu3_DTLB AVERAGE MISS LATENCY: 17.11 cycles
cpu3_DTLB TOTAL        ACCESS:          0 HIT:          0 MISS:          0
cpu3_DTLB LOAD         ACCESS:          0 HIT:          0 MISS:          0
cpu3_DTLB RFO          ACCESS:          0 HIT:          0 MISS:          0
cpu3_DTLB PREFETCH     ACCESS:          0 HIT:          0 MISS:          0
cpu3_DTLB WRITE        ACCESS:          0 HIT:          0 MISS:          0
cpu3_DTLB TRANSLATION  ACCESS:          0 HIT:          0 MISS:          0
cpu3_DTLB PREFETCH REQUESTED:          0 ISSUED:          0 USEFUL:          0 USELESS:          0
cpu3_DTLB AVERAGE MISS LATENCY: 17.11 cycles
cpu3_DTLB TOTAL        ACCESS:          0 HIT:          0 MISS:          0
cpu3_DTLB LOAD         ACCESS:          0 HIT:          0 MISS:          0
cpu3_DTLB RFO          ACCESS:          0 HIT:          0 MISS:          0
cpu3_DTLB PREFETCH     ACCESS:          0 HIT:          0 MISS:          0
cpu3_DTLB WRITE        ACCESS:          0 HIT:          0 MISS:          0
cpu3_DTLB TRANSLATION  ACCESS:          0 HIT:          0 MISS:          0
cpu3_DTLB PREFETCH REQUESTED:          0 ISSUED:          0 USEFUL:          0 USELESS:          0
cpu3_DTLB AVERAGE MISS LATENCY: 17.11 cycles
cpu3_DTLB TOTAL        ACCESS:   44044618 HIT:   43680317 MISS:     364301
cpu3_DTLB LOAD         ACCESS:   44044618 HIT:   43680317 MISS:     364301
cpu3_DTLB RFO          ACCESS:          0 HIT:          0 MISS:          0
cpu3_DTLB PREFETCH     ACCESS:          0 HIT:          0 MISS:          0
cpu3_DTLB WRITE        ACCESS:          0 HIT:          0 MISS:          0
cpu3_DTLB TRANSLATION  ACCESS:          0 HIT:          0 MISS:          0
cpu3_DTLB PREFETCH REQUESTED:          0 ISSUED:          0 USEFUL:          0 USELESS:          0
cpu3_DTLB AVERAGE MISS LATENCY: 17.11 cycles
cpu3_ITLB TOTAL        ACCESS:          0 HIT:          0 MISS:          0
cpu3_ITLB LOAD         ACCESS:          0 HIT:          0 MISS:          0
cpu3_ITLB RFO          ACCESS:          0 HIT:          0 MISS:          0
cpu3_ITLB PREFETCH     ACCESS:          0 HIT:          0 MISS:          0
cpu3_ITLB WRITE        ACCESS:          0 HIT:          0 MISS:          0
cpu3_ITLB TRANSLATION  ACCESS:          0 HIT:          0 MISS:          0
cpu3_ITLB PREFETCH REQUESTED:          0 ISSUED:          0 USEFUL:          0 USELESS:          0
cpu3_ITLB AVERAGE MISS LATENCY: 13.96 cycles
cpu3_ITLB TOTAL        ACCESS:          0 HIT:          0 MISS:          0
cpu3_ITLB LOAD         ACCESS:          0 HIT:          0 MISS:          0
cpu3_ITLB RFO          ACCESS:          0 HIT:          0 MISS:          0
cpu3_ITLB PREFETCH     ACCESS:          0 HIT:          0 MISS:          0
cpu3_ITLB WRITE        ACCESS:          0 HIT:          0 MISS:          0
cpu3_ITLB TRANSLATION  ACCESS:          0 HIT:          0 MISS:          0
cpu3_ITLB PREFETCH REQUESTED:          0 ISSUED:          0 USEFUL:          0 USELESS:          0
cpu3_ITLB AVERAGE MISS LATENCY: 13.96 cycles
cpu3_ITLB TOTAL        ACCESS:          0 HIT:          0 MISS:          0
cpu3_ITLB LOAD         ACCESS:          0 HIT:          0 MISS:          0
cpu3_ITLB RFO          ACCESS:          0 HIT:          0 MISS:          0
cpu3_ITLB PREFETCH     ACCESS:          0 HIT:          0 MISS:          0
cpu3_ITLB WRITE        ACCESS:          0 HIT:          0 MISS:          0
cpu3_ITLB TRANSLATION  ACCESS:          0 HIT:          0 MISS:          0
cpu3_ITLB PREFETCH REQUESTED:          0 ISSUED:          0 USEFUL:          0 USELESS:          0
cpu3_ITLB AVERAGE MISS LATENCY: 13.96 cycles
cpu3_ITLB TOTAL        ACCESS:     612532 HIT:     599085 MISS:      13447
cpu3_ITLB LOAD         ACCESS:     612532 HIT:     599085 MISS:      13447
cpu3_ITLB RFO          ACCESS:          0 HIT:          0 MISS:          0
cpu3_ITLB PREFETCH     ACCESS:          0 HIT:          0 MISS:          0
cpu3_ITLB WRITE        ACCESS:          0 HIT:          0 MISS:          0
cpu3_ITLB TRANSLATION  ACCESS:          0 HIT:          0 MISS:          0
cpu3_ITLB PREFETCH REQUESTED:          0 ISSUED:          0 USEFUL:          0 USELESS:          0
cpu3_ITLB AVERAGE MISS LATENCY: 13.96 cycles
cpu3_L1D TOTAL        ACCESS:          0 HIT:          0 MISS:          0
cpu3_L1D LOAD         ACCESS:          0 HIT:          0 MISS:          0
cpu3_L1D RFO          ACCESS:          0 HIT:          0 MISS:          0
cpu3_L1D PREFETCH     ACCESS:          0 HIT:          0 MISS:          0
cpu3_L1D WRITE        ACCESS:          0 HIT:          0 MISS:          0
cpu3_L1D TRANSLATION  ACCESS:          0 HIT:          0 MISS:          0
cpu3_L1D PREFETCH REQUESTED:          0 ISSUED:          0 USEFUL:          0 USELESS:          0
cpu3_L1D AVERAGE MISS LATENCY: 130.1 cycles
cpu3_L1D TOTAL        ACCESS:          0 HIT:          0 MISS:          0
cpu3_L1D LOAD         ACCESS:          0 HIT:          0 MISS:          0
cpu3_L1D RFO          ACCESS:          0 HIT:          0 MISS:          0
cpu3_L1D PREFETCH     ACCESS:          0 HIT:          0 MISS:          0
cpu3_L1D WRITE        ACCESS:          0 HIT:          0 MISS:          0
cpu3_L1D TRANSLATION  ACCESS:          0 HIT:          0 MISS:          0
cpu3_L1D PREFETCH REQUESTED:          0 ISSUED:          0 USEFUL:          0 USELESS:          0
cpu3_L1D AVERAGE MISS LATENCY: 130.1 cycles
cpu3_L1D TOTAL        ACCESS:          0 HIT:          0 MISS:          0
cpu3_L1D LOAD         ACCESS:          0 HIT:          0 MISS:          0
cpu3_L1D RFO          ACCESS:          0 HIT:          0 MISS:          0
cpu3_L1D PREFETCH     ACCESS:          0 HIT:          0 MISS:          0
cpu3_L1D WRITE        ACCESS:          0 HIT:          0 MISS:          0
cpu3_L1D TRANSLATION  ACCESS:          0 HIT:          0 MISS:          0
cpu3_L1D PREFETCH REQUESTED:          0 ISSUED:          0 USEFUL:          0 USELESS:          0
cpu3_L1D AVERAGE MISS LATENCY: 130.1 cycles
cpu3_L1D TOTAL        ACCESS:   53482797 HIT:   42302731 MISS:   11180066
cpu3_L1D LOAD         ACCESS:   32575335 HIT:   27702807 MISS:    4872528
cpu3_L1D RFO          ACCESS:          0 HIT:          0 MISS:          0
cpu3_L1D PREFETCH     ACCESS:          0 HIT:          0 MISS:          0
cpu3_L1D WRITE        ACCESS:   20889782 HIT:   14595375 MISS:    6294407
cpu3_L1D TRANSLATION  ACCESS:      17680 HIT:       4549 MISS:      13131
cpu3_L1D PREFETCH REQUESTED:          0 ISSUED:          0 USEFUL:          0 USELESS:          0
cpu3_L1D AVERAGE MISS LATENCY: 130.1 cycles
cpu3_L1I TOTAL        ACCESS:          0 HIT:          0 MISS:          0
cpu3_L1I LOAD         ACCESS:          0 HIT:          0 MISS:          0
cpu3_L1I RFO          ACCESS:          0 HIT:          0 MISS:          0
cpu3_L1I PREFETCH     ACCESS:          0 HIT:          0 MISS:          0
cpu3_L1I WRITE        ACCESS:          0 HIT:          0 MISS:          0
cpu3_L1I TRANSLATION  ACCESS:          0 HIT:          0 MISS:          0
cpu3_L1I PREFETCH REQUESTED:          0 ISSUED:          0 USEFUL:          0 USELESS:          0
cpu3_L1I AVERAGE MISS LATENCY: 44.66 cycles
cpu3_L1I TOTAL        ACCESS:          0 HIT:          0 MISS:          0
cpu3_L1I LOAD         ACCESS:          0 HIT:          0 MISS:          0
cpu3_L1I RFO          ACCESS:          0 HIT:          0 MISS:          0
cpu3_L1I PREFETCH     ACCESS:          0 HIT:          0 MISS:          0
cpu3_L1I WRITE        ACCESS:          0 HIT:          0 MISS:          0
cpu3_L1I TRANSLATION  ACCESS:          0 HIT:          0 MISS:          0
cpu3_L1I PREFETCH REQUESTED:          0 ISSUED:          0 USEFUL:          0 USELESS:          0
cpu3_L1I AVERAGE MISS LATENCY: 44.66 cycles
cpu3_L1I TOTAL        ACCESS:          0 HIT:          0 MISS:          0
cpu3_L1I LOAD         ACCESS:          0 HIT:          0 MISS:          0
cpu3_L1I RFO          ACCESS:          0 HIT:          0 MISS:          0
cpu3_L1I PREFETCH     ACCESS:          0 HIT:          0 MISS:          0
cpu3_L1I WRITE        ACCESS:          0 HIT:          0 MISS:          0
[...]
cpu2_L1I WRITE        ACCESS:          0 HIT:          0 MISS:          0
cpu2_L1I TRANSLATION  ACCESS:          0 HIT:          0 MISS:          0
cpu2_L1I PREFETCH REQUESTED:          0 ISSUED:          0 USEFUL:          0 USELESS:          0
cpu2_L1I AVERAGE MISS LATENCY: -nan cycles
cpu2_L1I TOTAL        ACCESS:          0 HIT:          0 MISS:          0
cpu2_L1I LOAD         ACCESS:          0 HIT:          0 MISS:          0
cpu2_L1I RFO          ACCESS:          0 HIT:          0 MISS:          0
cpu2_L1I PREFETCH     ACCESS:          0 HIT:          0 MISS:          0
cpu2_L1I WRITE        ACCESS:          0 HIT:          0 MISS:          0
cpu2_L1I TRANSLATION  ACCESS:          0 HIT:          0 MISS:          0
cpu2_L1I PREFETCH REQUESTED:          0 ISSUED:          0 USEFUL:          0 USELESS:          0
cpu2_L1I AVERAGE MISS LATENCY: -nan cycles
cpu2_L2C TOTAL        ACCESS:          0 HIT:          0 MISS:          0
cpu2_L2C LOAD         ACCESS:          0 HIT:          0 MISS:          0
cpu2_L2C RFO          ACCESS:          0 HIT:          0 MISS:          0
cpu2_L2C PREFETCH     ACCESS:          0 HIT:          0 MISS:          0
cpu2_L2C WRITE        ACCESS:          0 HIT:          0 MISS:          0
cpu2_L2C TRANSLATION  ACCESS:          0 HIT:          0 MISS:          0
cpu2_L2C PREFETCH REQUESTED:          0 ISSUED:          0 USEFUL:          0 USELESS:          0
cpu2_L2C AVERAGE MISS LATENCY: 551.5 cycles
cpu2_L2C TOTAL        ACCESS:          0 HIT:          0 MISS:          0
cpu2_L2C LOAD         ACCESS:          0 HIT:          0 MISS:          0
cpu2_L2C RFO          ACCESS:          0 HIT:          0 MISS:          0
cpu2_L2C PREFETCH     ACCESS:          0 HIT:          0 MISS:          0
cpu2_L2C WRITE        ACCESS:          0 HIT:          0 MISS:          0
cpu2_L2C TRANSLATION  ACCESS:          0 HIT:          0 MISS:          0
cpu2_L2C PREFETCH REQUESTED:          0 ISSUED:          0 USEFUL:          0 USELESS:          0
cpu2_L2C AVERAGE MISS LATENCY: 551.5 cycles
cpu2_L2C TOTAL        ACCESS:    3303632 HIT:    1884088 MISS:    1419544
cpu2_L2C LOAD         ACCESS:    1982772 HIT:     563735 MISS:    1419037
cpu2_L2C RFO          ACCESS:       2303 HIT:       2021 MISS:        282
cpu2_L2C PREFETCH     ACCESS:          0 HIT:          0 MISS:          0
cpu2_L2C WRITE        ACCESS:    1317748 HIT:    1317748 MISS:          0
cpu2_L2C TRANSLATION  ACCESS:        809 HIT:        584 MISS:        225
cpu2_L2C PREFETCH REQUESTED:          0 ISSUED:          0 USEFUL:          0 USELESS:          0
cpu2_L2C AVERAGE MISS LATENCY: 551.5 cycles
cpu2_L2C TOTAL        ACCESS:          0 HIT:          0 MISS:          0
cpu2_L2C LOAD         ACCESS:          0 HIT:          0 MISS:          0
cpu2_L2C RFO          ACCESS:          0 HIT:          0 MISS:          0
cpu2_L2C PREFETCH     ACCESS:          0 HIT:          0 MISS:          0
cpu2_L2C WRITE        ACCESS:          0 HIT:          0 MISS:          0
cpu2_L2C TRANSLATION  ACCESS:          0 HIT:          0 MISS:          0
cpu2_L2C PREFETCH REQUESTED:          0 ISSUED:          0 USEFUL:          0 USELESS:          0
cpu2_L2C AVERAGE MISS LATENCY: 551.5 cycles
cpu2_STLB TOTAL        ACCESS:          0 HIT:          0 MISS:          0
cpu2_STLB LOAD         ACCESS:          0 HIT:          0 MISS:          0
cpu2_STLB RFO          ACCESS:          0 HIT:          0 MISS:          0
cpu2_STLB PREFETCH     ACCESS:          0 HIT:          0 MISS:          0
cpu2_STLB WRITE        ACCESS:          0 HIT:          0 MISS:          0
cpu2_STLB TRANSLATION  ACCESS:          0 HIT:          0 MISS:          0
cpu2_STLB PREFETCH REQUESTED:          0 ISSUED:          0 USEFUL:          0 USELESS:          0
cpu2_STLB AVERAGE MISS LATENCY: 211.7 cycles
cpu2_STLB TOTAL        ACCESS:          0 HIT:          0 MISS:          0
cpu2_STLB LOAD         ACCESS:          0 HIT:          0 MISS:          0
cpu2_STLB RFO          ACCESS:          0 HIT:          0 MISS:          0
cpu2_STLB PREFETCH     ACCESS:          0 HIT:          0 MISS:          0
cpu2_STLB WRITE        ACCESS:          0 HIT:          0 MISS:          0
cpu2_STLB TRANSLATION  ACCESS:          0 HIT:          0 MISS:          0
cpu2_STLB PREFETCH REQUESTED:          0 ISSUED:          0 USEFUL:          0 USELESS:          0
cpu2_STLB AVERAGE MISS LATENCY: 211.7 cycles
cpu2_STLB TOTAL        ACCESS:      35091 HIT:      14508 MISS:      20583
cpu2_STLB LOAD         ACCESS:      35091 HIT:      14508 MISS:      20583
cpu2_STLB RFO          ACCESS:          0 HIT:          0 MISS:          0
cpu2_STLB PREFETCH     ACCESS:          0 HIT:          0 MISS:          0
cpu2_STLB WRITE        ACCESS:          0 HIT:          0 MISS:          0
cpu2_STLB TRANSLATION  ACCESS:          0 HIT:          0 MISS:          0
cpu2_STLB PREFETCH REQUESTED:          0 ISSUED:          0 USEFUL:          0 USELESS:          0
cpu2_STLB AVERAGE MISS LATENCY: 211.7 cycles
cpu2_STLB TOTAL        ACCESS:          0 HIT:          0 MISS:          0
cpu2_STLB LOAD         ACCESS:          0 HIT:          0 MISS:          0
cpu2_STLB RFO          ACCESS:          0 HIT:          0 MISS:          0
cpu2_STLB PREFETCH     ACCESS:          0 HIT:          0 MISS:          0
cpu2_STLB WRITE        ACCESS:          0 HIT:          0 MISS:          0
cpu2_STLB TRANSLATION  ACCESS:          0 HIT:          0 MISS:          0
cpu2_STLB PREFETCH REQUESTED:          0 ISSUED:          0 USEFUL:          0 USELESS:          0
cpu2_STLB AVERAGE MISS LATENCY: 211.7 cycles
cpu3_DTLB TOTAL        ACCESS:          0 HIT:          0 MISS:          0
cpu3_DTLB LOAD         ACCESS:          0 HIT:          0 MISS:          0
cpu3_DTLB RFO          ACCESS:          0 HIT:          0 MISS:          0
cpu3_DTLB PREFETCH     ACCESS:          0 HIT:          0 MISS:          0
cpu3_DTLB WRITE        ACCESS:          0 HIT:          0 MISS:          0
cpu3_DTLB TRANSLATION  ACCESS:          0 HIT:          0 MISS:          0
cpu3_DTLB PREFETCH REQUESTED:          0 ISSUED:          0 USEFUL:          0 USELESS:          0
cpu3_DTLB AVERAGE MISS LATENCY: 17.11 cycles
cpu3_DTLB TOTAL        ACCESS:          0 HIT:          0 MISS:          0
cpu3_DTLB LOAD         ACCESS:          0 HIT:          0 MISS:          0
cpu3_DTLB RFO          ACCESS:          0 HIT:          0 MISS:          0
cpu3_DTLB PREFETCH     ACCESS:          0 HIT:          0 MISS:          0
cpu3_DTLB WRITE        ACCESS:          0 HIT:          0 MISS:          0
cpu3_DTLB TRANSLATION  ACCESS:          0 HIT:          0 MISS:          0
cpu3_DTLB PREFETCH REQUESTED:          0 ISSUED:          0 USEFUL:          0 USELESS:          0
cpu3_DTLB AVERAGE MISS LATENCY: 17.11 cycles
cpu3_DTLB TOTAL        ACCESS:          0 HIT:          0 MISS:          0
cpu3_DTLB LOAD         ACCESS:          0 HIT:          0 MISS:          0
cpu3_DTLB RFO          ACCESS:          0 HIT:          0 MISS:          0
cpu3_DTLB PREFETCH     ACCESS:          0 HIT:          0 MISS:          0
cpu3_DTLB WRITE        ACCESS:          0 HIT:          0 MISS:          0
cpu3_DTLB TRANSLATION  ACCESS:          0 HIT:          0 MISS:          0
cpu3_DTLB PREFETCH REQUESTED:          0 ISSUED:          0 USEFUL:          0 USELESS:          0
cpu3_DTLB AVERAGE MISS LATENCY: 17.11 cycles
cpu3_DTLB TOTAL        ACCESS:   20431694 HIT:   20260028 MISS:     171666
cpu3_DTLB LOAD         ACCESS:   20431694 HIT:   20260028 MISS:     171666
cpu3_DTLB RFO          ACCESS:          0 HIT:          0 MISS:          0
cpu3_DTLB PREFETCH     ACCESS:          0 HIT:          0 MISS:          0
cpu3_DTLB WRITE        ACCESS:          0 HIT:          0 MISS:          0
cpu3_DTLB TRANSLATION  ACCESS:          0 HIT:          0 MISS:          0
cpu3_DTLB PREFETCH REQUESTED:          0 ISSUED:          0 USEFUL:          0 USELESS:          0
cpu3_DTLB AVERAGE MISS LATENCY: 17.11 cycles
cpu3_ITLB TOTAL        ACCESS:          0 HIT:          0 MISS:          0
cpu3_ITLB LOAD         ACCESS:          0 HIT:          0 MISS:          0
cpu3_ITLB RFO          ACCESS:          0 HIT:          0 MISS:          0
cpu3_ITLB PREFETCH     ACCESS:          0 HIT:          0 MISS:          0
cpu3_ITLB WRITE        ACCESS:          0 HIT:          0 MISS:          0
cpu3_ITLB TRANSLATION  ACCESS:          0 HIT:          0 MISS:          0
cpu3_ITLB PREFETCH REQUESTED:          0 ISSUED:          0 USEFUL:          0 USELESS:          0
cpu3_ITLB AVERAGE MISS LATENCY: 13.96 cycles
cpu3_ITLB TOTAL        ACCESS:          0 HIT:          0 MISS:          0
cpu3_ITLB LOAD         ACCESS:          0 HIT:          0 MISS:          0
cpu3_ITLB RFO          ACCESS:          0 HIT:          0 MISS:          0
cpu3_ITLB PREFETCH     ACCESS:          0 HIT:          0 MISS:          0
cpu3_ITLB WRITE        ACCESS:          0 HIT:          0 MISS:          0
cpu3_ITLB TRANSLATION  ACCESS:          0 HIT:          0 MISS:          0
cpu3_ITLB PREFETCH REQUESTED:          0 ISSUED:          0 USEFUL:          0 USELESS:          0
cpu3_ITLB AVERAGE MISS LATENCY: 13.96 cycles
cpu3_ITLB TOTAL        ACCESS:          0 HIT:          0 MISS:          0
cpu3_ITLB LOAD         ACCESS:          0 HIT:          0 MISS:          0
cpu3_ITLB RFO          ACCESS:          0 HIT:          0 MISS:          0
cpu3_ITLB PREFETCH     ACCESS:          0 HIT:          0 MISS:          0
cpu3_ITLB WRITE        ACCESS:          0 HIT:          0 MISS:          0
cpu3_ITLB TRANSLATION  ACCESS:          0 HIT:          0 MISS:          0
cpu3_ITLB PREFETCH REQUESTED:          0 ISSUED:          0 USEFUL:          0 USELESS:          0
cpu3_ITLB AVERAGE MISS LATENCY: 13.96 cycles
cpu3_ITLB TOTAL        ACCESS:     273857 HIT:     268203 MISS:       5654
cpu3_ITLB LOAD         ACCESS:     273857 HIT:     268203 MISS:       5654
cpu3_ITLB RFO          ACCESS:          0 HIT:          0 MISS:          0
cpu3_ITLB PREFETCH     ACCESS:          0 HIT:          0 MISS:          0
cpu3_ITLB WRITE        ACCESS:          0 HIT:          0 MISS:          0
cpu3_ITLB TRANSLATION  ACCESS:          0 HIT:          0 MISS:          0
cpu3_ITLB PREFETCH REQUESTED:          0 ISSUED:          0 USEFUL:          0 USELESS:          0
cpu3_ITLB AVERAGE MISS LATENCY: 13.96 cycles
cpu3_L1D TOTAL        ACCESS:          0 HIT:          0 MISS:          0
cpu3_L1D LOAD         ACCESS:          0 HIT:          0 MISS:          0
cpu3_L1D RFO          ACCESS:          0 HIT:          0 MISS:          0
cpu3_L1D PREFETCH     ACCESS:          0 HIT:          0 MISS:          0
cpu3_L1D WRITE        ACCESS:          0 HIT:          0 MISS:          0
cpu3_L1D TRANSLATION  ACCESS:          0 HIT:          0 MISS:          0
cpu3_L1D PREFETCH REQUESTED:          0 ISSUED:          0 USEFUL:          0 USELESS:          0
cpu3_L1D AVERAGE MISS LATENCY: 130.1 cycles
cpu3_L1D TOTAL        ACCESS:          0 HIT:          0 MISS:          0
cpu3_L1D LOAD         ACCESS:          0 HIT:          0 MISS:          0
cpu3_L1D RFO          ACCESS:          0 HIT:          0 MISS:          0
cpu3_L1D PREFETCH     ACCESS:          0 HIT:          0 MISS:          0
cpu3_L1D WRITE        ACCESS:          0 HIT:          0 MISS:          0
cpu3_L1D TRANSLATION  ACCESS:          0 HIT:          0 MISS:          0
cpu3_L1D PREFETCH REQUESTED:          0 ISSUED:          0 USEFUL:          0 USELESS:          0
cpu3_L1D AVERAGE MISS LATENCY: 130.1 cycles
cpu3_L1D TOTAL        ACCESS:          0 HIT:          0 MISS:          0
cpu3_L1D LOAD         ACCESS:          0 HIT:          0 MISS:          0
cpu3_L1D RFO          ACCESS:          0 HIT:          0 MISS:          0
cpu3_L1D PREFETCH     ACCESS:          0 HIT:          0 MISS:          0
cpu3_L1D WRITE        ACCESS:          0 HIT:          0 MISS:          0
cpu3_L1D TRANSLATION  ACCESS:          0 HIT:          0 MISS:          0
cpu3_L1D PREFETCH REQUESTED:          0 ISSUED:          0 USEFUL:          0 USELESS:          0
cpu3_L1D AVERAGE MISS LATENCY: 130.1 cycles
cpu3_L1D TOTAL        ACCESS:   24823577 HIT:   19735975 MISS:    5087602
cpu3_L1D LOAD         ACCESS:   15158059 HIT:   12998828 MISS:    2159231
cpu3_L1D RFO          ACCESS:          0 HIT:          0 MISS:          0
cpu3_L1D PREFETCH     ACCESS:          0 HIT:          0 MISS:          0
cpu3_L1D WRITE        ACCESS:    9657313 HIT:    6734902 MISS:    2922411
cpu3_L1D TRANSLATION  ACCESS:       8205 HIT:       2245 MISS:       5960
cpu3_L1D PREFETCH REQUESTED:          0 ISSUED:          0 USEFUL:          0 USELESS:          0
cpu3_L1D AVERAGE MISS LATENCY: 130.1 cycles
cpu3_L1I TOTAL        ACCESS:          0 HIT:          0 MISS:          0
cpu3_L1I LOAD         ACCESS:          0 HIT:          0 MISS:          0
cpu3_L1I RFO          ACCESS:          0 HIT:          0 MISS:          0
cpu3_L1I PREFETCH     ACCESS:          0 HIT:          0 MISS:          0
cpu3_L1I WRITE        ACCESS:          0 HIT:          0 MISS:          0
cpu3_L1I TRANSLATION  ACCESS:          0 HIT:          0 MISS:          0
cpu3_L1I PREFETCH REQUESTED:          0 ISSUED:          0 USEFUL:          0 USELESS:          0
cpu3_L1I AVERAGE MISS LATENCY: 44.66 cycles
cpu3_L1I TOTAL        ACCESS:          0 HIT:          0 MISS:          0
cpu3_L1I LOAD         ACCESS:          0 HIT:          0 MISS:          0
cpu3_L1I RFO          ACCESS:          0 HIT:          0 MISS:          0
cpu3_L1I PREFETCH     ACCESS:          0 HIT:          0 MISS:          0
cpu3_L1I WRITE        ACCESS:          0 HIT:          0 MISS:          0
cpu3_L1I TRANSLATION  ACCESS:          0 HIT:          0 MISS:          0
cpu3_L1I PREFETCH REQUESTED:          0 ISSUED:          0 USEFUL:          0 USELESS:          0
cpu3_L1I AVERAGE MISS LATENCY: 44.66 cycles
cpu3_L1I TOTAL        ACCESS:          0 HIT:          0 MISS:          0
cpu3_L1I LOAD         ACCESS:          0 HIT:          0 MISS:          0
cpu3_L1I RFO          ACCESS:          0 HIT:          0 MISS:          0
cpu3_L1I PREFETCH     ACCESS:          0 HIT:          0 MISS:          0
cpu3_L1I WRITE        ACCESS:          0 HIT:          0 MISS:          0
cpu3_L1I TRANSLATION  ACCESS:          0 HIT:          0 MISS:          0
cpu3_L1I PREFETCH REQUESTED:          0 ISSUED:          0 USEFUL:          0 USELESS:          0
cpu3_L1I AVERAGE MISS LATENCY: 44.66 cycles
cpu3_L1I TOTAL        ACCESS:     340214 HIT:     244731 MISS:      95483
cpu3_L1I LOAD         ACCESS:     340214 HIT:     244731 MISS:      95483
cpu3_L1I RFO          ACCESS:          0 HIT:          0 MISS:          0
cpu3_L1I PREFETCH     ACCESS:          0 HIT:          0 MISS:          0
cpu3_L1I WRITE        ACCESS:          0 HIT:          0 MISS:          0
cpu3_L1I TRANSLATION  ACCESS:          0 HIT:          0 MISS:          0
cpu3_L1I PREFETCH REQUESTED:          0 ISSUED:          0 USEFUL:          0 USELESS:          0
cpu3_L1I AVERAGE MISS LATENCY: 44.66 cycles
cpu3_L2C TOTAL        ACCESS:          0 HIT:          0 MISS:          0
cpu3_L2C LOAD         ACCESS:          0 HIT:          0 MISS:          0
cpu3_L2C RFO          ACCESS:          0 HIT:          0 MISS:          0
cpu3_L2C PREFETCH     ACCESS:          0 HIT:          0 MISS:          0
cpu3_L2C WRITE        ACCESS:          0 HIT:          0 MISS:          0
cpu3_L2C TRANSLATION  ACCESS:          0 HIT:          0 MISS:          0
cpu3_L2C PREFETCH REQUESTED:          0 ISSUED:          0 USEFUL:          0 USELESS:          0
cpu3_L2C AVERAGE MISS LATENCY: 800.8 cycles
cpu3_L2C TOTAL        ACCESS:          0 HIT:          0 MISS:          0
cpu3_L2C LOAD         ACCESS:          0 HIT:          0 MISS:          0
cpu3_L2C RFO          ACCESS:          0 HIT:          0 MISS:          0
cpu3_L2C PREFETCH     ACCESS:          0 HIT:          0 MISS:          0
cpu3_L2C WRITE        ACCESS:          0 HIT:          0 MISS:          0
cpu3_L2C TRANSLATION  ACCESS:          0 HIT:          0 MISS:          0
cpu3_L2C PREFETCH REQUESTED:          0 ISSUED:          0 USEFUL:          0 USELESS:          0
cpu3_L2C AVERAGE MISS LATENCY: 800.8 cycles
cpu3_L2C TOTAL        ACCESS:          0 HIT:          0 MISS:          0
cpu3_L2C LOAD         ACCESS:          0 HIT:          0 MISS:          0
cpu3_L2C RFO          ACCESS:          0 HIT:          0 MISS:          0
cpu3_L2C PREFETCH     ACCESS:          0 HIT:          0 MISS:          0
cpu3_L2C WRITE        ACCESS:          0 HIT:          0 MISS:          0
cpu3_L2C TRANSLATION  ACCESS:          0 HIT:          0 MISS:          0
cpu3_L2C PREFETCH REQUESTED:          0 ISSUED:          0 USEFUL:          0 USELESS:          0
cpu3_L2C AVERAGE MISS LATENCY: 800.8 cycles
cpu3_L2C TOTAL        ACCESS:    2948765 HIT:    2078948 MISS:     869817
cpu3_L2C LOAD         ACCESS:    1287324 HIT:     730174 MISS:     557150
cpu3_L2C RFO          ACCESS:     719309 HIT:     410898 MISS:     308411
cpu3_L2C PREFETCH     ACCESS:          0 HIT:          0 MISS:          0
cpu3_L2C WRITE        ACCESS:     936248 HIT:     935660 MISS:        588
cpu3_L2C TRANSLATION  ACCESS:       5884 HIT:       2216 MISS:       3668
cpu3_L2C PREFETCH REQUESTED:          0 ISSUED:          0 USEFUL:          0 USELESS:          0
cpu3_L2C AVERAGE MISS LATENCY: 800.8 cycles
cpu3_STLB TOTAL        ACCESS:          0 HIT:          0 MISS:          0
cpu3_STLB LOAD         ACCESS:          0 HIT:          0 MISS:          0
cpu3_STLB RFO          ACCESS:          0 HIT:          0 MISS:          0
cpu3_STLB PREFETCH     ACCESS:          0 HIT:          0 MISS:          0
cpu3_STLB WRITE        ACCESS:          0 HIT:          0 MISS:          0
cpu3_STLB TRANSLATION  ACCESS:          0 HIT:          0 MISS:          0
cpu3_STLB PREFETCH REQUESTED:          0 ISSUED:          0 USEFUL:          0 USELESS:          0
cpu3_STLB AVERAGE MISS LATENCY: 532.3 cycles
cpu3_STLB TOTAL        ACCESS:          0 HIT:          0 MISS:          0
cpu3_STLB LOAD         ACCESS:          0 HIT:          0 MISS:          0
cpu3_STLB RFO          ACCESS:          0 HIT:          0 MISS:          0
cpu3_STLB PREFETCH     ACCESS:          0 HIT:          0 MISS:          0
cpu3_STLB WRITE        ACCESS:          0 HIT:          0 MISS:          0
cpu3_STLB TRANSLATION  ACCESS:          0 HIT:          0 MISS:          0
cpu3_STLB PREFETCH REQUESTED:          0 ISSUED:          0 USEFUL:          0 USELESS:          0
cpu3_STLB AVERAGE MISS LATENCY: 532.3 cycles
cpu3_STLB TOTAL        ACCESS:          0 HIT:          0 MISS:          0
cpu3_STLB LOAD         ACCESS:          0 HIT:          0 MISS:          0
cpu3_STLB RFO          ACCESS:          0 HIT:          0 MISS:          0
cpu3_STLB PREFETCH     ACCESS:          0 HIT:          0 MISS:          0
cpu3_STLB WRITE        ACCESS:          0 HIT:          0 MISS:          0
cpu3_STLB TRANSLATION  ACCESS:          0 HIT:          0 MISS:          0
cpu3_STLB PREFETCH REQUESTED:          0 ISSUED:          0 USEFUL:          0 USELESS:          0
cpu3_STLB AVERAGE MISS LATENCY: 532.3 cycles
cpu3_STLB TOTAL        ACCESS:      62821 HIT:      55612 MISS:       7209
cpu3_STLB LOAD         ACCESS:      62821 HIT:      55612 MISS:       7209
cpu3_STLB RFO          ACCESS:          0 HIT:          0 MISS:          0
cpu3_STLB PREFETCH     ACCESS:          0 HIT:          0 MISS:          0
cpu3_STLB WRITE        ACCESS:          0 HIT:          0 MISS:          0
cpu3_STLB TRANSLATION  ACCESS:          0 HIT:          0 MISS:          0
cpu3_STLB PREFETCH REQUESTED:          0 ISSUED:          0 USEFUL:          0 USELESS:          0
cpu3_STLB AVERAGE MISS LATENCY: 532.3 cycles

DRAM Statistics

Channel 0 RQ ROW_BUFFER_HIT:     534656
  ROW_BUFFER_MISS:    2164661
 AVG DBUS CONGESTED CYCLE: 3.982
WQ ROW_BUFFER_HIT: Channel 0 
  ROW_BUFFER_MISS:     128643
  FULL:    1970680
