WARNING: physical memory size is smaller than virtual memory size.
WARNING: option --warmup_instructions is deprecated. Use --warmup-instructions instead.
WARNING: option --simulation_instructions is deprecated. Use --simulation-instructions instead.

*** ChampSim Multicore Out-of-Order Simulator ***
Warmup Instructions: 50000000
Simulation Instructions: 150000000
Number of CPUs: 4
Page size: 4096

Off-chip DRAM Size: 4 GiB Channels: 1 Width: 64-bit Data Race: 3200 MT/s
Heartbeat CPU 3 instructions: 10000001 cycles: 2502909 heartbeat IPC: 3.995 cumulative IPC: 3.995 (Simulation time: 00 hr 02 min 01 sec)
Heartbeat CPU 2 instructions: 10000000 cycles: 2638938 heartbeat IPC: 3.789 cumulative IPC: 3.789 (Simulation time: 00 hr 02 min 08 sec)
Heartbeat CPU 1 instructions: 10000003 cycles: 2696858 heartbeat IPC: 3.708 cumulative IPC: 3.708 (Simulation time: 00 hr 02 min 11 sec)
Heartbeat CPU 0 instructions: 10000003 cycles: 3843251 heartbeat IPC: 2.602 cumulative IPC: 2.602 (Simulation time: 00 hr 03 min 07 sec)
Heartbeat CPU 3 instructions: 20000001 cycles: 5005630 heartbeat IPC: 3.996 cumulative IPC: 3.996 (Simulation time: 00 hr 04 min 01 sec)
Heartbeat CPU 1 instructions: 20000003 cycles: 5210182 heartbeat IPC: 3.979 cumulative IPC: 3.839 (Simulation time: 00 hr 04 min 12 sec)
Heartbeat CPU 2 instructions: 20000000 cycles: 5277763 heartbeat IPC: 3.79 cumulative IPC: 3.789 (Simulation time: 00 hr 04 min 16 sec)
Heartbeat CPU 3 instructions: 30000003 cycles: 7507965 heartbeat IPC: 3.996 cumulative IPC: 3.996 (Simulation time: 00 hr 06 min 03 sec)
Heartbeat CPU 0 instructions: 20000004 cycles: 7680717 heartbeat IPC: 2.606 cumulative IPC: 2.604 (Simulation time: 00 hr 06 min 10 sec)
Heartbeat CPU 1 instructions: 30000000 cycles: 7723236 heartbeat IPC: 3.979 cumulative IPC: 3.884 (Simulation time: 00 hr 06 min 12 sec)
Heartbeat CPU 2 instructions: 30000003 cycles: 7916366 heartbeat IPC: 3.79 cumulative IPC: 3.79 (Simulation time: 00 hr 06 min 21 sec)
Heartbeat CPU 3 instructions: 40000002 cycles: 10010596 heartbeat IPC: 3.996 cumulative IPC: 3.996 (Simulation time: 00 hr 07 min 57 sec)
Heartbeat CPU 1 instructions: 40000003 cycles: 10239672 heartbeat IPC: 3.974 cumulative IPC: 3.906 (Simulation time: 00 hr 08 min 08 sec)
Heartbeat CPU 2 instructions: 40000002 cycles: 10554879 heartbeat IPC: 3.79 cumulative IPC: 3.79 (Simulation time: 00 hr 08 min 24 sec)
Heartbeat CPU 0 instructions: 30000000 cycles: 11518262 heartbeat IPC: 2.606 cumulative IPC: 2.605 (Simulation time: 00 hr 09 min 08 sec)
Heartbeat CPU 3 instructions: 50000003 cycles: 12513315 heartbeat IPC: 3.996 cumulative IPC: 3.996 (Simulation time: 00 hr 09 min 58 sec)
Warmup finished CPU 3 instructions: 50000003 cycles: 12513316 cumulative IPC: 3.996 (Simulation time: 00 hr 09 min 58 sec)
Heartbeat CPU 1 instructions: 50000002 cycles: 12760810 heartbeat IPC: 3.966 cumulative IPC: 3.918 (Simulation time: 00 hr 10 min 11 sec)
Warmup finished CPU 1 instructions: 50000002 cycles: 12760811 cumulative IPC: 3.918 (Simulation time: 00 hr 10 min 11 sec)
Heartbeat CPU 2 instructions: 50000000 cycles: 13194909 heartbeat IPC: 3.788 cumulative IPC: 3.789 (Simulation time: 00 hr 10 min 33 sec)
Warmup finished CPU 2 instructions: 50000000 cycles: 13194910 cumulative IPC: 3.789 (Simulation time: 00 hr 10 min 33 sec)
Heartbeat CPU 3 instructions: 60000001 cycles: 15015958 heartbeat IPC: 3.996 cumulative IPC: 3.996 (Simulation time: 00 hr 12 min 02 sec)
Heartbeat CPU 1 instructions: 60000001 cycles: 15281596 heartbeat IPC: 3.967 cumulative IPC: 3.926 (Simulation time: 00 hr 12 min 13 sec)
Heartbeat CPU 0 instructions: 40000000 cycles: 15360095 heartbeat IPC: 2.603 cumulative IPC: 2.604 (Simulation time: 00 hr 12 min 16 sec)
Heartbeat CPU 2 instructions: 60000000 cycles: 15837755 heartbeat IPC: 3.784 cumulative IPC: 3.788 (Simulation time: 00 hr 12 min 38 sec)
Heartbeat CPU 3 instructions: 70000002 cycles: 17520753 heartbeat IPC: 3.992 cumulative IPC: 3.995 (Simulation time: 00 hr 14 min 04 sec)
Heartbeat CPU 1 instructions: 70000003 cycles: 17797695 heartbeat IPC: 3.974 cumulative IPC: 3.933 (Simulation time: 00 hr 14 min 17 sec)
Heartbeat CPU 2 instructions: 70000003 cycles: 18484973 heartbeat IPC: 3.778 cumulative IPC: 3.787 (Simulation time: 00 hr 14 min 50 sec)
Heartbeat CPU 0 instructions: 50000002 cycles: 19200002 heartbeat IPC: 2.604 cumulative IPC: 2.604 (Simulation time: 00 hr 15 min 23 sec)
Warmup finished CPU 0 instructions: 50000002 cycles: 19200003 cumulative IPC: 2.604 (Simulation time: 00 hr 15 min 23 sec)
Warmup complete CPU 0 instructions: 50000002 cycles: 19200003 cumulative IPC: 2.604 (Simulation time: 00 hr 15 min 23 sec)
Warmup complete CPU 1 instructions: 75580569 cycles: 19200003 cumulative IPC: 3.936 (Simulation time: 00 hr 15 min 23 sec)
Warmup complete CPU 2 instructions: 72809551 cycles: 19200003 cumulative IPC: 3.792 (Simulation time: 00 hr 15 min 23 sec)
Warmup complete CPU 3 instructions: 76716998 cycles: 19200003 cumulative IPC: 3.996 (Simulation time: 00 hr 15 min 23 sec)
Heartbeat CPU 3 instructions: 80000001 cycles: 20749406 heartbeat IPC: 3.097 cumulative IPC: 2.119 (Simulation time: 00 hr 16 min 21 sec)
Heartbeat CPU 1 instructions: 80000003 cycles: 21265359 heartbeat IPC: 2.884 cumulative IPC: 2.14 (Simulation time: 00 hr 16 min 38 sec)
Heartbeat CPU 2 instructions: 80000000 cycles: 23679615 heartbeat IPC: 1.925 cumulative IPC: 1.605 (Simulation time: 00 hr 18 min 00 sec)
Heartbeat CPU 3 instructions: 90000004 cycles: 25522894 heartbeat IPC: 2.095 cumulative IPC: 2.101 (Simulation time: 00 hr 19 min 06 sec)
Heartbeat CPU 1 instructions: 90000003 cycles: 25558704 heartbeat IPC: 2.329 cumulative IPC: 2.268 (Simulation time: 00 hr 19 min 07 sec)
Heartbeat CPU 2 instructions: 90000003 cycles: 29163629 heartbeat IPC: 1.823 cumulative IPC: 1.725 (Simulation time: 00 hr 21 min 10 sec)
Heartbeat CPU 3 instructions: 100000000 cycles: 30301763 heartbeat IPC: 2.093 cumulative IPC: 2.097 (Simulation time: 00 hr 21 min 45 sec)
Heartbeat CPU 0 instructions: 60000002 cycles: 30437919 heartbeat IPC: 0.8898 cumulative IPC: 0.8898 (Simulation time: 00 hr 21 min 49 sec)
Heartbeat CPU 3 instructions: 110000001 cycles: 35200611 heartbeat IPC: 2.041 cumulative IPC: 2.08 (Simulation time: 00 hr 24 min 20 sec)
Heartbeat CPU 2 instructions: 100000002 cycles: 37556683 heartbeat IPC: 1.191 cumulative IPC: 1.481 (Simulation time: 00 hr 25 min 34 sec)
Heartbeat CPU 1 instructions: 100000000 cycles: 39899294 heartbeat IPC: 0.6973 cumulative IPC: 1.18 (Simulation time: 00 hr 26 min 44 sec)
Heartbeat CPU 3 instructions: 120000000 cycles: 39908016 heartbeat IPC: 2.124 cumulative IPC: 2.09 (Simulation time: 00 hr 26 min 44 sec)
Heartbeat CPU 3 instructions: 130000002 cycles: 44711494 heartbeat IPC: 2.082 cumulative IPC: 2.089 (Simulation time: 00 hr 28 min 51 sec)
Heartbeat CPU 3 instructions: 140000000 cycles: 49872222 heartbeat IPC: 1.938 cumulative IPC: 2.063 (Simulation time: 00 hr 31 min 08 sec)
Heartbeat CPU 0 instructions: 70000001 cycles: 54473245 heartbeat IPC: 0.4161 cumulative IPC: 0.567 (Simulation time: 00 hr 33 min 09 sec)
Heartbeat CPU 3 instructions: 150000004 cycles: 54800683 heartbeat IPC: 2.029 cumulative IPC: 2.058 (Simulation time: 00 hr 33 min 17 sec)
Heartbeat CPU 2 instructions: 110000001 cycles: 55942181 heartbeat IPC: 0.5439 cumulative IPC: 1.012 (Simulation time: 00 hr 33 min 49 sec)
Heartbeat CPU 3 instructions: 160000003 cycles: 59702318 heartbeat IPC: 2.04 cumulative IPC: 2.056 (Simulation time: 00 hr 35 min 26 sec)
Heartbeat CPU 3 instructions: 170000003 cycles: 64544336 heartbeat IPC: 2.065 cumulative IPC: 2.057 (Simulation time: 00 hr 37 min 31 sec)
Heartbeat CPU 3 instructions: 180000004 cycles: 69417025 heartbeat IPC: 2.052 cumulative IPC: 2.057 (Simulation time: 00 hr 39 min 36 sec)
Heartbeat CPU 3 instructions: 190000002 cycles: 74292775 heartbeat IPC: 2.051 cumulative IPC: 2.056 (Simulation time: 00 hr 41 min 44 sec)
Heartbeat CPU 3 instructions: 200000000 cycles: 79335366 heartbeat IPC: 1.983 cumulative IPC: 2.05 (Simulation time: 00 hr 43 min 51 sec)
Heartbeat CPU 2 instructions: 120000003 cycles: 84059521 heartbeat IPC: 0.3557 cumulative IPC: 0.7276 (Simulation time: 00 hr 46 min 00 sec)
Heartbeat CPU 3 instructions: 210000000 cycles: 84141610 heartbeat IPC: 2.081 cumulative IPC: 2.052 (Simulation time: 00 hr 46 min 02 sec)
Heartbeat CPU 3 instructions: 220000000 cycles: 88898532 heartbeat IPC: 2.102 cumulative IPC: 2.056 (Simulation time: 00 hr 48 min 06 sec)
Heartbeat CPU 0 instructions: 80000000 cycles: 89439241 heartbeat IPC: 0.286 cumulative IPC: 0.4271 (Simulation time: 00 hr 48 min 20 sec)
Simulation finished CPU 3 instructions: 150000004 cycles: 73032362 cumulative IPC: 2.054 (Simulation time: 00 hr 49 min 31 sec)
Heartbeat CPU 3 instructions: 230000001 cycles: 93715489 heartbeat IPC: 2.076 cumulative IPC: 2.057 (Simulation time: 00 hr 50 min 17 sec)
Heartbeat CPU 1 instructions: 110000001 cycles: 97312684 heartbeat IPC: 0.1742 cumulative IPC: 0.4406 (Simulation time: 00 hr 52 min 10 sec)
Heartbeat CPU 2 instructions: 130000001 cycles: 97782389 heartbeat IPC: 0.7287 cumulative IPC: 0.7278 (Simulation time: 00 hr 52 min 28 sec)
Heartbeat CPU 3 instructions: 240000000 cycles: 98525062 heartbeat IPC: 2.079 cumulative IPC: 2.058 (Simulation time: 00 hr 52 min 51 sec)
Heartbeat CPU 3 instructions: 250000002 cycles: 103360633 heartbeat IPC: 2.068 cumulative IPC: 2.059 (Simulation time: 00 hr 55 min 17 sec)
Heartbeat CPU 1 instructions: 120000003 cycles: 103482433 heartbeat IPC: 1.621 cumulative IPC: 0.527 (Simulation time: 00 hr 55 min 20 sec)
Heartbeat CPU 2 instructions: 140000003 cycles: 105315043 heartbeat IPC: 1.328 cumulative IPC: 0.7802 (Simulation time: 00 hr 56 min 26 sec)
Heartbeat CPU 1 instructions: 130000002 cycles: 107189591 heartbeat IPC: 2.697 cumulative IPC: 0.6185 (Simulation time: 00 hr 57 min 38 sec)
Heartbeat CPU 3 instructions: 260000000 cycles: 108143455 heartbeat IPC: 2.091 cumulative IPC: 2.061 (Simulation time: 00 hr 58 min 14 sec)
Heartbeat CPU 0 instructions: 90000001 cycles: 108405895 heartbeat IPC: 0.5272 cumulative IPC: 0.4484 (Simulation time: 00 hr 58 min 23 sec)
Heartbeat CPU 2 instructions: 150000000 cycles: 110632013 heartbeat IPC: 1.881 cumulative IPC: 0.8442 (Simulation time: 00 hr 59 min 44 sec)
Heartbeat CPU 1 instructions: 140000000 cycles: 110820310 heartbeat IPC: 2.754 cumulative IPC: 0.7031 (Simulation time: 00 hr 59 min 52 sec)
Heartbeat CPU 3 instructions: 270000000 cycles: 112824339 heartbeat IPC: 2.136 cumulative IPC: 2.064 (Simulation time: 01 hr 00 min 57 sec)
Heartbeat CPU 1 instructions: 150000001 cycles: 116283958 heartbeat IPC: 1.83 cumulative IPC: 0.7665 (Simulation time: 01 hr 02 min 45 sec)
Heartbeat CPU 3 instructions: 280000001 cycles: 117492800 heartbeat IPC: 2.142 cumulative IPC: 2.068 (Simulation time: 01 hr 03 min 30 sec)
Heartbeat CPU 2 instructions: 160000000 cycles: 117832414 heartbeat IPC: 1.389 cumulative IPC: 0.884 (Simulation time: 01 hr 03 min 41 sec)
Heartbeat CPU 1 instructions: 160000000 cycles: 121305946 heartbeat IPC: 1.991 cumulative IPC: 0.8268 (Simulation time: 01 hr 05 min 47 sec)
Heartbeat CPU 0 instructions: 100000001 cycles: 121527303 heartbeat IPC: 0.7621 cumulative IPC: 0.4886 (Simulation time: 01 hr 05 min 54 sec)
Heartbeat CPU 3 instructions: 290000004 cycles: 122166119 heartbeat IPC: 2.14 cumulative IPC: 2.071 (Simulation time: 01 hr 06 min 17 sec)
Heartbeat CPU 2 instructions: 170000000 cycles: 122683976 heartbeat IPC: 2.061 cumulative IPC: 0.9392 (Simulation time: 01 hr 06 min 35 sec)
Heartbeat CPU 1 instructions: 170000000 cycles: 126724447 heartbeat IPC: 1.846 cumulative IPC: 0.8781 (Simulation time: 01 hr 08 min 55 sec)
Heartbeat CPU 3 instructions: 300000000 cycles: 126841649 heartbeat IPC: 2.139 cumulative IPC: 2.074 (Simulation time: 01 hr 08 min 59 sec)
Heartbeat CPU 2 instructions: 180000003 cycles: 130687493 heartbeat IPC: 1.249 cumulative IPC: 0.9615 (Simulation time: 01 hr 11 min 11 sec)
Heartbeat CPU 3 instructions: 310000001 cycles: 131494543 heartbeat IPC: 2.149 cumulative IPC: 2.077 (Simulation time: 01 hr 11 min 37 sec)
Heartbeat CPU 1 instructions: 180000000 cycles: 132312822 heartbeat IPC: 1.789 cumulative IPC: 0.9231 (Simulation time: 01 hr 12 min 04 sec)
Heartbeat CPU 0 instructions: 110000003 cycles: 133608242 heartbeat IPC: 0.8278 cumulative IPC: 0.5244 (Simulation time: 01 hr 12 min 47 sec)
Heartbeat CPU 3 instructions: 320000001 cycles: 136186895 heartbeat IPC: 2.131 cumulative IPC: 2.08 (Simulation time: 01 hr 14 min 19 sec)
Heartbeat CPU 1 instructions: 190000002 cycles: 137114632 heartbeat IPC: 2.083 cumulative IPC: 0.9704 (Simulation time: 01 hr 14 min 52 sec)
Heartbeat CPU 2 instructions: 190000004 cycles: 138711416 heartbeat IPC: 1.246 cumulative IPC: 0.9806 (Simulation time: 01 hr 15 min 48 sec)
Heartbeat CPU 3 instructions: 330000001 cycles: 140851367 heartbeat IPC: 2.144 cumulative IPC: 2.082 (Simulation time: 01 hr 16 min 56 sec)
Heartbeat CPU 0 instructions: 120000004 cycles: 146108417 heartbeat IPC: 0.8 cumulative IPC: 0.5516 (Simulation time: 01 hr 19 min 37 sec)
Heartbeat CPU 1 instructions: 200000004 cycles: 147529758 heartbeat IPC: 0.9601 cumulative IPC: 0.9695 (Simulation time: 01 hr 20 min 20 sec)
Heartbeat CPU 3 instructions: 340000000 cycles: 148394301 heartbeat IPC: 1.326 cumulative IPC: 2.038 (Simulation time: 01 hr 20 min 51 sec)
Heartbeat CPU 2 instructions: 200000003 cycles: 149200992 heartbeat IPC: 0.9533 cumulative IPC: 0.9784 (Simulation time: 01 hr 21 min 15 sec)
Heartbeat CPU 3 instructions: 350000002 cycles: 155117464 heartbeat IPC: 1.487 cumulative IPC: 2.011 (Simulation time: 01 hr 23 min 59 sec)
Heartbeat CPU 3 instructions: 360000003 cycles: 162506775 heartbeat IPC: 1.353 cumulative IPC: 1.977 (Simulation time: 01 hr 27 min 05 sec)
Heartbeat CPU 0 instructions: 130000000 cycles: 170102383 heartbeat IPC: 0.4168 cumulative IPC: 0.5301 (Simulation time: 01 hr 30 min 30 sec)
Heartbeat CPU 3 instructions: 370000000 cycles: 170117972 heartbeat IPC: 1.314 cumulative IPC: 1.943 (Simulation time: 01 hr 30 min 30 sec)
Heartbeat CPU 2 instructions: 210000000 cycles: 175306143 heartbeat IPC: 0.3831 cumulative IPC: 0.8788 (Simulation time: 01 hr 32 min 44 sec)
Heartbeat CPU 3 instructions: 380000002 cycles: 177704024 heartbeat IPC: 1.318 cumulative IPC: 1.913 (Simulation time: 01 hr 33 min 43 sec)
Heartbeat CPU 0 instructions: 140000002 cycles: 209583269 heartbeat IPC: 0.2533 cumulative IPC: 0.4727 (Simulation time: 01 hr 46 min 44 sec)
Heartbeat CPU 1 instructions: 210000003 cycles: 212206511 heartbeat IPC: 0.1546 cumulative IPC: 0.6965 (Simulation time: 01 hr 47 min 48 sec)
Heartbeat CPU 2 instructions: 220000004 cycles: 215830849 heartbeat IPC: 0.2468 cumulative IPC: 0.7486 (Simulation time: 01 hr 49 min 29 sec)
Heartbeat CPU 3 instructions: 390000001 cycles: 217003396 heartbeat IPC: 0.2545 cumulative IPC: 1.584 (Simulation time: 01 hr 50 min 04 sec)
Heartbeat CPU 1 instructions: 220000001 cycles: 218818700 heartbeat IPC: 1.512 cumulative IPC: 0.7235 (Simulation time: 01 hr 51 min 07 sec)
Simulation finished CPU 2 instructions: 150000000 cycles: 200120394 cumulative IPC: 0.7495 (Simulation time: 01 hr 51 min 25 sec)
Simulation finished CPU 1 instructions: 150000003 cycles: 201626631 cumulative IPC: 0.7439 (Simulation time: 01 hr 52 min 18 sec)
Heartbeat CPU 1 instructions: 230000001 cycles: 222575639 heartbeat IPC: 2.662 cumulative IPC: 0.7593 (Simulation time: 01 hr 53 min 22 sec)
Heartbeat CPU 3 instructions: 400000004 cycles: 224428645 heartbeat IPC: 1.347 cumulative IPC: 1.575 (Simulation time: 01 hr 54 min 32 sec)
Heartbeat CPU 1 instructions: 240000000 cycles: 226274549 heartbeat IPC: 2.703 cumulative IPC: 0.794 (Simulation time: 01 hr 55 min 37 sec)
Heartbeat CPU 2 instructions: 230000000 cycles: 227494178 heartbeat IPC: 0.8574 cumulative IPC: 0.7547 (Simulation time: 01 hr 56 min 16 sec)
Heartbeat CPU 0 instructions: 150000004 cycles: 228771096 heartbeat IPC: 0.5212 cumulative IPC: 0.4772 (Simulation time: 01 hr 57 min 08 sec)
Heartbeat CPU 1 instructions: 250000004 cycles: 230883502 heartbeat IPC: 2.17 cumulative IPC: 0.824 (Simulation time: 01 hr 58 min 23 sec)
Heartbeat CPU 3 instructions: 410000003 cycles: 231443298 heartbeat IPC: 1.426 cumulative IPC: 1.57 (Simulation time: 01 hr 58 min 43 sec)
Heartbeat CPU 1 instructions: 260000002 cycles: 236242037 heartbeat IPC: 1.866 cumulative IPC: 0.8497 (Simulation time: 02 hr 01 min 37 sec)
Heartbeat CPU 2 instructions: 240000003 cycles: 236433989 heartbeat IPC: 1.119 cumulative IPC: 0.7696 (Simulation time: 02 hr 01 min 42 sec)
Heartbeat CPU 3 instructions: 420000001 cycles: 238262463 heartbeat IPC: 1.466 cumulative IPC: 1.567 (Simulation time: 02 hr 02 min 42 sec)
Heartbeat CPU 0 instructions: 160000004 cycles: 241157644 heartbeat IPC: 0.8073 cumulative IPC: 0.4956 (Simulation time: 02 hr 04 min 29 sec)
Heartbeat CPU 1 instructions: 270000000 cycles: 241669224 heartbeat IPC: 1.843 cumulative IPC: 0.8739 (Simulation time: 02 hr 04 min 48 sec)
Heartbeat CPU 2 instructions: 250000000 cycles: 244360145 heartbeat IPC: 1.262 cumulative IPC: 0.787 (Simulation time: 02 hr 06 min 28 sec)
Heartbeat CPU 3 instructions: 430000004 cycles: 244611934 heartbeat IPC: 1.575 cumulative IPC: 1.567 (Simulation time: 02 hr 06 min 37 sec)
Heartbeat CPU 1 instructions: 280000001 cycles: 246807364 heartbeat IPC: 1.946 cumulative IPC: 0.8981 (Simulation time: 02 hr 07 min 57 sec)
Heartbeat CPU 3 instructions: 440000003 cycles: 251457620 heartbeat IPC: 1.461 cumulative IPC: 1.564 (Simulation time: 02 hr 10 min 26 sec)
Heartbeat CPU 2 instructions: 260000003 cycles: 252376678 heartbeat IPC: 1.247 cumulative IPC: 0.8028 (Simulation time: 02 hr 10 min 55 sec)
Heartbeat CPU 1 instructions: 290000003 cycles: 253076042 heartbeat IPC: 1.595 cumulative IPC: 0.9168 (Simulation time: 02 hr 11 min 18 sec)
Heartbeat CPU 0 instructions: 170000000 cycles: 254084078 heartbeat IPC: 0.7736 cumulative IPC: 0.5109 (Simulation time: 02 hr 11 min 52 sec)
Heartbeat CPU 3 instructions: 450000000 cycles: 258355683 heartbeat IPC: 1.45 cumulative IPC: 1.561 (Simulation time: 02 hr 14 min 20 sec)
Heartbeat CPU 2 instructions: 270000001 cycles: 258427388 heartbeat IPC: 1.653 cumulative IPC: 0.8243 (Simulation time: 02 hr 14 min 22 sec)
Heartbeat CPU 1 instructions: 300000002 cycles: 260961576 heartbeat IPC: 1.268 cumulative IPC: 0.9283 (Simulation time: 02 hr 15 min 40 sec)
Heartbeat CPU 3 instructions: 460000004 cycles: 267935676 heartbeat IPC: 1.044 cumulative IPC: 1.541 (Simulation time: 02 hr 19 min 09 sec)
Heartbeat CPU 2 instructions: 280000003 cycles: 269453251 heartbeat IPC: 0.907 cumulative IPC: 0.8279 (Simulation time: 02 hr 19 min 52 sec)
Heartbeat CPU 0 instructions: 180000001 cycles: 270110461 heartbeat IPC: 0.624 cumulative IPC: 0.5181 (Simulation time: 02 hr 20 min 12 sec)
Heartbeat CPU 3 instructions: 470000001 cycles: 279017104 heartbeat IPC: 0.9024 cumulative IPC: 1.514 (Simulation time: 02 hr 24 min 07 sec)
Heartbeat CPU 2 instructions: 290000000 cycles: 291957656 heartbeat IPC: 0.4444 cumulative IPC: 0.7963 (Simulation time: 02 hr 29 min 24 sec)
Heartbeat CPU 3 instructions: 480000000 cycles: 301143652 heartbeat IPC: 0.4519 cumulative IPC: 1.43 (Simulation time: 02 hr 33 min 13 sec)
Heartbeat CPU 0 instructions: 190000001 cycles: 304751418 heartbeat IPC: 0.2887 cumulative IPC: 0.4903 (Simulation time: 02 hr 34 min 46 sec)
Heartbeat CPU 2 instructions: 300000000 cycles: 322835711 heartbeat IPC: 0.3239 cumulative IPC: 0.7482 (Simulation time: 02 hr 42 min 05 sec)
Heartbeat CPU 3 instructions: 490000002 cycles: 328322269 heartbeat IPC: 0.3679 cumulative IPC: 1.337 (Simulation time: 02 hr 44 min 21 sec)
Heartbeat CPU 1 instructions: 310000000 cycles: 332691746 heartbeat IPC: 0.1394 cumulative IPC: 0.7478 (Simulation time: 02 hr 46 min 11 sec)
Heartbeat CPU 0 instructions: 200000002 cycles: 338079448 heartbeat IPC: 0.3 cumulative IPC: 0.4704 (Simulation time: 02 hr 48 min 46 sec)
Simulation finished CPU 0 instructions: 150000000 cycles: 318879446 cumulative IPC: 0.4704 (Simulation time: 02 hr 48 min 46 sec)
Simulation complete CPU 0 instructions: 150000000 cycles: 318879446 cumulative IPC: 0.4704 (Simulation time: 02 hr 48 min 46 sec)
Simulation complete CPU 1 instructions: 240750530 cycles: 318879446 cumulative IPC: 0.755 (Simulation time: 02 hr 48 min 46 sec)
Simulation complete CPU 2 instructions: 235917773 cycles: 318879446 cumulative IPC: 0.7398 (Simulation time: 02 hr 48 min 46 sec)
Simulation complete CPU 3 instructions: 422816454 cycles: 318879446 cumulative IPC: 1.326 (Simulation time: 02 hr 48 min 46 sec)

ChampSim completed all CPUs

=== Simulation ===
CPU 0 runs /home/das/dpc3_traces/607.cactuBSSN_s-2421B.champsimtrace.xzCPU 1 runs /home/das/dpc3_traces/627.cam4_s-573B.champsimtrace.xzCPU 2 runs /home/das/dpc3_traces/628.pop2_s-17B.champsimtrace.xzCPU 3 runs /home/das/dpc3_traces/621.wrf_s-575B.champsimtrace.xz
Total Simulation Statistics (not including warmup)

CPU 0 cumulative IPC: 0.4704 instructions: 150000000 cycles: 318879446
CPU 0 Branch Prediction Accuracy: 97.89% MPKI: 0.03078 Average ROB Occupancy at Mispredict: 115.5
Branch type MPKI
BRANCH_DIRECT_JUMP: 0.0002
BRANCH_INDIRECT: 0.000567
BRANCH_CONDITIONAL: 0.0181
BRANCH_DIRECT_CALL: 0.00413
BRANCH_INDIRECT_CALL: 2e-05
BRANCH_RETURN: 0.00775


CPU 1 cumulative IPC: 0.755 instructions: 240750530 cycles: 318879446
CPU 1 Branch Prediction Accuracy: 94.8% MPKI: 7.2 Average ROB Occupancy at Mispredict: 62.69
Branch type MPKI
BRANCH_DIRECT_JUMP: 0.00666
BRANCH_INDIRECT: 0.00214
BRANCH_CONDITIONAL: 6.6
BRANCH_DIRECT_CALL: 0.0235
BRANCH_INDIRECT_CALL: 0
BRANCH_RETURN: 0.573


CPU 2 cumulative IPC: 0.7398 instructions: 235917773 cycles: 318879446
CPU 2 Branch Prediction Accuracy: 97.54% MPKI: 3.813 Average ROB Occupancy at Mispredict: 109.8
Branch type MPKI
BRANCH_DIRECT_JUMP: 0.0286
BRANCH_INDIRECT: 0.000606
BRANCH_CONDITIONAL: 3.71
BRANCH_DIRECT_CALL: 0.0011
BRANCH_INDIRECT_CALL: 0
BRANCH_RETURN: 0.0749


CPU 3 cumulative IPC: 1.326 instructions: 422816454 cycles: 318879446
CPU 3 Branch Prediction Accuracy: 95.48% MPKI: 5.813 Average ROB Occupancy at Mispredict: 89.34
Branch type MPKI
BRANCH_DIRECT_JUMP: 0.000499
BRANCH_INDIRECT: 1.18e-05
BRANCH_CONDITIONAL: 5.68
BRANCH_DIRECT_CALL: 0.00277
BRANCH_INDIRECT_CALL: 0
BRANCH_RETURN: 0.126

LLC TOTAL        ACCESS:    1714380 HIT:     552127 MISS:    1162253
LLC LOAD         ACCESS:    1539081 HIT:     392226 MISS:    1146855
LLC RFO          ACCESS:       4714 HIT:       3606 MISS:       1108
LLC PREFETCH     ACCESS:          0 HIT:          0 MISS:          0
LLC WRITE        ACCESS:     147886 HIT:     147832 MISS:         54
LLC TRANSLATION  ACCESS:      22699 HIT:       8463 MISS:      14236
LLC PREFETCH REQUESTED:          0 ISSUED:          0 USEFUL:          0 USELESS:          0
LLC AVERAGE MISS LATENCY: 3359 cycles
LLC TOTAL        ACCESS:    3106113 HIT:    1530315 MISS:    1575798
LLC LOAD         ACCESS:     181410 HIT:      44750 MISS:     136660
LLC RFO          ACCESS:    1452317 HIT:      26777 MISS:    1425540
LLC PREFETCH     ACCESS:          0 HIT:          0 MISS:          0
LLC WRITE        ACCESS:    1467847 HIT:    1458357 MISS:       9490
LLC TRANSLATION  ACCESS:       4539 HIT:        431 MISS:       4108
LLC PREFETCH REQUESTED:          0 ISSUED:          0 USEFUL:          0 USELESS:          0
LLC AVERAGE MISS LATENCY: 3359 cycles
LLC TOTAL        ACCESS:    2181146 HIT:    1344232 MISS:     836914
LLC LOAD         ACCESS:     931947 HIT:     468624 MISS:     463323
LLC RFO          ACCESS:     526332 HIT:     165610 MISS:     360722
LLC PREFETCH     ACCESS:          0 HIT:          0 MISS:          0
LLC WRITE        ACCESS:     717066 HIT:     708423 MISS:       8643
LLC TRANSLATION  ACCESS:       5801 HIT:       1575 MISS:       4226
LLC PREFETCH REQUESTED:          0 ISSUED:          0 USEFUL:          0 USELESS:          0
LLC AVERAGE MISS LATENCY: 3359 cycles
LLC TOTAL        ACCESS:     741363 HIT:     407702 MISS:     333661
LLC LOAD         ACCESS:     194511 HIT:      48881 MISS:     145630
LLC RFO          ACCESS:     256706 HIT:      95571 MISS:     161135
LLC PREFETCH     ACCESS:          0 HIT:          0 MISS:          0
LLC WRITE        ACCESS:     288632 HIT:     262837 MISS:      25795
LLC TRANSLATION  ACCESS:       1514 HIT:        413 MISS:       1101
LLC PREFETCH REQUESTED:          0 ISSUED:          0 USEFUL:          0 USELESS:          0
LLC AVERAGE MISS LATENCY: 3359 cycles
cpu0_DTLB TOTAL        ACCESS:   31584078 HIT:   18443891 MISS:   13140187
cpu0_DTLB LOAD         ACCESS:   31584078 HIT:   18443891 MISS:   13140187
cpu0_DTLB RFO          ACCESS:          0 HIT:          0 MISS:          0
cpu0_DTLB PREFETCH     ACCESS:          0 HIT:          0 MISS:          0
cpu0_DTLB WRITE        ACCESS:          0 HIT:          0 MISS:          0
cpu0_DTLB TRANSLATION  ACCESS:          0 HIT:          0 MISS:          0
cpu0_DTLB PREFETCH REQUESTED:          0 ISSUED:          0 USEFUL:          0 USELESS:          0
cpu0_DTLB AVERAGE MISS LATENCY: 9.611 cycles
cpu0_DTLB TOTAL        ACCESS:          0 HIT:          0 MISS:          0
cpu0_DTLB LOAD         ACCESS:          0 HIT:          0 MISS:          0
cpu0_DTLB RFO          ACCESS:          0 HIT:          0 MISS:          0
cpu0_DTLB PREFETCH     ACCESS:          0 HIT:          0 MISS:          0
cpu0_DTLB WRITE        ACCESS:          0 HIT:          0 MISS:          0
cpu0_DTLB TRANSLATION  ACCESS:          0 HIT:          0 MISS:          0
cpu0_DTLB PREFETCH REQUESTED:          0 ISSUED:          0 USEFUL:          0 USELESS:          0
cpu0_DTLB AVERAGE MISS LATENCY: 9.611 cycles
cpu0_DTLB TOTAL        ACCESS:          0 HIT:          0 MISS:          0
cpu0_DTLB LOAD         ACCESS:          0 HIT:          0 MISS:          0
cpu0_DTLB RFO          ACCESS:          0 HIT:          0 MISS:          0
cpu0_DTLB PREFETCH     ACCESS:          0 HIT:          0 MISS:          0
cpu0_DTLB WRITE        ACCESS:          0 HIT:          0 MISS:          0
cpu0_DTLB TRANSLATION  ACCESS:          0 HIT:          0 MISS:          0
cpu0_DTLB PREFETCH REQUESTED:          0 ISSUED:          0 USEFUL:          0 USELESS:          0
cpu0_DTLB AVERAGE MISS LATENCY: 9.611 cycles
cpu0_DTLB TOTAL        ACCESS:          0 HIT:          0 MISS:          0
cpu0_DTLB LOAD         ACCESS:          0 HIT:          0 MISS:          0
cpu0_DTLB RFO          ACCESS:          0 HIT:          0 MISS:          0
cpu0_DTLB PREFETCH     ACCESS:          0 HIT:          0 MISS:          0
cpu0_DTLB WRITE        ACCESS:          0 HIT:          0 MISS:          0
cpu0_DTLB TRANSLATION  ACCESS:          0 HIT:          0 MISS:          0
cpu0_DTLB PREFETCH REQUESTED:          0 ISSUED:          0 USEFUL:          0 USELESS:          0
cpu0_DTLB AVERAGE MISS LATENCY: 9.611 cycles
cpu0_ITLB TOTAL        ACCESS:   19810603 HIT:   19810512 MISS:         91
cpu0_ITLB LOAD         ACCESS:   19810603 HIT:   19810512 MISS:         91
cpu0_ITLB RFO          ACCESS:          0 HIT:          0 MISS:          0
cpu0_ITLB PREFETCH     ACCESS:          0 HIT:          0 MISS:          0
cpu0_ITLB WRITE        ACCESS:          0 HIT:          0 MISS:          0
cpu0_ITLB TRANSLATION  ACCESS:          0 HIT:          0 MISS:          0
cpu0_ITLB PREFETCH REQUESTED:          0 ISSUED:          0 USEFUL:          0 USELESS:          0
cpu0_ITLB AVERAGE MISS LATENCY: 256 cycles
cpu0_ITLB TOTAL        ACCESS:          0 HIT:          0 MISS:          0
cpu0_ITLB LOAD         ACCESS:          0 HIT:          0 MISS:          0
cpu0_ITLB RFO          ACCESS:          0 HIT:          0 MISS:          0
cpu0_ITLB PREFETCH     ACCESS:          0 HIT:          0 MISS:          0
cpu0_ITLB WRITE        ACCESS:          0 HIT:          0 MISS:          0
cpu0_ITLB TRANSLATION  ACCESS:          0 HIT:          0 MISS:          0
cpu0_ITLB PREFETCH REQUESTED:          0 ISSUED:          0 USEFUL:          0 USELESS:          0
cpu0_ITLB AVERAGE MISS LATENCY: 256 cycles
cpu0_ITLB TOTAL        ACCESS:          0 HIT:          0 MISS:          0
cpu0_ITLB LOAD         ACCESS:          0 HIT:          0 MISS:          0
cpu0_ITLB RFO          ACCESS:          0 HIT:          0 MISS:          0
cpu0_ITLB PREFETCH     ACCESS:          0 HIT:          0 MISS:          0
cpu0_ITLB WRITE        ACCESS:          0 HIT:          0 MISS:          0
cpu0_ITLB TRANSLATION  ACCESS:          0 HIT:          0 MISS:          0
cpu0_ITLB PREFETCH REQUESTED:          0 ISSUED:          0 USEFUL:          0 USELESS:          0
cpu0_ITLB AVERAGE MISS LATENCY: 256 cycles
cpu0_ITLB TOTAL        ACCESS:          0 HIT:          0 MISS:          0
cpu0_ITLB LOAD         ACCESS:          0 HIT:          0 MISS:          0
cpu0_ITLB RFO          ACCESS:          0 HIT:          0 MISS:          0
cpu0_ITLB PREFETCH     ACCESS:          0 HIT:          0 MISS:          0
cpu0_ITLB WRITE        ACCESS:          0 HIT:          0 MISS:          0
cpu0_ITLB TRANSLATION  ACCESS:          0 HIT:          0 MISS:          0
cpu0_ITLB PREFETCH REQUESTED:          0 ISSUED:          0 USEFUL:          0 USELESS:          0
cpu0_ITLB AVERAGE MISS LATENCY: 256 cycles
cpu0_L1D TOTAL        ACCESS:   39245286 HIT:   21891669 MISS:   17353617
cpu0_L1D LOAD         ACCESS:   22147139 HIT:    5734594 MISS:   16412545
cpu0_L1D RFO          ACCESS:          0 HIT:          0 MISS:          0
cpu0_L1D PREFETCH     ACCESS:          0 HIT:          0 MISS:          0
cpu0_L1D WRITE        ACCESS:   17069587 HIT:   16156788 MISS:     912799
cpu0_L1D TRANSLATION  ACCESS:      28560 HIT:        287 MISS:      28273
cpu0_L1D PREFETCH REQUESTED:          0 ISSUED:          0 USEFUL:          0 USELESS:          0
cpu0_L1D AVERAGE MISS LATENCY: 214 cycles
cpu0_L1D TOTAL        ACCESS:          0 HIT:          0 MISS:          0
cpu0_L1D LOAD         ACCESS:          0 HIT:          0 MISS:          0
cpu0_L1D RFO          ACCESS:          0 HIT:          0 MISS:          0
cpu0_L1D PREFETCH     ACCESS:          0 HIT:          0 MISS:          0
cpu0_L1D WRITE        ACCESS:          0 HIT:          0 MISS:          0
cpu0_L1D TRANSLATION  ACCESS:          0 HIT:          0 MISS:          0
cpu0_L1D PREFETCH REQUESTED:          0 ISSUED:          0 USEFUL:          0 USELESS:          0
cpu0_L1D AVERAGE MISS LATENCY: 214 cycles
cpu0_L1D TOTAL        ACCESS:          0 HIT:          0 MISS:          0
cpu0_L1D LOAD         ACCESS:          0 HIT:          0 MISS:          0
cpu0_L1D RFO          ACCESS:          0 HIT:          0 MISS:          0
cpu0_L1D PREFETCH     ACCESS:          0 HIT:          0 MISS:          0
cpu0_L1D WRITE        ACCESS:          0 HIT:          0 MISS:          0
cpu0_L1D TRANSLATION  ACCESS:          0 HIT:          0 MISS:          0
cpu0_L1D PREFETCH REQUESTED:          0 ISSUED:          0 USEFUL:          0 USELESS:          0
cpu0_L1D AVERAGE MISS LATENCY: 214 cycles
cpu0_L1D TOTAL        ACCESS:          0 HIT:          0 MISS:          0
cpu0_L1D LOAD         ACCESS:          0 HIT:          0 MISS:          0
cpu0_L1D RFO          ACCESS:          0 HIT:          0 MISS:          0
cpu0_L1D PREFETCH     ACCESS:          0 HIT:          0 MISS:          0
cpu0_L1D WRITE        ACCESS:          0 HIT:          0 MISS:          0
cpu0_L1D TRANSLATION  ACCESS:          0 HIT:          0 MISS:          0
cpu0_L1D PREFETCH REQUESTED:          0 ISSUED:          0 USEFUL:          0 USELESS:          0
cpu0_L1D AVERAGE MISS LATENCY: 214 cycles
cpu0_L1I TOTAL        ACCESS:   25737365 HIT:   25661215 MISS:      76150
cpu0_L1I LOAD         ACCESS:   25737365 HIT:   25661215 MISS:      76150
cpu0_L1I RFO          ACCESS:          0 HIT:          0 MISS:          0
cpu0_L1I PREFETCH     ACCESS:          0 HIT:          0 MISS:          0
cpu0_L1I WRITE        ACCESS:          0 HIT:          0 MISS:          0
cpu0_L1I TRANSLATION  ACCESS:          0 HIT:          0 MISS:          0
cpu0_L1I PREFETCH REQUESTED:          0 ISSUED:          0 USEFUL:          0 USELESS:          0
cpu0_L1I AVERAGE MISS LATENCY: 10.64 cycles
cpu0_L1I TOTAL        ACCESS:          0 HIT:          0 MISS:          0
cpu0_L1I LOAD         ACCESS:          0 HIT:          0 MISS:          0
cpu0_L1I RFO          ACCESS:          0 HIT:          0 MISS:          0
cpu0_L1I PREFETCH     ACCESS:          0 HIT:          0 MISS:          0
cpu0_L1I WRITE        ACCESS:          0 HIT:          0 MISS:          0
cpu0_L1I TRANSLATION  ACCESS:          0 HIT:          0 MISS:          0
cpu0_L1I PREFETCH REQUESTED:          0 ISSUED:          0 USEFUL:          0 USELESS:          0
cpu0_L1I AVERAGE MISS LATENCY: 10.64 cycles
cpu0_L1I TOTAL        ACCESS:          0 HIT:          0 MISS:          0
cpu0_L1I LOAD         ACCESS:          0 HIT:          0 MISS:          0
cpu0_L1I RFO          ACCESS:          0 HIT:          0 MISS:          0
cpu0_L1I PREFETCH     ACCESS:          0 HIT:          0 MISS:          0
cpu0_L1I WRITE        ACCESS:          0 HIT:          0 MISS:          0
cpu0_L1I TRANSLATION  ACCESS:          0 HIT:          0 MISS:          0
cpu0_L1I PREFETCH REQUESTED:          0 ISSUED:          0 USEFUL:          0 USELESS:          0
cpu0_L1I AVERAGE MISS LATENCY: 10.64 cycles
cpu0_L1I TOTAL        ACCESS:          0 HIT:          0 MISS:          0
cpu0_L1I LOAD         ACCESS:          0 HIT:          0 MISS:          0
cpu0_L1I RFO          ACCESS:          0 HIT:          0 MISS:          0
cpu0_L1I PREFETCH     ACCESS:          0 HIT:          0 MISS:          0
cpu0_L1I WRITE        ACCESS:          0 HIT:          0 MISS:          0
cpu0_L1I TRANSLATION  ACCESS:          0 HIT:          0 MISS:          0
cpu0_L1I PREFETCH REQUESTED:          0 ISSUED:          0 USEFUL:          0 USELESS:          0
cpu0_L1I AVERAGE MISS LATENCY: 10.64 cycles
cpu0_L2C TOTAL        ACCESS:   18281410 HIT:   16714859 MISS:    1566551
cpu0_L2C LOAD         ACCESS:   16281472 HIT:   14742373 MISS:    1539099
cpu0_L2C RFO          ACCESS:     678682 HIT:     673930 MISS:       4752
cpu0_L2C PREFETCH     ACCESS:          0 HIT:          0 MISS:          0
cpu0_L2C WRITE        ACCESS:    1293027 HIT:    1293026 MISS:          1
cpu0_L2C TRANSLATION  ACCESS:      28229 HIT:       5530 MISS:      22699
cpu0_L2C PREFETCH REQUESTED:          0 ISSUED:          0 USEFUL:          0 USELESS:          0
cpu0_L2C AVERAGE MISS LATENCY: 2259 cycles
cpu0_L2C TOTAL        ACCESS:          0 HIT:          0 MISS:          0
cpu0_L2C LOAD         ACCESS:          0 HIT:          0 MISS:          0
cpu0_L2C RFO          ACCESS:          0 HIT:          0 MISS:          0
cpu0_L2C PREFETCH     ACCESS:          0 HIT:          0 MISS:          0
cpu0_L2C WRITE        ACCESS:          0 HIT:          0 MISS:          0
cpu0_L2C TRANSLATION  ACCESS:          0 HIT:          0 MISS:          0
cpu0_L2C PREFETCH REQUESTED:          0 ISSUED:          0 USEFUL:          0 USELESS:          0
cpu0_L2C AVERAGE MISS LATENCY: 2259 cycles
cpu0_L2C TOTAL        ACCESS:          0 HIT:          0 MISS:          0
cpu0_L2C LOAD         ACCESS:          0 HIT:          0 MISS:          0
cpu0_L2C RFO          ACCESS:          0 HIT:          0 MISS:          0
cpu0_L2C PREFETCH     ACCESS:          0 HIT:          0 MISS:          0
cpu0_L2C WRITE        ACCESS:          0 HIT:          0 MISS:          0
cpu0_L2C TRANSLATION  ACCESS:          0 HIT:          0 MISS:          0
cpu0_L2C PREFETCH REQUESTED:          0 ISSUED:          0 USEFUL:          0 USELESS:          0
cpu0_L2C AVERAGE MISS LATENCY: 2259 cycles
cpu0_L2C TOTAL        ACCESS:          0 HIT:          0 MISS:          0
cpu0_L2C LOAD         ACCESS:          0 HIT:          0 MISS:          0
cpu0_L2C RFO          ACCESS:          0 HIT:          0 MISS:          0
cpu0_L2C PREFETCH     ACCESS:          0 HIT:          0 MISS:          0
cpu0_L2C WRITE        ACCESS:          0 HIT:          0 MISS:          0
cpu0_L2C TRANSLATION  ACCESS:          0 HIT:          0 MISS:          0
cpu0_L2C PREFETCH REQUESTED:          0 ISSUED:          0 USEFUL:          0 USELESS:          0
cpu0_L2C AVERAGE MISS LATENCY: 2259 cycles
cpu0_STLB TOTAL        ACCESS:   11239546 HIT:   11221201 MISS:      18345
cpu0_STLB LOAD         ACCESS:   11239546 HIT:   11221201 MISS:      18345
cpu0_STLB RFO          ACCESS:          0 HIT:          0 MISS:          0
cpu0_STLB PREFETCH     ACCESS:          0 HIT:          0 MISS:          0
cpu0_STLB WRITE        ACCESS:          0 HIT:          0 MISS:          0
cpu0_STLB TRANSLATION  ACCESS:          0 HIT:          0 MISS:          0
cpu0_STLB PREFETCH REQUESTED:          0 ISSUED:          0 USEFUL:          0 USELESS:          0
cpu0_STLB AVERAGE MISS LATENCY: 2579 cycles
cpu0_STLB TOTAL        ACCESS:          0 HIT:          0 MISS:          0
cpu0_STLB LOAD         ACCESS:          0 HIT:          0 MISS:          0
cpu0_STLB RFO          ACCESS:          0 HIT:          0 MISS:          0
cpu0_STLB PREFETCH     ACCESS:          0 HIT:          0 MISS:          0
cpu0_STLB WRITE        ACCESS:          0 HIT:          0 MISS:          0
cpu0_STLB TRANSLATION  ACCESS:          0 HIT:          0 MISS:          0
cpu0_STLB PREFETCH REQUESTED:          0 ISSUED:          0 USEFUL:          0 USELESS:          0
cpu0_STLB AVERAGE MISS LATENCY: 2579 cycles
cpu0_STLB TOTAL        ACCESS:          0 HIT:          0 MISS:          0
cpu0_STLB LOAD         ACCESS:          0 HIT:          0 MISS:          0
cpu0_STLB RFO          ACCESS:          0 HIT:          0 MISS:          0
cpu0_STLB PREFETCH     ACCESS:          0 HIT:          0 MISS:          0
cpu0_STLB WRITE        ACCESS:          0 HIT:          0 MISS:          0
cpu0_STLB TRANSLATION  ACCESS:          0 HIT:          0 MISS:          0
cpu0_STLB PREFETCH REQUESTED:          0 ISSUED:          0 USEFUL:          0 USELESS:          0
cpu0_STLB AVERAGE MISS LATENCY: 2579 cycles
cpu0_STLB TOTAL        ACCESS:          0 HIT:          0 MISS:          0
cpu0_STLB LOAD         ACCESS:          0 HIT:          0 MISS:          0
cpu0_STLB RFO          ACCESS:          0 HIT:          0 MISS:          0
cpu0_STLB PREFETCH     ACCESS:          0 HIT:          0 MISS:          0
cpu0_STLB WRITE        ACCESS:          0 HIT:          0 MISS:          0
cpu0_STLB TRANSLATION  ACCESS:          0 HIT:          0 MISS:          0
cpu0_STLB PREFETCH REQUESTED:          0 ISSUED:          0 USEFUL:          0 USELESS:          0
cpu0_STLB AVERAGE MISS LATENCY: 2579 cycles
cpu1_DTLB TOTAL        ACCESS:          0 HIT:          0 MISS:          0
cpu1_DTLB LOAD         ACCESS:          0 HIT:          0 MISS:          0
cpu1_DTLB RFO          ACCESS:          0 HIT:          0 MISS:          0
cpu1_DTLB PREFETCH     ACCESS:          0 HIT:          0 MISS:          0
cpu1_DTLB WRITE        ACCESS:          0 HIT:          0 MISS:          0
cpu1_DTLB TRANSLATION  ACCESS:          0 HIT:          0 MISS:          0
cpu1_DTLB PREFETCH REQUESTED:          0 ISSUED:          0 USEFUL:          0 USELESS:          0
cpu1_DTLB AVERAGE MISS LATENCY: 14.94 cycles
cpu1_DTLB TOTAL        ACCESS:   35567993 HIT:   35148886 MISS:     419107
cpu1_DTLB LOAD         ACCESS:   35567993 HIT:   35148886 MISS:     419107
cpu1_DTLB RFO          ACCESS:          0 HIT:          0 MISS:          0
cpu1_DTLB PREFETCH     ACCESS:          0 HIT:          0 MISS:          0
cpu1_DTLB WRITE        ACCESS:          0 HIT:          0 MISS:          0
cpu1_DTLB TRANSLATION  ACCESS:          0 HIT:          0 MISS:          0
cpu1_DTLB PREFETCH REQUESTED:          0 ISSUED:          0 USEFUL:          0 USELESS:          0
cpu1_DTLB AVERAGE MISS LATENCY: 14.94 cycles
cpu1_DTLB TOTAL        ACCESS:          0 HIT:          0 MISS:          0
cpu1_DTLB LOAD         ACCESS:          0 HIT:          0 MISS:          0
cpu1_DTLB RFO          ACCESS:          0 HIT:          0 MISS:          0
cpu1_DTLB PREFETCH     ACCESS:          0 HIT:          0 MISS:          0
cpu1_DTLB WRITE        ACCESS:          0 HIT:          0 MISS:          0
cpu1_DTLB TRANSLATION  ACCESS:          0 HIT:          0 MISS:          0
cpu1_DTLB PREFETCH REQUESTED:          0 ISSUED:          0 USEFUL:          0 USELESS:          0
cpu1_DTLB AVERAGE MISS LATENCY: 14.94 cycles
cpu1_DTLB TOTAL        ACCESS:          0 HIT:          0 MISS:          0
cpu1_DTLB LOAD         ACCESS:          0 HIT:          0 MISS:          0
cpu1_DTLB RFO          ACCESS:          0 HIT:          0 MISS:          0
cpu1_DTLB PREFETCH     ACCESS:          0 HIT:          0 MISS:          0
cpu1_DTLB WRITE        ACCESS:          0 HIT:          0 MISS:          0
cpu1_DTLB TRANSLATION  ACCESS:          0 HIT:          0 MISS:          0
cpu1_DTLB PREFETCH REQUESTED:          0 ISSUED:          0 USEFUL:          0 USELESS:          0
cpu1_DTLB AVERAGE MISS LATENCY: 14.94 cycles
cpu1_ITLB TOTAL        ACCESS:          0 HIT:          0 MISS:          0
cpu1_ITLB LOAD         ACCESS:          0 HIT:          0 MISS:          0
cpu1_ITLB RFO          ACCESS:          0 HIT:          0 MISS:          0
cpu1_ITLB PREFETCH     ACCESS:          0 HIT:          0 MISS:          0
cpu1_ITLB WRITE        ACCESS:          0 HIT:          0 MISS:          0
cpu1_ITLB TRANSLATION  ACCESS:          0 HIT:          0 MISS:          0
cpu1_ITLB PREFETCH REQUESTED:          0 ISSUED:          0 USEFUL:          0 USELESS:          0
cpu1_ITLB AVERAGE MISS LATENCY: 116.5 cycles
cpu1_ITLB TOTAL        ACCESS:    4562495 HIT:    4556719 MISS:       5776
cpu1_ITLB LOAD         ACCESS:    4562495 HIT:    4556719 MISS:       5776
cpu1_ITLB RFO          ACCESS:          0 HIT:          0 MISS:          0
cpu1_ITLB PREFETCH     ACCESS:          0 HIT:          0 MISS:          0
cpu1_ITLB WRITE        ACCESS:          0 HIT:          0 MISS:          0
cpu1_ITLB TRANSLATION  ACCESS:          0 HIT:          0 MISS:          0
cpu1_ITLB PREFETCH REQUESTED:          0 ISSUED:          0 USEFUL:          0 USELESS:          0
cpu1_ITLB AVERAGE MISS LATENCY: 116.5 cycles
cpu1_ITLB TOTAL        ACCESS:          0 HIT:          0 MISS:          0
cpu1_ITLB LOAD         ACCESS:          0 HIT:          0 MISS:          0
cpu1_ITLB RFO          ACCESS:          0 HIT:          0 MISS:          0
cpu1_ITLB PREFETCH     ACCESS:          0 HIT:          0 MISS:          0
cpu1_ITLB WRITE        ACCESS:          0 HIT:          0 MISS:          0
cpu1_ITLB TRANSLATION  ACCESS:          0 HIT:          0 MISS:          0
cpu1_ITLB PREFETCH REQUESTED:          0 ISSUED:          0 USEFUL:          0 USELESS:          0
cpu1_ITLB AVERAGE MISS LATENCY: 116.5 cycles
cpu1_ITLB TOTAL        ACCESS:          0 HIT:          0 MISS:          0
cpu1_ITLB LOAD         ACCESS:          0 HIT:          0 MISS:          0
cpu1_ITLB RFO          ACCESS:          0 HIT:          0 MISS:          0
cpu1_ITLB PREFETCH     ACCESS:          0 HIT:          0 MISS:          0
cpu1_ITLB WRITE        ACCESS:          0 HIT:          0 MISS:          0
cpu1_ITLB TRANSLATION  ACCESS:          0 HIT:          0 MISS:          0
cpu1_ITLB PREFETCH REQUESTED:          0 ISSUED:          0 USEFUL:          0 USELESS:          0
cpu1_ITLB AVERAGE MISS LATENCY: 116.5 cycles
cpu1_L1D TOTAL        ACCESS:          0 HIT:          0 MISS:          0
cpu1_L1D LOAD         ACCESS:          0 HIT:          0 MISS:          0
cpu1_L1D RFO          ACCESS:          0 HIT:          0 MISS:          0
cpu1_L1D PREFETCH     ACCESS:          0 HIT:          0 MISS:          0
cpu1_L1D WRITE        ACCESS:          0 HIT:          0 MISS:          0
cpu1_L1D TRANSLATION  ACCESS:          0 HIT:          0 MISS:          0
cpu1_L1D PREFETCH REQUESTED:          0 ISSUED:          0 USEFUL:          0 USELESS:          0
cpu1_L1D AVERAGE MISS LATENCY: 710.3 cycles
cpu1_L1D TOTAL        ACCESS:   47657106 HIT:   39339366 MISS:    8317740
cpu1_L1D LOAD         ACCESS:   23115072 HIT:   21879267 MISS:    1235805
cpu1_L1D RFO          ACCESS:          0 HIT:          0 MISS:          0
cpu1_L1D PREFETCH     ACCESS:          0 HIT:          0 MISS:          0
cpu1_L1D WRITE        ACCESS:   24512933 HIT:   17437363 MISS:    7075570
cpu1_L1D TRANSLATION  ACCESS:      29101 HIT:      22736 MISS:       6365
cpu1_L1D PREFETCH REQUESTED:          0 ISSUED:          0 USEFUL:          0 USELESS:          0
cpu1_L1D AVERAGE MISS LATENCY: 710.3 cycles
cpu1_L1D TOTAL        ACCESS:          0 HIT:          0 MISS:          0
cpu1_L1D LOAD         ACCESS:          0 HIT:          0 MISS:          0
cpu1_L1D RFO          ACCESS:          0 HIT:          0 MISS:          0
cpu1_L1D PREFETCH     ACCESS:          0 HIT:          0 MISS:          0
cpu1_L1D WRITE        ACCESS:          0 HIT:          0 MISS:          0
cpu1_L1D TRANSLATION  ACCESS:          0 HIT:          0 MISS:          0
cpu1_L1D PREFETCH REQUESTED:          0 ISSUED:          0 USEFUL:          0 USELESS:          0
cpu1_L1D AVERAGE MISS LATENCY: 710.3 cycles
cpu1_L1D TOTAL        ACCESS:          0 HIT:          0 MISS:          0
cpu1_L1D LOAD         ACCESS:          0 HIT:          0 MISS:          0
cpu1_L1D RFO          ACCESS:          0 HIT:          0 MISS:          0
cpu1_L1D PREFETCH     ACCESS:          0 HIT:          0 MISS:          0
cpu1_L1D WRITE        ACCESS:          0 HIT:          0 MISS:          0
cpu1_L1D TRANSLATION  ACCESS:          0 HIT:          0 MISS:          0
cpu1_L1D PREFETCH REQUESTED:          0 ISSUED:          0 USEFUL:          0 USELESS:          0
cpu1_L1D AVERAGE MISS LATENCY: 710.3 cycles
cpu1_L1I TOTAL        ACCESS:          0 HIT:          0 MISS:          0
cpu1_L1I LOAD         ACCESS:          0 HIT:          0 MISS:          0
cpu1_L1I RFO          ACCESS:          0 HIT:          0 MISS:          0
cpu1_L1I PREFETCH     ACCESS:          0 HIT:          0 MISS:          0
cpu1_L1I WRITE        ACCESS:          0 HIT:          0 MISS:          0
cpu1_L1I TRANSLATION  ACCESS:          0 HIT:          0 MISS:          0
cpu1_L1I PREFETCH REQUESTED:          0 ISSUED:          0 USEFUL:          0 USELESS:          0
cpu1_L1I AVERAGE MISS LATENCY: 290.8 cycles
cpu1_L1I TOTAL        ACCESS:    5802266 HIT:    5668509 MISS:     133757
cpu1_L1I LOAD         ACCESS:    5802266 HIT:    5668509 MISS:     133757
cpu1_L1I RFO          ACCESS:          0 HIT:          0 MISS:          0
cpu1_L1I PREFETCH     ACCESS:          0 HIT:          0 MISS:          0
cpu1_L1I WRITE        ACCESS:          0 HIT:          0 MISS:          0
cpu1_L1I TRANSLATION  ACCESS:          0 HIT:          0 MISS:          0
cpu1_L1I PREFETCH REQUESTED:          0 ISSUED:          0 USEFUL:          0 USELESS:          0
cpu1_L1I AVERAGE MISS LATENCY: 290.8 cycles
cpu1_L1I TOTAL        ACCESS:          0 HIT:          0 MISS:          0
cpu1_L1I LOAD         ACCESS:          0 HIT:          0 MISS:          0
cpu1_L1I RFO          ACCESS:          0 HIT:          0 MISS:          0
cpu1_L1I PREFETCH     ACCESS:          0 HIT:          0 MISS:          0
cpu1_L1I WRITE        ACCESS:          0 HIT:          0 MISS:          0
cpu1_L1I TRANSLATION  ACCESS:          0 HIT:          0 MISS:          0
cpu1_L1I PREFETCH REQUESTED:          0 ISSUED:          0 USEFUL:          0 USELESS:          0
cpu1_L1I AVERAGE MISS LATENCY: 290.8 cycles
cpu1_L1I TOTAL        ACCESS:          0 HIT:          0 MISS:          0
cpu1_L1I LOAD         ACCESS:          0 HIT:          0 MISS:          0
cpu1_L1I RFO          ACCESS:          0 HIT:          0 MISS:          0
cpu1_L1I PREFETCH     ACCESS:          0 HIT:          0 MISS:          0
cpu1_L1I WRITE        ACCESS:          0 HIT:          0 MISS:          0
cpu1_L1I TRANSLATION  ACCESS:          0 HIT:          0 MISS:          0
cpu1_L1I PREFETCH REQUESTED:          0 ISSUED:          0 USEFUL:          0 USELESS:          0
cpu1_L1I AVERAGE MISS LATENCY: 290.8 cycles
cpu1_L2C TOTAL        ACCESS:          0 HIT:          0 MISS:          0
cpu1_L2C LOAD         ACCESS:          0 HIT:          0 MISS:          0
cpu1_L2C RFO          ACCESS:          0 HIT:          0 MISS:          0
cpu1_L2C PREFETCH     ACCESS:          0 HIT:          0 MISS:          0
cpu1_L2C WRITE        ACCESS:          0 HIT:          0 MISS:          0
cpu1_L2C TRANSLATION  ACCESS:          0 HIT:          0 MISS:          0
cpu1_L2C PREFETCH REQUESTED:          0 ISSUED:          0 USEFUL:          0 USELESS:          0
cpu1_L2C AVERAGE MISS LATENCY: 3635 cycles
cpu1_L2C TOTAL        ACCESS:    4622651 HIT:    2984315 MISS:    1638336
cpu1_L2C LOAD         ACCESS:     914264 HIT:     732854 MISS:     181410
cpu1_L2C RFO          ACCESS:    1791655 HIT:     339338 MISS:    1452317
cpu1_L2C PREFETCH     ACCESS:          0 HIT:          0 MISS:          0
cpu1_L2C WRITE        ACCESS:    1910417 HIT:    1910347 MISS:         70
cpu1_L2C TRANSLATION  ACCESS:       6315 HIT:       1776 MISS:       4539
cpu1_L2C PREFETCH REQUESTED:          0 ISSUED:          0 USEFUL:          0 USELESS:          0
cpu1_L2C AVERAGE MISS LATENCY: 3635 cycles
cpu1_L2C TOTAL        ACCESS:          0 HIT:          0 MISS:          0
cpu1_L2C LOAD         ACCESS:          0 HIT:          0 MISS:          0
cpu1_L2C RFO          ACCESS:          0 HIT:          0 MISS:          0
cpu1_L2C PREFETCH     ACCESS:          0 HIT:          0 MISS:          0
cpu1_L2C WRITE        ACCESS:          0 HIT:          0 MISS:          0
cpu1_L2C TRANSLATION  ACCESS:          0 HIT:          0 MISS:          0
cpu1_L2C PREFETCH REQUESTED:          0 ISSUED:          0 USEFUL:          0 USELESS:          0
cpu1_L2C AVERAGE MISS LATENCY: 3635 cycles
cpu1_L2C TOTAL        ACCESS:          0 HIT:          0 MISS:          0
cpu1_L2C LOAD         ACCESS:          0 HIT:          0 MISS:          0
cpu1_L2C RFO          ACCESS:          0 HIT:          0 MISS:          0
cpu1_L2C PREFETCH     ACCESS:          0 HIT:          0 MISS:          0
cpu1_L2C WRITE        ACCESS:          0 HIT:          0 MISS:          0
cpu1_L2C TRANSLATION  ACCESS:          0 HIT:          0 MISS:          0
cpu1_L2C PREFETCH REQUESTED:          0 ISSUED:          0 USEFUL:          0 USELESS:          0
cpu1_L2C AVERAGE MISS LATENCY: 3635 cycles
cpu1_STLB TOTAL        ACCESS:          0 HIT:          0 MISS:          0
cpu1_STLB LOAD         ACCESS:          0 HIT:          0 MISS:          0
cpu1_STLB RFO          ACCESS:          0 HIT:          0 MISS:          0
cpu1_STLB PREFETCH     ACCESS:          0 HIT:          0 MISS:          0
cpu1_STLB WRITE        ACCESS:          0 HIT:          0 MISS:          0
cpu1_STLB TRANSLATION  ACCESS:          0 HIT:          0 MISS:          0
cpu1_STLB PREFETCH REQUESTED:          0 ISSUED:          0 USEFUL:          0 USELESS:          0
cpu1_STLB AVERAGE MISS LATENCY: 254.2 cycles
cpu1_STLB TOTAL        ACCESS:     163052 HIT:     134503 MISS:      28549
cpu1_STLB LOAD         ACCESS:     163052 HIT:     134503 MISS:      28549
cpu1_STLB RFO          ACCESS:          0 HIT:          0 MISS:          0
cpu1_STLB PREFETCH     ACCESS:          0 HIT:          0 MISS:          0
cpu1_STLB WRITE        ACCESS:          0 HIT:          0 MISS:          0
cpu1_STLB TRANSLATION  ACCESS:          0 HIT:          0 MISS:          0
cpu1_STLB PREFETCH REQUESTED:          0 ISSUED:          0 USEFUL:          0 USELESS:          0
cpu1_STLB AVERAGE MISS LATENCY: 254.2 cycles
cpu1_STLB TOTAL        ACCESS:          0 HIT:          0 MISS:          0
cpu1_STLB LOAD         ACCESS:          0 HIT:          0 MISS:          0
cpu1_STLB RFO          ACCESS:          0 HIT:          0 MISS:          0
cpu1_STLB PREFETCH     ACCESS:          0 HIT:          0 MISS:          0
cpu1_STLB WRITE        ACCESS:          0 HIT:          0 MISS:          0
cpu1_STLB TRANSLATION  ACCESS:          0 HIT:          0 MISS:          0
cpu1_STLB PREFETCH REQUESTED:          0 ISSUED:          0 USEFUL:          0 USELESS:          0
cpu1_STLB AVERAGE MISS LATENCY: 254.2 cycles
cpu1_STLB TOTAL        ACCESS:          0 HIT:          0 MISS:          0
cpu1_STLB LOAD         ACCESS:          0 HIT:          0 MISS:          0
cpu1_STLB RFO          ACCESS:          0 HIT:          0 MISS:          0
cpu1_STLB PREFETCH     ACCESS:          0 HIT:          0 MISS:          0
cpu1_STLB WRITE        ACCESS:          0 HIT:          0 MISS:          0
cpu1_STLB TRANSLATION  ACCESS:          0 HIT:          0 MISS:          0
cpu1_STLB PREFETCH REQUESTED:          0 ISSUED:          0 USEFUL:          0 USELESS:          0
cpu1_STLB AVERAGE MISS LATENCY: 254.2 cycles
cpu2_DTLB TOTAL        ACCESS:          0 HIT:          0 MISS:          0
cpu2_DTLB LOAD         ACCESS:          0 HIT:          0 MISS:          0
cpu2_DTLB RFO          ACCESS:          0 HIT:          0 MISS:          0
cpu2_DTLB PREFETCH     ACCESS:          0 HIT:          0 MISS:          0
cpu2_DTLB WRITE        ACCESS:          0 HIT:          0 MISS:          0
cpu2_DTLB TRANSLATION  ACCESS:          0 HIT:          0 MISS:          0
cpu2_DTLB PREFETCH REQUESTED:          0 ISSUED:          0 USEFUL:          0 USELESS:          0
cpu2_DTLB AVERAGE MISS LATENCY: 31.51 cycles
cpu2_DTLB TOTAL        ACCESS:          0 HIT:          0 MISS:          0
cpu2_DTLB LOAD         ACCESS:          0 HIT:          0 MISS:          0
cpu2_DTLB RFO          ACCESS:          0 HIT:          0 MISS:          0
cpu2_DTLB PREFETCH     ACCESS:          0 HIT:          0 MISS:          0
cpu2_DTLB WRITE        ACCESS:          0 HIT:          0 MISS:          0
cpu2_DTLB TRANSLATION  ACCESS:          0 HIT:          0 MISS:          0
cpu2_DTLB PREFETCH REQUESTED:          0 ISSUED:          0 USEFUL:          0 USELESS:          0
cpu2_DTLB AVERAGE MISS LATENCY: 31.51 cycles
cpu2_DTLB TOTAL        ACCESS:   32460116 HIT:   32181053 MISS:     279063
cpu2_DTLB LOAD         ACCESS:   32460116 HIT:   32181053 MISS:     279063
cpu2_DTLB RFO          ACCESS:          0 HIT:          0 MISS:          0
cpu2_DTLB PREFETCH     ACCESS:          0 HIT:          0 MISS:          0
cpu2_DTLB WRITE        ACCESS:          0 HIT:          0 MISS:          0
cpu2_DTLB TRANSLATION  ACCESS:          0 HIT:          0 MISS:          0
cpu2_DTLB PREFETCH REQUESTED:          0 ISSUED:          0 USEFUL:          0 USELESS:          0
cpu2_DTLB AVERAGE MISS LATENCY: 31.51 cycles
cpu2_DTLB TOTAL        ACCESS:          0 HIT:          0 MISS:          0
cpu2_DTLB LOAD         ACCESS:          0 HIT:          0 MISS:          0
cpu2_DTLB RFO          ACCESS:          0 HIT:          0 MISS:          0
cpu2_DTLB PREFETCH     ACCESS:          0 HIT:          0 MISS:          0
cpu2_DTLB WRITE        ACCESS:          0 HIT:          0 MISS:          0
cpu2_DTLB TRANSLATION  ACCESS:          0 HIT:          0 MISS:          0
cpu2_DTLB PREFETCH REQUESTED:          0 ISSUED:          0 USEFUL:          0 USELESS:          0
cpu2_DTLB AVERAGE MISS LATENCY: 31.51 cycles
cpu2_ITLB TOTAL        ACCESS:          0 HIT:          0 MISS:          0
cpu2_ITLB LOAD         ACCESS:          0 HIT:          0 MISS:          0
cpu2_ITLB RFO          ACCESS:          0 HIT:          0 MISS:          0
cpu2_ITLB PREFETCH     ACCESS:          0 HIT:          0 MISS:          0
cpu2_ITLB WRITE        ACCESS:          0 HIT:          0 MISS:          0
cpu2_ITLB TRANSLATION  ACCESS:          0 HIT:          0 MISS:          0
cpu2_ITLB PREFETCH REQUESTED:          0 ISSUED:          0 USEFUL:          0 USELESS:          0
cpu2_ITLB AVERAGE MISS LATENCY: 26.11 cycles
cpu2_ITLB TOTAL        ACCESS:          0 HIT:          0 MISS:          0
cpu2_ITLB LOAD         ACCESS:          0 HIT:          0 MISS:          0
cpu2_ITLB RFO          ACCESS:          0 HIT:          0 MISS:          0
cpu2_ITLB PREFETCH     ACCESS:          0 HIT:          0 MISS:          0
cpu2_ITLB WRITE        ACCESS:          0 HIT:          0 MISS:          0
cpu2_ITLB TRANSLATION  ACCESS:          0 HIT:          0 MISS:          0
cpu2_ITLB PREFETCH REQUESTED:          0 ISSUED:          0 USEFUL:          0 USELESS:          0
cpu2_ITLB AVERAGE MISS LATENCY: 26.11 cycles
cpu2_ITLB TOTAL        ACCESS:     438385 HIT:     429348 MISS:       9037
cpu2_ITLB LOAD         ACCESS:     438385 HIT:     429348 MISS:       9037
cpu2_ITLB RFO          ACCESS:          0 HIT:          0 MISS:          0
cpu2_ITLB PREFETCH     ACCESS:          0 HIT:          0 MISS:          0
cpu2_ITLB WRITE        ACCESS:          0 HIT:          0 MISS:          0
cpu2_ITLB TRANSLATION  ACCESS:          0 HIT:          0 MISS:          0
cpu2_ITLB PREFETCH REQUESTED:          0 ISSUED:          0 USEFUL:          0 USELESS:          0
cpu2_ITLB AVERAGE MISS LATENCY: 26.11 cycles
cpu2_ITLB TOTAL        ACCESS:          0 HIT:          0 MISS:          0
cpu2_ITLB LOAD         ACCESS:          0 HIT:          0 MISS:          0
cpu2_ITLB RFO          ACCESS:          0 HIT:          0 MISS:          0
cpu2_ITLB PREFETCH     ACCESS:          0 HIT:          0 MISS:          0
cpu2_ITLB WRITE        ACCESS:          0 HIT:          0 MISS:          0
cpu2_ITLB TRANSLATION  ACCESS:          0 HIT:          0 MISS:          0
cpu2_ITLB PREFETCH REQUESTED:          0 ISSUED:          0 USEFUL:          0 USELESS:          0
cpu2_ITLB AVERAGE MISS LATENCY: 26.11 cycles
cpu2_L1D TOTAL        ACCESS:          0 HIT:          0 MISS:          0
cpu2_L1D LOAD         ACCESS:          0 HIT:          0 MISS:          0
cpu2_L1D RFO          ACCESS:          0 HIT:          0 MISS:          0
cpu2_L1D PREFETCH     ACCESS:          0 HIT:          0 MISS:          0
cpu2_L1D WRITE        ACCESS:          0 HIT:          0 MISS:          0
cpu2_L1D TRANSLATION  ACCESS:          0 HIT:          0 MISS:          0
cpu2_L1D PREFETCH REQUESTED:          0 ISSUED:          0 USEFUL:          0 USELESS:          0
cpu2_L1D AVERAGE MISS LATENCY: 260.3 cycles
cpu2_L1D TOTAL        ACCESS:          0 HIT:          0 MISS:          0
cpu2_L1D LOAD         ACCESS:          0 HIT:          0 MISS:          0
cpu2_L1D RFO          ACCESS:          0 HIT:          0 MISS:          0
cpu2_L1D PREFETCH     ACCESS:          0 HIT:          0 MISS:          0
cpu2_L1D WRITE        ACCESS:          0 HIT:          0 MISS:          0
cpu2_L1D TRANSLATION  ACCESS:          0 HIT:          0 MISS:          0
cpu2_L1D PREFETCH REQUESTED:          0 ISSUED:          0 USEFUL:          0 USELESS:          0
cpu2_L1D AVERAGE MISS LATENCY: 260.3 cycles
cpu2_L1D TOTAL        ACCESS:   39426414 HIT:   30732697 MISS:    8693717
cpu2_L1D LOAD         ACCESS:   24004909 HIT:   20317423 MISS:    3687486
cpu2_L1D RFO          ACCESS:          0 HIT:          0 MISS:          0
cpu2_L1D PREFETCH     ACCESS:          0 HIT:          0 MISS:          0
cpu2_L1D WRITE        ACCESS:   15408159 HIT:   10411754 MISS:    4996405
cpu2_L1D TRANSLATION  ACCESS:      13346 HIT:       3520 MISS:       9826
cpu2_L1D PREFETCH REQUESTED:          0 ISSUED:          0 USEFUL:          0 USELESS:          0
cpu2_L1D AVERAGE MISS LATENCY: 260.3 cycles
cpu2_L1D TOTAL        ACCESS:          0 HIT:          0 MISS:          0
cpu2_L1D LOAD         ACCESS:          0 HIT:          0 MISS:          0
cpu2_L1D RFO          ACCESS:          0 HIT:          0 MISS:          0
cpu2_L1D PREFETCH     ACCESS:          0 HIT:          0 MISS:          0
cpu2_L1D WRITE        ACCESS:          0 HIT:          0 MISS:          0
cpu2_L1D TRANSLATION  ACCESS:          0 HIT:          0 MISS:          0
cpu2_L1D PREFETCH REQUESTED:          0 ISSUED:          0 USEFUL:          0 USELESS:          0
cpu2_L1D AVERAGE MISS LATENCY: 260.3 cycles
cpu2_L1I TOTAL        ACCESS:          0 HIT:          0 MISS:          0
cpu2_L1I LOAD         ACCESS:          0 HIT:          0 MISS:          0
cpu2_L1I RFO          ACCESS:          0 HIT:          0 MISS:          0
cpu2_L1I PREFETCH     ACCESS:          0 HIT:          0 MISS:          0
cpu2_L1I WRITE        ACCESS:          0 HIT:          0 MISS:          0
cpu2_L1I TRANSLATION  ACCESS:          0 HIT:          0 MISS:          0
cpu2_L1I PREFETCH REQUESTED:          0 ISSUED:          0 USEFUL:          0 USELESS:          0
cpu2_L1I AVERAGE MISS LATENCY: 91.61 cycles
cpu2_L1I TOTAL        ACCESS:          0 HIT:          0 MISS:          0
cpu2_L1I LOAD         ACCESS:          0 HIT:          0 MISS:          0
cpu2_L1I RFO          ACCESS:          0 HIT:          0 MISS:          0
cpu2_L1I PREFETCH     ACCESS:          0 HIT:          0 MISS:          0
cpu2_L1I WRITE        ACCESS:          0 HIT:          0 MISS:          0
cpu2_L1I TRANSLATION  ACCESS:          0 HIT:          0 MISS:          0
cpu2_L1I PREFETCH REQUESTED:          0 ISSUED:          0 USEFUL:          0 USELESS:          0
cpu2_L1I AVERAGE MISS LATENCY: 91.61 cycles
cpu2_L1I TOTAL        ACCESS:     536144 HIT:     381843 MISS:     154301
cpu2_L1I LOAD         ACCESS:     536144 HIT:     381843 MISS:     154301
cpu2_L1I RFO          ACCESS:          0 HIT:          0 MISS:          0
cpu2_L1I PREFETCH     ACCESS:          0 HIT:          0 MISS:          0
cpu2_L1I WRITE        ACCESS:          0 HIT:          0 MISS:          0
cpu2_L1I TRANSLATION  ACCESS:          0 HIT:          0 MISS:          0
cpu2_L1I PREFETCH REQUESTED:          0 ISSUED:          0 USEFUL:          0 USELESS:          0
cpu2_L1I AVERAGE MISS LATENCY: 91.61 cycles
cpu2_L1I TOTAL        ACCESS:          0 HIT:          0 MISS:          0
cpu2_L1I LOAD         ACCESS:          0 HIT:          0 MISS:          0
cpu2_L1I RFO          ACCESS:          0 HIT:          0 MISS:          0
cpu2_L1I PREFETCH     ACCESS:          0 HIT:          0 MISS:          0
cpu2_L1I WRITE        ACCESS:          0 HIT:          0 MISS:          0
cpu2_L1I TRANSLATION  ACCESS:          0 HIT:          0 MISS:          0
cpu2_L1I PREFETCH REQUESTED:          0 ISSUED:          0 USEFUL:          0 USELESS:          0
cpu2_L1I AVERAGE MISS LATENCY: 91.61 cycles
cpu2_L2C TOTAL        ACCESS:          0 HIT:          0 MISS:          0
cpu2_L2C LOAD         ACCESS:          0 HIT:          0 MISS:          0
cpu2_L2C RFO          ACCESS:          0 HIT:          0 MISS:          0
cpu2_L2C PREFETCH     ACCESS:          0 HIT:          0 MISS:          0
cpu2_L2C WRITE        ACCESS:          0 HIT:          0 MISS:          0
cpu2_L2C TRANSLATION  ACCESS:          0 HIT:          0 MISS:          0
cpu2_L2C PREFETCH REQUESTED:          0 ISSUED:          0 USEFUL:          0 USELESS:          0
cpu2_L2C AVERAGE MISS LATENCY: 1680 cycles
cpu2_L2C TOTAL        ACCESS:          0 HIT:          0 MISS:          0
cpu2_L2C LOAD         ACCESS:          0 HIT:          0 MISS:          0
cpu2_L2C RFO          ACCESS:          0 HIT:          0 MISS:          0
cpu2_L2C PREFETCH     ACCESS:          0 HIT:          0 MISS:          0
cpu2_L2C WRITE        ACCESS:          0 HIT:          0 MISS:          0
cpu2_L2C TRANSLATION  ACCESS:          0 HIT:          0 MISS:          0
cpu2_L2C PREFETCH REQUESTED:          0 ISSUED:          0 USEFUL:          0 USELESS:          0
cpu2_L2C AVERAGE MISS LATENCY: 1680 cycles
cpu2_L2C TOTAL        ACCESS:    5040629 HIT:    3575639 MISS:    1464990
cpu2_L2C LOAD         ACCESS:    2196376 HIT:    1264429 MISS:     931947
cpu2_L2C RFO          ACCESS:    1236819 HIT:     710487 MISS:     526332
cpu2_L2C PREFETCH     ACCESS:          0 HIT:          0 MISS:          0
cpu2_L2C WRITE        ACCESS:    1597748 HIT:    1596838 MISS:        910
cpu2_L2C TRANSLATION  ACCESS:       9686 HIT:       3885 MISS:       5801
cpu2_L2C PREFETCH REQUESTED:          0 ISSUED:          0 USEFUL:          0 USELESS:          0
cpu2_L2C AVERAGE MISS LATENCY: 1680 cycles
cpu2_L2C TOTAL        ACCESS:          0 HIT:          0 MISS:          0
cpu2_L2C LOAD         ACCESS:          0 HIT:          0 MISS:          0
cpu2_L2C RFO          ACCESS:          0 HIT:          0 MISS:          0
cpu2_L2C PREFETCH     ACCESS:          0 HIT:          0 MISS:          0
cpu2_L2C WRITE        ACCESS:          0 HIT:          0 MISS:          0
cpu2_L2C TRANSLATION  ACCESS:          0 HIT:          0 MISS:          0
cpu2_L2C PREFETCH REQUESTED:          0 ISSUED:          0 USEFUL:          0 USELESS:          0
cpu2_L2C AVERAGE MISS LATENCY: 1680 cycles
cpu2_STLB TOTAL        ACCESS:          0 HIT:          0 MISS:          0
cpu2_STLB LOAD         ACCESS:          0 HIT:          0 MISS:          0
cpu2_STLB RFO          ACCESS:          0 HIT:          0 MISS:          0
cpu2_STLB PREFETCH     ACCESS:          0 HIT:          0 MISS:          0
cpu2_STLB WRITE        ACCESS:          0 HIT:          0 MISS:          0
cpu2_STLB TRANSLATION  ACCESS:          0 HIT:          0 MISS:          0
cpu2_STLB PREFETCH REQUESTED:          0 ISSUED:          0 USEFUL:          0 USELESS:          0
cpu2_STLB AVERAGE MISS LATENCY: 994.8 cycles
cpu2_STLB TOTAL        ACCESS:          0 HIT:          0 MISS:          0
cpu2_STLB LOAD         ACCESS:          0 HIT:          0 MISS:          0
cpu2_STLB RFO          ACCESS:          0 HIT:          0 MISS:          0
cpu2_STLB PREFETCH     ACCESS:          0 HIT:          0 MISS:          0
cpu2_STLB WRITE        ACCESS:          0 HIT:          0 MISS:          0
cpu2_STLB TRANSLATION  ACCESS:          0 HIT:          0 MISS:          0
cpu2_STLB PREFETCH REQUESTED:          0 ISSUED:          0 USEFUL:          0 USELESS:          0
cpu2_STLB AVERAGE MISS LATENCY: 994.8 cycles
cpu2_STLB TOTAL        ACCESS:     104785 HIT:      93055 MISS:      11730
cpu2_STLB LOAD         ACCESS:     104785 HIT:      93055 MISS:      11730
cpu2_STLB RFO          ACCESS:          0 HIT:          0 MISS:          0
cpu2_STLB PREFETCH     ACCESS:          0 HIT:          0 MISS:          0
cpu2_STLB WRITE        ACCESS:          0 HIT:          0 MISS:          0
cpu2_STLB TRANSLATION  ACCESS:          0 HIT:          0 MISS:          0
cpu2_STLB PREFETCH REQUESTED:          0 ISSUED:          0 USEFUL:          0 USELESS:          0
cpu2_STLB AVERAGE MISS LATENCY: 994.8 cycles
cpu2_STLB TOTAL        ACCESS:          0 HIT:          0 MISS:          0
cpu2_STLB LOAD         ACCESS:          0 HIT:          0 MISS:          0
cpu2_STLB RFO          ACCESS:          0 HIT:          0 MISS:          0
cpu2_STLB PREFETCH     ACCESS:          0 HIT:          0 MISS:          0
cpu2_STLB WRITE        ACCESS:          0 HIT:          0 MISS:          0
cpu2_STLB TRANSLATION  ACCESS:          0 HIT:          0 MISS:          0
cpu2_STLB PREFETCH REQUESTED:          0 ISSUED:          0 USEFUL:          0 USELESS:          0
cpu2_STLB AVERAGE MISS LATENCY: 994.8 cycles
cpu3_DTLB TOTAL        ACCESS:          0 HIT:          0 MISS:          0
cpu3_DTLB LOAD         ACCESS:          0 HIT:          0 MISS:          0
cpu3_DTLB RFO          ACCESS:          0 HIT:          0 MISS:          0
cpu3_DTLB PREFETCH     ACCESS:          0 HIT:          0 MISS:          0
cpu3_DTLB WRITE        ACCESS:          0 HIT:          0 MISS:          0
cpu3_DTLB TRANSLATION  ACCESS:          0 HIT:          0 MISS:          0
cpu3_DTLB PREFETCH REQUESTED:          0 ISSUED:          0 USEFUL:          0 USELESS:          0
cpu3_DTLB AVERAGE MISS LATENCY: 14.08 cycles
cpu3_DTLB TOTAL        ACCESS:          0 HIT:          0 MISS:          0
cpu3_DTLB LOAD         ACCESS:          0 HIT:          0 MISS:          0
cpu3_DTLB RFO          ACCESS:          0 HIT:          0 MISS:          0
cpu3_DTLB PREFETCH     ACCESS:          0 HIT:          0 MISS:          0
cpu3_DTLB WRITE        ACCESS:          0 HIT:          0 MISS:          0
cpu3_DTLB TRANSLATION  ACCESS:          0 HIT:          0 MISS:          0
cpu3_DTLB PREFETCH REQUESTED:          0 ISSUED:          0 USEFUL:          0 USELESS:          0
cpu3_DTLB AVERAGE MISS LATENCY: 14.08 cycles
cpu3_DTLB TOTAL        ACCESS:          0 HIT:          0 MISS:          0
cpu3_DTLB LOAD         ACCESS:          0 HIT:          0 MISS:          0
cpu3_DTLB RFO          ACCESS:          0 HIT:          0 MISS:          0
cpu3_DTLB PREFETCH     ACCESS:          0 HIT:          0 MISS:          0
cpu3_DTLB WRITE        ACCESS:          0 HIT:          0 MISS:          0
cpu3_DTLB TRANSLATION  ACCESS:          0 HIT:          0 MISS:          0
cpu3_DTLB PREFETCH REQUESTED:          0 ISSUED:          0 USEFUL:          0 USELESS:          0
cpu3_DTLB AVERAGE MISS LATENCY: 14.08 cycles
cpu3_DTLB TOTAL        ACCESS:   58984425 HIT:   58550099 MISS:     434326
cpu3_DTLB LOAD         ACCESS:   58984425 HIT:   58550099 MISS:     434326
cpu3_DTLB RFO          ACCESS:          0 HIT:          0 MISS:          0
cpu3_DTLB PREFETCH     ACCESS:          0 HIT:          0 MISS:          0
cpu3_DTLB WRITE        ACCESS:          0 HIT:          0 MISS:          0
cpu3_DTLB TRANSLATION  ACCESS:          0 HIT:          0 MISS:          0
cpu3_DTLB PREFETCH REQUESTED:          0 ISSUED:          0 USEFUL:          0 USELESS:          0
cpu3_DTLB AVERAGE MISS LATENCY: 14.08 cycles
cpu3_ITLB TOTAL        ACCESS:          0 HIT:          0 MISS:          0
cpu3_ITLB LOAD         ACCESS:          0 HIT:          0 MISS:          0
cpu3_ITLB RFO          ACCESS:          0 HIT:          0 MISS:          0
cpu3_ITLB PREFETCH     ACCESS:          0 HIT:          0 MISS:          0
cpu3_ITLB WRITE        ACCESS:          0 HIT:          0 MISS:          0
cpu3_ITLB TRANSLATION  ACCESS:          0 HIT:          0 MISS:          0
cpu3_ITLB PREFETCH REQUESTED:          0 ISSUED:          0 USEFUL:          0 USELESS:          0
cpu3_ITLB AVERAGE MISS LATENCY: 1231 cycles
cpu3_ITLB TOTAL        ACCESS:          0 HIT:          0 MISS:          0
cpu3_ITLB LOAD         ACCESS:          0 HIT:          0 MISS:          0
cpu3_ITLB RFO          ACCESS:          0 HIT:          0 MISS:          0
cpu3_ITLB PREFETCH     ACCESS:          0 HIT:          0 MISS:          0
cpu3_ITLB WRITE        ACCESS:          0 HIT:          0 MISS:          0
cpu3_ITLB TRANSLATION  ACCESS:          0 HIT:          0 MISS:          0
cpu3_ITLB PREFETCH REQUESTED:          0 ISSUED:          0 USEFUL:          0 USELESS:          0
cpu3_ITLB AVERAGE MISS LATENCY: 1231 cycles
cpu3_ITLB TOTAL        ACCESS:          0 HIT:          0 MISS:          0
cpu3_ITLB LOAD         ACCESS:          0 HIT:          0 MISS:          0
cpu3_ITLB RFO          ACCESS:          0 HIT:          0 MISS:          0
cpu3_ITLB PREFETCH     ACCESS:          0 HIT:          0 MISS:          0
cpu3_ITLB WRITE        ACCESS:          0 HIT:          0 MISS:          0
cpu3_ITLB TRANSLATION  ACCESS:          0 HIT:          0 MISS:          0
cpu3_ITLB PREFETCH REQUESTED:          0 ISSUED:          0 USEFUL:          0 USELESS:          0
cpu3_ITLB AVERAGE MISS LATENCY: 1231 cycles
cpu3_ITLB TOTAL        ACCESS:    3367246 HIT:    3367031 MISS:        215
cpu3_ITLB LOAD         ACCESS:    3367246 HIT:    3367031 MISS:        215
cpu3_ITLB RFO          ACCESS:          0 HIT:          0 MISS:          0
cpu3_ITLB PREFETCH     ACCESS:          0 HIT:          0 MISS:          0
cpu3_ITLB WRITE        ACCESS:          0 HIT:          0 MISS:          0
cpu3_ITLB TRANSLATION  ACCESS:          0 HIT:          0 MISS:          0
cpu3_ITLB PREFETCH REQUESTED:          0 ISSUED:          0 USEFUL:          0 USELESS:          0
cpu3_ITLB AVERAGE MISS LATENCY: 1231 cycles
cpu3_L1D TOTAL        ACCESS:          0 HIT:          0 MISS:          0
cpu3_L1D LOAD         ACCESS:          0 HIT:          0 MISS:          0
cpu3_L1D RFO          ACCESS:          0 HIT:          0 MISS:          0
cpu3_L1D PREFETCH     ACCESS:          0 HIT:          0 MISS:          0
cpu3_L1D WRITE        ACCESS:          0 HIT:          0 MISS:          0
cpu3_L1D TRANSLATION  ACCESS:          0 HIT:          0 MISS:          0
cpu3_L1D PREFETCH REQUESTED:          0 ISSUED:          0 USEFUL:          0 USELESS:          0
cpu3_L1D AVERAGE MISS LATENCY: 283.4 cycles
cpu3_L1D TOTAL        ACCESS:          0 HIT:          0 MISS:          0
cpu3_L1D LOAD         ACCESS:          0 HIT:          0 MISS:          0
cpu3_L1D RFO          ACCESS:          0 HIT:          0 MISS:          0
cpu3_L1D PREFETCH     ACCESS:          0 HIT:          0 MISS:          0
cpu3_L1D WRITE        ACCESS:          0 HIT:          0 MISS:          0
cpu3_L1D TRANSLATION  ACCESS:          0 HIT:          0 MISS:          0
cpu3_L1D PREFETCH REQUESTED:          0 ISSUED:          0 USEFUL:          0 USELESS:          0
cpu3_L1D AVERAGE MISS LATENCY: 283.4 cycles
cpu3_L1D TOTAL        ACCESS:          0 HIT:          0 MISS:          0
cpu3_L1D LOAD         ACCESS:          0 HIT:          0 MISS:          0
cpu3_L1D RFO          ACCESS:          0 HIT:          0 MISS:          0
cpu3_L1D PREFETCH     ACCESS:          0 HIT:          0 MISS:          0
cpu3_L1D WRITE        ACCESS:          0 HIT:          0 MISS:          0
cpu3_L1D TRANSLATION  ACCESS:          0 HIT:          0 MISS:          0
cpu3_L1D PREFETCH REQUESTED:          0 ISSUED:          0 USEFUL:          0 USELESS:          0
cpu3_L1D AVERAGE MISS LATENCY: 283.4 cycles
cpu3_L1D TOTAL        ACCESS:   73731430 HIT:   69926655 MISS:    3804775
cpu3_L1D LOAD         ACCESS:   46537963 HIT:   45359878 MISS:    1178085
cpu3_L1D RFO          ACCESS:          0 HIT:          0 MISS:          0
cpu3_L1D PREFETCH     ACCESS:          0 HIT:          0 MISS:          0
cpu3_L1D WRITE        ACCESS:   27188086 HIT:   24564773 MISS:    2623313
cpu3_L1D TRANSLATION  ACCESS:       5381 HIT:       2004 MISS:       3377
cpu3_L1D PREFETCH REQUESTED:          0 ISSUED:          0 USEFUL:          0 USELESS:          0
cpu3_L1D AVERAGE MISS LATENCY: 283.4 cycles
cpu3_L1I TOTAL        ACCESS:          0 HIT:          0 MISS:          0
cpu3_L1I LOAD         ACCESS:          0 HIT:          0 MISS:          0
cpu3_L1I RFO          ACCESS:          0 HIT:          0 MISS:          0
cpu3_L1I PREFETCH     ACCESS:          0 HIT:          0 MISS:          0
cpu3_L1I WRITE        ACCESS:          0 HIT:          0 MISS:          0
cpu3_L1I TRANSLATION  ACCESS:          0 HIT:          0 MISS:          0
cpu3_L1I PREFETCH REQUESTED:          0 ISSUED:          0 USEFUL:          0 USELESS:          0
cpu3_L1I AVERAGE MISS LATENCY: 25.14 cycles
cpu3_L1I TOTAL        ACCESS:          0 HIT:          0 MISS:          0
cpu3_L1I LOAD         ACCESS:          0 HIT:          0 MISS:          0
cpu3_L1I RFO          ACCESS:          0 HIT:          0 MISS:          0
cpu3_L1I PREFETCH     ACCESS:          0 HIT:          0 MISS:          0
cpu3_L1I WRITE        ACCESS:          0 HIT:          0 MISS:          0
cpu3_L1I TRANSLATION  ACCESS:          0 HIT:          0 MISS:          0
cpu3_L1I PREFETCH REQUESTED:          0 ISSUED:          0 USEFUL:          0 USELESS:          0
cpu3_L1I AVERAGE MISS LATENCY: 25.14 cycles
cpu3_L1I TOTAL        ACCESS:          0 HIT:          0 MISS:          0
cpu3_L1I LOAD         ACCESS:          0 HIT:          0 MISS:          0
cpu3_L1I RFO          ACCESS:          0 HIT:          0 MISS:          0
cpu3_L1I PREFETCH     ACCESS:          0 HIT:          0 MISS:          0
cpu3_L1I WRITE        ACCESS:          0 HIT:          0 MISS:          0
cpu3_L1I TRANSLATION  ACCESS:          0 HIT:          0 MISS:          0
cpu3_L1I PREFETCH REQUESTED:          0 ISSUED:          0 USEFUL:          0 USELESS:          0
cpu3_L1I AVERAGE MISS LATENCY: 25.14 cycles
cpu3_L1I TOTAL        ACCESS:    4161077 HIT:    3351551 MISS:     809526
cpu3_L1I LOAD         ACCESS:    4161077 HIT:    3351551 MISS:     809526
cpu3_L1I RFO          ACCESS:          0 HIT:          0 MISS:          0
cpu3_L1I PREFETCH     ACCESS:          0 HIT:          0 MISS:          0
cpu3_L1I WRITE        ACCESS:          0 HIT:          0 MISS:          0
cpu3_L1I TRANSLATION  ACCESS:          0 HIT:          0 MISS:          0
cpu3_L1I PREFETCH REQUESTED:          0 ISSUED:          0 USEFUL:          0 USELESS:          0
cpu3_L1I AVERAGE MISS LATENCY: 25.14 cycles
cpu3_L2C TOTAL        ACCESS:          0 HIT:          0 MISS:          0
cpu3_L2C LOAD         ACCESS:          0 HIT:          0 MISS:          0
cpu3_L2C RFO          ACCESS:          0 HIT:          0 MISS:          0
cpu3_L2C PREFETCH     ACCESS:          0 HIT:          0 MISS:          0
cpu3_L2C WRITE        ACCESS:          0 HIT:          0 MISS:          0
cpu3_L2C TRANSLATION  ACCESS:          0 HIT:          0 MISS:          0
cpu3_L2C PREFETCH REQUESTED:          0 ISSUED:          0 USEFUL:          0 USELESS:          0
cpu3_L2C AVERAGE MISS LATENCY: 2827 cycles
cpu3_L2C TOTAL        ACCESS:          0 HIT:          0 MISS:          0
cpu3_L2C LOAD         ACCESS:          0 HIT:          0 MISS:          0
cpu3_L2C RFO          ACCESS:          0 HIT:          0 MISS:          0
cpu3_L2C PREFETCH     ACCESS:          0 HIT:          0 MISS:          0
cpu3_L2C WRITE        ACCESS:          0 HIT:          0 MISS:          0
cpu3_L2C TRANSLATION  ACCESS:          0 HIT:          0 MISS:          0
cpu3_L2C PREFETCH REQUESTED:          0 ISSUED:          0 USEFUL:          0 USELESS:          0
cpu3_L2C AVERAGE MISS LATENCY: 2827 cycles
cpu3_L2C TOTAL        ACCESS:          0 HIT:          0 MISS:          0
cpu3_L2C LOAD         ACCESS:          0 HIT:          0 MISS:          0
cpu3_L2C RFO          ACCESS:          0 HIT:          0 MISS:          0
cpu3_L2C PREFETCH     ACCESS:          0 HIT:          0 MISS:          0
cpu3_L2C WRITE        ACCESS:          0 HIT:          0 MISS:          0
cpu3_L2C TRANSLATION  ACCESS:          0 HIT:          0 MISS:          0
cpu3_L2C PREFETCH REQUESTED:          0 ISSUED:          0 USEFUL:          0 USELESS:          0
cpu3_L2C AVERAGE MISS LATENCY: 2827 cycles
cpu3_L2C TOTAL        ACCESS:    3146356 HIT:    2693371 MISS:     452985
cpu3_L2C LOAD         ACCESS:    1443328 HIT:    1248817 MISS:     194511
cpu3_L2C RFO          ACCESS:     779861 HIT:     523154 MISS:     256707
cpu3_L2C PREFETCH     ACCESS:          0 HIT:          0 MISS:          0
cpu3_L2C WRITE        ACCESS:     920275 HIT:     920022 MISS:        253
cpu3_L2C TRANSLATION  ACCESS:       2892 HIT:       1378 MISS:       1514
cpu3_L2C PREFETCH REQUESTED:          0 ISSUED:          0 USEFUL:          0 USELESS:          0
cpu3_L2C AVERAGE MISS LATENCY: 2827 cycles
cpu3_STLB TOTAL        ACCESS:          0 HIT:          0 MISS:          0
cpu3_STLB LOAD         ACCESS:          0 HIT:          0 MISS:          0
cpu3_STLB RFO          ACCESS:          0 HIT:          0 MISS:          0
cpu3_STLB PREFETCH     ACCESS:          0 HIT:          0 MISS:          0
cpu3_STLB WRITE        ACCESS:          0 HIT:          0 MISS:          0
cpu3_STLB TRANSLATION  ACCESS:          0 HIT:          0 MISS:          0
cpu3_STLB PREFETCH REQUESTED:          0 ISSUED:          0 USEFUL:          0 USELESS:          0
cpu3_STLB AVERAGE MISS LATENCY: 1096 cycles
cpu3_STLB TOTAL        ACCESS:          0 HIT:          0 MISS:          0
cpu3_STLB LOAD         ACCESS:          0 HIT:          0 MISS:          0
cpu3_STLB RFO          ACCESS:          0 HIT:          0 MISS:          0
cpu3_STLB PREFETCH     ACCESS:          0 HIT:          0 MISS:          0
cpu3_STLB WRITE        ACCESS:          0 HIT:          0 MISS:          0
cpu3_STLB TRANSLATION  ACCESS:          0 HIT:          0 MISS:          0
cpu3_STLB PREFETCH REQUESTED:          0 ISSUED:          0 USEFUL:          0 USELESS:          0
cpu3_STLB AVERAGE MISS LATENCY: 1096 cycles
[...]
cpu2_L1I WRITE        ACCESS:          0 HIT:          0 MISS:          0
cpu2_L1I TRANSLATION  ACCESS:          0 HIT:          0 MISS:          0
cpu2_L1I PREFETCH REQUESTED:          0 ISSUED:          0 USEFUL:          0 USELESS:          0
cpu2_L1I AVERAGE MISS LATENCY: 91.61 cycles
cpu2_L1I TOTAL        ACCESS:          0 HIT:          0 MISS:          0
cpu2_L1I LOAD         ACCESS:          0 HIT:          0 MISS:          0
cpu2_L1I RFO          ACCESS:          0 HIT:          0 MISS:          0
cpu2_L1I PREFETCH     ACCESS:          0 HIT:          0 MISS:          0
cpu2_L1I WRITE        ACCESS:          0 HIT:          0 MISS:          0
cpu2_L1I TRANSLATION  ACCESS:          0 HIT:          0 MISS:          0
cpu2_L1I PREFETCH REQUESTED:          0 ISSUED:          0 USEFUL:          0 USELESS:          0
cpu2_L1I AVERAGE MISS LATENCY: 91.61 cycles
cpu2_L2C TOTAL        ACCESS:          0 HIT:          0 MISS:          0
cpu2_L2C LOAD         ACCESS:          0 HIT:          0 MISS:          0
cpu2_L2C RFO          ACCESS:          0 HIT:          0 MISS:          0
cpu2_L2C PREFETCH     ACCESS:          0 HIT:          0 MISS:          0
cpu2_L2C WRITE        ACCESS:          0 HIT:          0 MISS:          0
cpu2_L2C TRANSLATION  ACCESS:          0 HIT:          0 MISS:          0
cpu2_L2C PREFETCH REQUESTED:          0 ISSUED:          0 USEFUL:          0 USELESS:          0
cpu2_L2C AVERAGE MISS LATENCY: 1680 cycles
cpu2_L2C TOTAL        ACCESS:          0 HIT:          0 MISS:          0
cpu2_L2C LOAD         ACCESS:          0 HIT:          0 MISS:          0
cpu2_L2C RFO          ACCESS:          0 HIT:          0 MISS:          0
cpu2_L2C PREFETCH     ACCESS:          0 HIT:          0 MISS:          0
cpu2_L2C WRITE        ACCESS:          0 HIT:          0 MISS:          0
cpu2_L2C TRANSLATION  ACCESS:          0 HIT:          0 MISS:          0
cpu2_L2C PREFETCH REQUESTED:          0 ISSUED:          0 USEFUL:          0 USELESS:          0
cpu2_L2C AVERAGE MISS LATENCY: 1680 cycles
cpu2_L2C TOTAL        ACCESS:    2994771 HIT:    2096328 MISS:     898443
cpu2_L2C LOAD         ACCESS:    1327571 HIT:     750967 MISS:     576604
cpu2_L2C RFO          ACCESS:     718587 HIT:     401141 MISS:     317446
cpu2_L2C PREFETCH     ACCESS:          0 HIT:          0 MISS:          0
cpu2_L2C WRITE        ACCESS:     942671 HIT:     942076 MISS:        595
cpu2_L2C TRANSLATION  ACCESS:       5942 HIT:       2144 MISS:       3798
cpu2_L2C PREFETCH REQUESTED:          0 ISSUED:          0 USEFUL:          0 USELESS:          0
cpu2_L2C AVERAGE MISS LATENCY: 1680 cycles
cpu2_L2C TOTAL        ACCESS:          0 HIT:          0 MISS:          0
cpu2_L2C LOAD         ACCESS:          0 HIT:          0 MISS:          0
cpu2_L2C RFO          ACCESS:          0 HIT:          0 MISS:          0
cpu2_L2C PREFETCH     ACCESS:          0 HIT:          0 MISS:          0
cpu2_L2C WRITE        ACCESS:          0 HIT:          0 MISS:          0
cpu2_L2C TRANSLATION  ACCESS:          0 HIT:          0 MISS:          0
cpu2_L2C PREFETCH REQUESTED:          0 ISSUED:          0 USEFUL:          0 USELESS:          0
cpu2_L2C AVERAGE MISS LATENCY: 1680 cycles
cpu2_STLB TOTAL        ACCESS:          0 HIT:          0 MISS:          0
cpu2_STLB LOAD         ACCESS:          0 HIT:          0 MISS:          0
cpu2_STLB RFO          ACCESS:          0 HIT:          0 MISS:          0
cpu2_STLB PREFETCH     ACCESS:          0 HIT:          0 MISS:          0
cpu2_STLB WRITE        ACCESS:          0 HIT:          0 MISS:          0
cpu2_STLB TRANSLATION  ACCESS:          0 HIT:          0 MISS:          0
cpu2_STLB PREFETCH REQUESTED:          0 ISSUED:          0 USEFUL:          0 USELESS:          0
cpu2_STLB AVERAGE MISS LATENCY: 994.8 cycles
cpu2_STLB TOTAL        ACCESS:          0 HIT:          0 MISS:          0
cpu2_STLB LOAD         ACCESS:          0 HIT:          0 MISS:          0
cpu2_STLB RFO          ACCESS:          0 HIT:          0 MISS:          0
cpu2_STLB PREFETCH     ACCESS:          0 HIT:          0 MISS:          0
cpu2_STLB WRITE        ACCESS:          0 HIT:          0 MISS:          0
cpu2_STLB TRANSLATION  ACCESS:          0 HIT:          0 MISS:          0
cpu2_STLB PREFETCH REQUESTED:          0 ISSUED:          0 USEFUL:          0 USELESS:          0
cpu2_STLB AVERAGE MISS LATENCY: 994.8 cycles
cpu2_STLB TOTAL        ACCESS:      63869 HIT:      56628 MISS:       7241
cpu2_STLB LOAD         ACCESS:      63869 HIT:      56628 MISS:       7241
cpu2_STLB RFO          ACCESS:          0 HIT:          0 MISS:          0
cpu2_STLB PREFETCH     ACCESS:          0 HIT:          0 MISS:          0
cpu2_STLB WRITE        ACCESS:          0 HIT:          0 MISS:          0
cpu2_STLB TRANSLATION  ACCESS:          0 HIT:          0 MISS:          0
cpu2_STLB PREFETCH REQUESTED:          0 ISSUED:          0 USEFUL:          0 USELESS:          0
cpu2_STLB AVERAGE MISS LATENCY: 994.8 cycles
cpu2_STLB TOTAL        ACCESS:          0 HIT:          0 MISS:          0
cpu2_STLB LOAD         ACCESS:          0 HIT:          0 MISS:          0
cpu2_STLB RFO          ACCESS:          0 HIT:          0 MISS:          0
cpu2_STLB PREFETCH     ACCESS:          0 HIT:          0 MISS:          0
cpu2_STLB WRITE        ACCESS:          0 HIT:          0 MISS:          0
cpu2_STLB TRANSLATION  ACCESS:          0 HIT:          0 MISS:          0
cpu2_STLB PREFETCH REQUESTED:          0 ISSUED:          0 USEFUL:          0 USELESS:          0
cpu2_STLB AVERAGE MISS LATENCY: 994.8 cycles
cpu3_DTLB TOTAL        ACCESS:          0 HIT:          0 MISS:          0
cpu3_DTLB LOAD         ACCESS:          0 HIT:          0 MISS:          0
cpu3_DTLB RFO          ACCESS:          0 HIT:          0 MISS:          0
cpu3_DTLB PREFETCH     ACCESS:          0 HIT:          0 MISS:          0
cpu3_DTLB WRITE        ACCESS:          0 HIT:          0 MISS:          0
cpu3_DTLB TRANSLATION  ACCESS:          0 HIT:          0 MISS:          0
cpu3_DTLB PREFETCH REQUESTED:          0 ISSUED:          0 USEFUL:          0 USELESS:          0
cpu3_DTLB AVERAGE MISS LATENCY: 14.08 cycles
cpu3_DTLB TOTAL        ACCESS:          0 HIT:          0 MISS:          0
cpu3_DTLB LOAD         ACCESS:          0 HIT:          0 MISS:          0
cpu3_DTLB RFO          ACCESS:          0 HIT:          0 MISS:          0
cpu3_DTLB PREFETCH     ACCESS:          0 HIT:          0 MISS:          0
cpu3_DTLB WRITE        ACCESS:          0 HIT:          0 MISS:          0
cpu3_DTLB TRANSLATION  ACCESS:          0 HIT:          0 MISS:          0
cpu3_DTLB PREFETCH REQUESTED:          0 ISSUED:          0 USEFUL:          0 USELESS:          0
cpu3_DTLB AVERAGE MISS LATENCY: 14.08 cycles
cpu3_DTLB TOTAL        ACCESS:          0 HIT:          0 MISS:          0
cpu3_DTLB LOAD         ACCESS:          0 HIT:          0 MISS:          0
cpu3_DTLB RFO          ACCESS:          0 HIT:          0 MISS:          0
cpu3_DTLB PREFETCH     ACCESS:          0 HIT:          0 MISS:          0
cpu3_DTLB WRITE        ACCESS:          0 HIT:          0 MISS:          0
cpu3_DTLB TRANSLATION  ACCESS:          0 HIT:          0 MISS:          0
cpu3_DTLB PREFETCH REQUESTED:          0 ISSUED:          0 USEFUL:          0 USELESS:          0
cpu3_DTLB AVERAGE MISS LATENCY: 14.08 cycles
cpu3_DTLB TOTAL        ACCESS:   17898647 HIT:   17887371 MISS:      11276
cpu3_DTLB LOAD         ACCESS:   17898647 HIT:   17887371 MISS:      11276
cpu3_DTLB RFO          ACCESS:          0 HIT:          0 MISS:          0
cpu3_DTLB PREFETCH     ACCESS:          0 HIT:          0 MISS:          0
cpu3_DTLB WRITE        ACCESS:          0 HIT:          0 MISS:          0
cpu3_DTLB TRANSLATION  ACCESS:          0 HIT:          0 MISS:          0
cpu3_DTLB PREFETCH REQUESTED:          0 ISSUED:          0 USEFUL:          0 USELESS:          0
cpu3_DTLB AVERAGE MISS LATENCY: 14.08 cycles
cpu3_ITLB TOTAL        ACCESS:          0 HIT:          0 MISS:          0
cpu3_ITLB LOAD         ACCESS:          0 HIT:          0 MISS:          0
cpu3_ITLB RFO          ACCESS:          0 HIT:          0 MISS:          0
cpu3_ITLB PREFETCH     ACCESS:          0 HIT:          0 MISS:          0
cpu3_ITLB WRITE        ACCESS:          0 HIT:          0 MISS:          0
cpu3_ITLB TRANSLATION  ACCESS:          0 HIT:          0 MISS:          0
cpu3_ITLB PREFETCH REQUESTED:          0 ISSUED:          0 USEFUL:          0 USELESS:          0
cpu3_ITLB AVERAGE MISS LATENCY: 1231 cycles
cpu3_ITLB TOTAL        ACCESS:          0 HIT:          0 MISS:          0
cpu3_ITLB LOAD         ACCESS:          0 HIT:          0 MISS:          0
cpu3_ITLB RFO          ACCESS:          0 HIT:          0 MISS:          0
cpu3_ITLB PREFETCH     ACCESS:          0 HIT:          0 MISS:          0
cpu3_ITLB WRITE        ACCESS:          0 HIT:          0 MISS:          0
cpu3_ITLB TRANSLATION  ACCESS:          0 HIT:          0 MISS:          0
cpu3_ITLB PREFETCH REQUESTED:          0 ISSUED:          0 USEFUL:          0 USELESS:          0
cpu3_ITLB AVERAGE MISS LATENCY: 1231 cycles
cpu3_ITLB TOTAL        ACCESS:          0 HIT:          0 MISS:          0
cpu3_ITLB LOAD         ACCESS:          0 HIT:          0 MISS:          0
cpu3_ITLB RFO          ACCESS:          0 HIT:          0 MISS:          0
cpu3_ITLB PREFETCH     ACCESS:          0 HIT:          0 MISS:          0
cpu3_ITLB WRITE        ACCESS:          0 HIT:          0 MISS:          0
cpu3_ITLB TRANSLATION  ACCESS:          0 HIT:          0 MISS:          0
cpu3_ITLB PREFETCH REQUESTED:          0 ISSUED:          0 USEFUL:          0 USELESS:          0
cpu3_ITLB AVERAGE MISS LATENCY: 1231 cycles
cpu3_ITLB TOTAL        ACCESS:     509323 HIT:     509323 MISS:          0
cpu3_ITLB LOAD         ACCESS:     509323 HIT:     509323 MISS:          0
cpu3_ITLB RFO          ACCESS:          0 HIT:          0 MISS:          0
cpu3_ITLB PREFETCH     ACCESS:          0 HIT:          0 MISS:          0
cpu3_ITLB WRITE        ACCESS:          0 HIT:          0 MISS:          0
cpu3_ITLB TRANSLATION  ACCESS:          0 HIT:          0 MISS:          0
cpu3_ITLB PREFETCH REQUESTED:          0 ISSUED:          0 USEFUL:          0 USELESS:          0
cpu3_ITLB AVERAGE MISS LATENCY: 1231 cycles
cpu3_L1D TOTAL        ACCESS:          0 HIT:          0 MISS:          0
cpu3_L1D LOAD         ACCESS:          0 HIT:          0 MISS:          0
cpu3_L1D RFO          ACCESS:          0 HIT:          0 MISS:          0
cpu3_L1D PREFETCH     ACCESS:          0 HIT:          0 MISS:          0
cpu3_L1D WRITE        ACCESS:          0 HIT:          0 MISS:          0
cpu3_L1D TRANSLATION  ACCESS:          0 HIT:          0 MISS:          0
cpu3_L1D PREFETCH REQUESTED:          0 ISSUED:          0 USEFUL:          0 USELESS:          0
cpu3_L1D AVERAGE MISS LATENCY: 283.4 cycles
cpu3_L1D TOTAL        ACCESS:          0 HIT:          0 MISS:          0
cpu3_L1D LOAD         ACCESS:          0 HIT:          0 MISS:          0
cpu3_L1D RFO          ACCESS:          0 HIT:          0 MISS:          0
cpu3_L1D PREFETCH     ACCESS:          0 HIT:          0 MISS:          0
cpu3_L1D WRITE        ACCESS:          0 HIT:          0 MISS:          0
cpu3_L1D TRANSLATION  ACCESS:          0 HIT:          0 MISS:          0
cpu3_L1D PREFETCH REQUESTED:          0 ISSUED:          0 USEFUL:          0 USELESS:          0
cpu3_L1D AVERAGE MISS LATENCY: 283.4 cycles
cpu3_L1D TOTAL        ACCESS:          0 HIT:          0 MISS:          0
cpu3_L1D LOAD         ACCESS:          0 HIT:          0 MISS:          0
cpu3_L1D RFO          ACCESS:          0 HIT:          0 MISS:          0
cpu3_L1D PREFETCH     ACCESS:          0 HIT:          0 MISS:          0
cpu3_L1D WRITE        ACCESS:          0 HIT:          0 MISS:          0
cpu3_L1D TRANSLATION  ACCESS:          0 HIT:          0 MISS:          0
cpu3_L1D PREFETCH REQUESTED:          0 ISSUED:          0 USEFUL:          0 USELESS:          0
cpu3_L1D AVERAGE MISS LATENCY: 283.4 cycles
cpu3_L1D TOTAL        ACCESS:   21963916 HIT:   21947602 MISS:      16314
cpu3_L1D LOAD         ACCESS:   16379408 HIT:   16376164 MISS:       3244
cpu3_L1D RFO          ACCESS:          0 HIT:          0 MISS:          0
cpu3_L1D PREFETCH     ACCESS:          0 HIT:          0 MISS:          0
cpu3_L1D WRITE        ACCESS:    5584330 HIT:    5571419 MISS:      12911
cpu3_L1D TRANSLATION  ACCESS:        178 HIT:         19 MISS:        159
cpu3_L1D PREFETCH REQUESTED:          0 ISSUED:          0 USEFUL:          0 USELESS:          0
cpu3_L1D AVERAGE MISS LATENCY: 283.4 cycles
cpu3_L1I TOTAL        ACCESS:          0 HIT:          0 MISS:          0
cpu3_L1I LOAD         ACCESS:          0 HIT:          0 MISS:          0
cpu3_L1I RFO          ACCESS:          0 HIT:          0 MISS:          0
cpu3_L1I PREFETCH     ACCESS:          0 HIT:          0 MISS:          0
cpu3_L1I WRITE        ACCESS:          0 HIT:          0 MISS:          0
cpu3_L1I TRANSLATION  ACCESS:          0 HIT:          0 MISS:          0
cpu3_L1I PREFETCH REQUESTED:          0 ISSUED:          0 USEFUL:          0 USELESS:          0
cpu3_L1I AVERAGE MISS LATENCY: 25.14 cycles
cpu3_L1I TOTAL        ACCESS:          0 HIT:          0 MISS:          0
cpu3_L1I LOAD         ACCESS:          0 HIT:          0 MISS:          0
cpu3_L1I RFO          ACCESS:          0 HIT:          0 MISS:          0
cpu3_L1I PREFETCH     ACCESS:          0 HIT:          0 MISS:          0
cpu3_L1I WRITE        ACCESS:          0 HIT:          0 MISS:          0
cpu3_L1I TRANSLATION  ACCESS:          0 HIT:          0 MISS:          0
cpu3_L1I PREFETCH REQUESTED:          0 ISSUED:          0 USEFUL:          0 USELESS:          0
cpu3_L1I AVERAGE MISS LATENCY: 25.14 cycles
cpu3_L1I TOTAL        ACCESS:          0 HIT:          0 MISS:          0
cpu3_L1I LOAD         ACCESS:          0 HIT:          0 MISS:          0
cpu3_L1I RFO          ACCESS:          0 HIT:          0 MISS:          0
cpu3_L1I PREFETCH     ACCESS:          0 HIT:          0 MISS:          0
cpu3_L1I WRITE        ACCESS:          0 HIT:          0 MISS:          0
cpu3_L1I TRANSLATION  ACCESS:          0 HIT:          0 MISS:          0
cpu3_L1I PREFETCH REQUESTED:          0 ISSUED:          0 USEFUL:          0 USELESS:          0
cpu3_L1I AVERAGE MISS LATENCY: 25.14 cycles
cpu3_L1I TOTAL        ACCESS:     563667 HIT:     562167 MISS:       1500
cpu3_L1I LOAD         ACCESS:     563667 HIT:     562167 MISS:       1500
cpu3_L1I RFO          ACCESS:          0 HIT:          0 MISS:          0
cpu3_L1I PREFETCH     ACCESS:          0 HIT:          0 MISS:          0
cpu3_L1I WRITE        ACCESS:          0 HIT:          0 MISS:          0
cpu3_L1I TRANSLATION  ACCESS:          0 HIT:          0 MISS:          0
cpu3_L1I PREFETCH REQUESTED:          0 ISSUED:          0 USEFUL:          0 USELESS:          0
cpu3_L1I AVERAGE MISS LATENCY: 25.14 cycles
cpu3_L2C TOTAL        ACCESS:          0 HIT:          0 MISS:          0
cpu3_L2C LOAD         ACCESS:          0 HIT:          0 MISS:          0
cpu3_L2C RFO          ACCESS:          0 HIT:          0 MISS:          0
cpu3_L2C PREFETCH     ACCESS:          0 HIT:          0 MISS:          0
cpu3_L2C WRITE        ACCESS:          0 HIT:          0 MISS:          0
cpu3_L2C TRANSLATION  ACCESS:          0 HIT:          0 MISS:          0
cpu3_L2C PREFETCH REQUESTED:          0 ISSUED:          0 USEFUL:          0 USELESS:          0
cpu3_L2C AVERAGE MISS LATENCY: 2827 cycles
cpu3_L2C TOTAL        ACCESS:          0 HIT:          0 MISS:          0
cpu3_L2C LOAD         ACCESS:          0 HIT:          0 MISS:          0
cpu3_L2C RFO          ACCESS:          0 HIT:          0 MISS:          0
cpu3_L2C PREFETCH     ACCESS:          0 HIT:          0 MISS:          0
cpu3_L2C WRITE        ACCESS:          0 HIT:          0 MISS:          0
cpu3_L2C TRANSLATION  ACCESS:          0 HIT:          0 MISS:          0
cpu3_L2C PREFETCH REQUESTED:          0 ISSUED:          0 USEFUL:          0 USELESS:          0
cpu3_L2C AVERAGE MISS LATENCY: 2827 cycles
cpu3_L2C TOTAL        ACCESS:          0 HIT:          0 MISS:          0
cpu3_L2C LOAD         ACCESS:          0 HIT:          0 MISS:          0
cpu3_L2C RFO          ACCESS:          0 HIT:          0 MISS:          0
cpu3_L2C PREFETCH     ACCESS:          0 HIT:          0 MISS:          0
cpu3_L2C WRITE        ACCESS:          0 HIT:          0 MISS:          0
cpu3_L2C TRANSLATION  ACCESS:          0 HIT:          0 MISS:          0
cpu3_L2C PREFETCH REQUESTED:          0 ISSUED:          0 USEFUL:          0 USELESS:          0
cpu3_L2C AVERAGE MISS LATENCY: 2827 cycles
cpu3_L2C TOTAL        ACCESS:       8981 HIT:       4593 MISS:       4388
cpu3_L2C LOAD         ACCESS:       2934 HIT:       1273 MISS:       1661
cpu3_L2C RFO          ACCESS:       2693 HIT:         70 MISS:       2623
cpu3_L2C PREFETCH     ACCESS:          0 HIT:          0 MISS:          0
cpu3_L2C WRITE        ACCESS:       3195 HIT:       3192 MISS:          3
cpu3_L2C TRANSLATION  ACCESS:        159 HIT:         58 MISS:        101
cpu3_L2C PREFETCH REQUESTED:          0 ISSUED:          0 USEFUL:          0 USELESS:          0
cpu3_L2C AVERAGE MISS LATENCY: 2827 cycles
cpu3_STLB TOTAL        ACCESS:          0 HIT:          0 MISS:          0
cpu3_STLB LOAD         ACCESS:          0 HIT:          0 MISS:          0
cpu3_STLB RFO          ACCESS:          0 HIT:          0 MISS:          0
cpu3_STLB PREFETCH     ACCESS:          0 HIT:          0 MISS:          0
cpu3_STLB WRITE        ACCESS:          0 HIT:          0 MISS:          0
cpu3_STLB TRANSLATION  ACCESS:          0 HIT:          0 MISS:          0
cpu3_STLB PREFETCH REQUESTED:          0 ISSUED:          0 USEFUL:          0 USELESS:          0
cpu3_STLB AVERAGE MISS LATENCY: 1096 cycles
cpu3_STLB TOTAL        ACCESS:          0 HIT:          0 MISS:          0
cpu3_STLB LOAD         ACCESS:          0 HIT:          0 MISS:          0
cpu3_STLB RFO          ACCESS:          0 HIT:          0 MISS:          0
cpu3_STLB PREFETCH     ACCESS:          0 HIT:          0 MISS:          0
cpu3_STLB WRITE        ACCESS:          0 HIT:          0 MISS:          0
cpu3_STLB TRANSLATION  ACCESS:          0 HIT:          0 MISS:          0
cpu3_STLB PREFETCH REQUESTED:          0 ISSUED:          0 USEFUL:          0 USELESS:          0
cpu3_STLB AVERAGE MISS LATENCY: 1096 cycles
cpu3_STLB TOTAL        ACCESS:          0 HIT:          0 MISS:          0
cpu3_STLB LOAD         ACCESS:          0 HIT:          0 MISS:          0
cpu3_STLB RFO          ACCESS:          0 HIT:          0 MISS:          0
cpu3_STLB PREFETCH     ACCESS:          0 HIT:          0 MISS:          0
cpu3_STLB WRITE        ACCESS:          0 HIT:          0 MISS:          0
cpu3_STLB TRANSLATION  ACCESS:          0 HIT:          0 MISS:          0
cpu3_STLB PREFETCH REQUESTED:          0 ISSUED:          0 USEFUL:          0 USELESS:          0
cpu3_STLB AVERAGE MISS LATENCY: 1096 cycles
cpu3_STLB TOTAL        ACCESS:       9946 HIT:       9769 MISS:        177
cpu3_STLB LOAD         ACCESS:       9946 HIT:       9769 MISS:        177
cpu3_STLB RFO          ACCESS:          0 HIT:          0 MISS:          0
cpu3_STLB PREFETCH     ACCESS:          0 HIT:          0 MISS:          0
cpu3_STLB WRITE        ACCESS:          0 HIT:          0 MISS:          0
cpu3_STLB TRANSLATION  ACCESS:          0 HIT:          0 MISS:          0
cpu3_STLB PREFETCH REQUESTED:          0 ISSUED:          0 USEFUL:          0 USELESS:          0
cpu3_STLB AVERAGE MISS LATENCY: 1096 cycles

DRAM Statistics

Channel 0 RQ ROW_BUFFER_HIT:    1062689
  ROW_BUFFER_MISS:    2801777
 AVG DBUS CONGESTED CYCLE: 3.984
WQ ROW_BUFFER_HIT: Channel 0 
  ROW_BUFFER_MISS:     132481
  FULL:    2049938
