WARNING: physical memory size is smaller than virtual memory size.
WARNING: option --warmup_instructions is deprecated. Use --warmup-instructions instead.
WARNING: option --simulation_instructions is deprecated. Use --simulation-instructions instead.

*** ChampSim Multicore Out-of-Order Simulator ***
Warmup Instructions: 50000000
Simulation Instructions: 150000000
Number of CPUs: 4
Page size: 4096

Off-chip DRAM Size: 4 GiB Channels: 1 Width: 64-bit Data Race: 3200 MT/s
Heartbeat CPU 3 instructions: 10000001 cycles: 2653252 heartbeat IPC: 3.769 cumulative IPC: 3.769 (Simulation time: 00 hr 02 min 20 sec)
Heartbeat CPU 2 instructions: 10000002 cycles: 3015066 heartbeat IPC: 3.317 cumulative IPC: 3.317 (Simulation time: 00 hr 02 min 39 sec)
Heartbeat CPU 1 instructions: 10000002 cycles: 3683226 heartbeat IPC: 2.715 cumulative IPC: 2.715 (Simulation time: 00 hr 03 min 18 sec)
Heartbeat CPU 0 instructions: 10000001 cycles: 4173591 heartbeat IPC: 2.396 cumulative IPC: 2.396 (Simulation time: 00 hr 03 min 45 sec)
Heartbeat CPU 3 instructions: 20000003 cycles: 5306353 heartbeat IPC: 3.769 cumulative IPC: 3.769 (Simulation time: 00 hr 04 min 45 sec)
Heartbeat CPU 2 instructions: 20000000 cycles: 6038927 heartbeat IPC: 3.307 cumulative IPC: 3.312 (Simulation time: 00 hr 05 min 26 sec)
Heartbeat CPU 1 instructions: 20000004 cycles: 7362717 heartbeat IPC: 2.718 cumulative IPC: 2.716 (Simulation time: 00 hr 06 min 35 sec)
Heartbeat CPU 3 instructions: 30000003 cycles: 7959758 heartbeat IPC: 3.769 cumulative IPC: 3.769 (Simulation time: 00 hr 07 min 06 sec)
Heartbeat CPU 0 instructions: 20000000 cycles: 8345221 heartbeat IPC: 2.397 cumulative IPC: 2.397 (Simulation time: 00 hr 07 min 27 sec)
Heartbeat CPU 2 instructions: 30000000 cycles: 9054666 heartbeat IPC: 3.316 cumulative IPC: 3.313 (Simulation time: 00 hr 08 min 05 sec)
Heartbeat CPU 3 instructions: 40000000 cycles: 10612614 heartbeat IPC: 3.77 cumulative IPC: 3.769 (Simulation time: 00 hr 09 min 33 sec)
Heartbeat CPU 1 instructions: 30000001 cycles: 11044481 heartbeat IPC: 2.716 cumulative IPC: 2.716 (Simulation time: 00 hr 09 min 55 sec)
Heartbeat CPU 2 instructions: 40000002 cycles: 12068199 heartbeat IPC: 3.318 cumulative IPC: 3.314 (Simulation time: 00 hr 10 min 52 sec)
Heartbeat CPU 0 instructions: 30000001 cycles: 12517353 heartbeat IPC: 2.397 cumulative IPC: 2.397 (Simulation time: 00 hr 11 min 16 sec)
Heartbeat CPU 3 instructions: 50000001 cycles: 13266660 heartbeat IPC: 3.768 cumulative IPC: 3.769 (Simulation time: 00 hr 11 min 58 sec)
Warmup finished CPU 3 instructions: 50000001 cycles: 13266661 cumulative IPC: 3.769 (Simulation time: 00 hr 11 min 58 sec)
Heartbeat CPU 1 instructions: 40000001 cycles: 14725012 heartbeat IPC: 2.717 cumulative IPC: 2.716 (Simulation time: 00 hr 13 min 19 sec)
Heartbeat CPU 2 instructions: 50000004 cycles: 15071724 heartbeat IPC: 3.329 cumulative IPC: 3.317 (Simulation time: 00 hr 13 min 38 sec)
Warmup finished CPU 2 instructions: 50000004 cycles: 15071725 cumulative IPC: 3.317 (Simulation time: 00 hr 13 min 38 sec)
Heartbeat CPU 3 instructions: 60000000 cycles: 15922941 heartbeat IPC: 3.765 cumulative IPC: 3.768 (Simulation time: 00 hr 14 min 25 sec)
Heartbeat CPU 0 instructions: 40000000 cycles: 16704929 heartbeat IPC: 2.388 cumulative IPC: 2.395 (Simulation time: 00 hr 15 min 10 sec)
Heartbeat CPU 2 instructions: 60000002 cycles: 18088707 heartbeat IPC: 3.315 cumulative IPC: 3.317 (Simulation time: 00 hr 16 min 30 sec)
Heartbeat CPU 1 instructions: 50000002 cycles: 18404843 heartbeat IPC: 2.718 cumulative IPC: 2.717 (Simulation time: 00 hr 16 min 47 sec)
Warmup finished CPU 1 instructions: 50000002 cycles: 18404844 cumulative IPC: 2.717 (Simulation time: 00 hr 16 min 47 sec)
Heartbeat CPU 3 instructions: 70000000 cycles: 18584735 heartbeat IPC: 3.757 cumulative IPC: 3.767 (Simulation time: 00 hr 16 min 58 sec)
Heartbeat CPU 0 instructions: 50000003 cycles: 20872398 heartbeat IPC: 2.4 cumulative IPC: 2.396 (Simulation time: 00 hr 18 min 56 sec)
Warmup finished CPU 0 instructions: 50000003 cycles: 20872399 cumulative IPC: 2.396 (Simulation time: 00 hr 18 min 56 sec)
Warmup complete CPU 0 instructions: 50000003 cycles: 20872399 cumulative IPC: 2.396 (Simulation time: 00 hr 18 min 56 sec)
Warmup complete CPU 1 instructions: 56459578 cycles: 20872399 cumulative IPC: 2.705 (Simulation time: 00 hr 18 min 56 sec)
Warmup complete CPU 2 instructions: 69226873 cycles: 20872399 cumulative IPC: 3.317 (Simulation time: 00 hr 18 min 56 sec)
Warmup complete CPU 3 instructions: 78822875 cycles: 20872399 cumulative IPC: 3.776 (Simulation time: 00 hr 18 min 56 sec)
Heartbeat CPU 3 instructions: 80000000 cycles: 22452697 heartbeat IPC: 2.585 cumulative IPC: 0.7449 (Simulation time: 00 hr 19 min 39 sec)
Heartbeat CPU 2 instructions: 70000000 cycles: 25077911 heartbeat IPC: 1.431 cumulative IPC: 0.1838 (Simulation time: 00 hr 20 min 51 sec)
Heartbeat CPU 1 instructions: 60000002 cycles: 25480778 heartbeat IPC: 1.413 cumulative IPC: 0.7683 (Simulation time: 00 hr 21 min 00 sec)
Heartbeat CPU 3 instructions: 90000001 cycles: 29580205 heartbeat IPC: 1.403 cumulative IPC: 1.284 (Simulation time: 00 hr 22 min 53 sec)
Heartbeat CPU 3 instructions: 100000002 cycles: 39152556 heartbeat IPC: 1.045 cumulative IPC: 1.158 (Simulation time: 00 hr 27 min 03 sec)
Heartbeat CPU 1 instructions: 70000000 cycles: 40195719 heartbeat IPC: 0.6796 cumulative IPC: 0.7007 (Simulation time: 00 hr 27 min 30 sec)
Heartbeat CPU 3 instructions: 110000001 cycles: 49076774 heartbeat IPC: 1.008 cumulative IPC: 1.105 (Simulation time: 00 hr 31 min 16 sec)
Heartbeat CPU 1 instructions: 80000000 cycles: 58243309 heartbeat IPC: 0.5541 cumulative IPC: 0.6299 (Simulation time: 00 hr 35 min 05 sec)
Heartbeat CPU 3 instructions: 120000003 cycles: 60232359 heartbeat IPC: 0.8964 cumulative IPC: 1.046 (Simulation time: 00 hr 35 min 57 sec)
Heartbeat CPU 3 instructions: 130000000 cycles: 68199058 heartbeat IPC: 1.255 cumulative IPC: 1.081 (Simulation time: 00 hr 39 min 15 sec)
Heartbeat CPU 1 instructions: 90000003 cycles: 73782017 heartbeat IPC: 0.6436 cumulative IPC: 0.6339 (Simulation time: 00 hr 41 min 23 sec)
Heartbeat CPU 3 instructions: 140000003 cycles: 74439274 heartbeat IPC: 1.603 cumulative IPC: 1.142 (Simulation time: 00 hr 41 min 43 sec)
Heartbeat CPU 3 instructions: 150000001 cycles: 82140900 heartbeat IPC: 1.298 cumulative IPC: 1.162 (Simulation time: 00 hr 45 min 13 sec)
Heartbeat CPU 0 instructions: 60000003 cycles: 88796103 heartbeat IPC: 0.1472 cumulative IPC: 0.1472 (Simulation time: 00 hr 47 min 56 sec)
Heartbeat CPU 1 instructions: 100000001 cycles: 89037536 heartbeat IPC: 0.6555 cumulative IPC: 0.6387 (Simulation time: 00 hr 48 min 02 sec)
Heartbeat CPU 3 instructions: 160000000 cycles: 89527688 heartbeat IPC: 1.354 cumulative IPC: 1.182 (Simulation time: 00 hr 48 min 16 sec)
Heartbeat CPU 3 instructions: 170000000 cycles: 96701097 heartbeat IPC: 1.394 cumulative IPC: 1.202 (Simulation time: 00 hr 51 min 29 sec)
Heartbeat CPU 1 instructions: 110000003 cycles: 103100375 heartbeat IPC: 0.7111 cumulative IPC: 0.6511 (Simulation time: 00 hr 54 min 18 sec)
Heartbeat CPU 3 instructions: 180000003 cycles: 108322507 heartbeat IPC: 0.8605 cumulative IPC: 1.157 (Simulation time: 00 hr 56 min 35 sec)
Heartbeat CPU 1 instructions: 120000004 cycles: 116335804 heartbeat IPC: 0.7555 cumulative IPC: 0.6656 (Simulation time: 01 hr 00 min 00 sec)
Heartbeat CPU 3 instructions: 190000004 cycles: 117950448 heartbeat IPC: 1.039 cumulative IPC: 1.145 (Simulation time: 01 hr 00 min 45 sec)
Heartbeat CPU 2 instructions: 80000000 cycles: 118946183 heartbeat IPC: 0.1065 cumulative IPC: 0.1098 (Simulation time: 01 hr 01 min 12 sec)
Heartbeat CPU 3 instructions: 200000004 cycles: 127646523 heartbeat IPC: 1.031 cumulative IPC: 1.135 (Simulation time: 01 hr 04 min 53 sec)
Heartbeat CPU 1 instructions: 130000004 cycles: 129424090 heartbeat IPC: 0.764 cumulative IPC: 0.6775 (Simulation time: 01 hr 05 min 41 sec)
Heartbeat CPU 3 instructions: 210000000 cycles: 137197728 heartbeat IPC: 1.047 cumulative IPC: 1.128 (Simulation time: 01 hr 09 min 18 sec)
Heartbeat CPU 0 instructions: 70000004 cycles: 141575213 heartbeat IPC: 0.1895 cumulative IPC: 0.1657 (Simulation time: 01 hr 11 min 12 sec)
Heartbeat CPU 1 instructions: 140000002 cycles: 142533676 heartbeat IPC: 0.7628 cumulative IPC: 0.6867 (Simulation time: 01 hr 11 min 38 sec)
Heartbeat CPU 3 instructions: 220000004 cycles: 146816647 heartbeat IPC: 1.04 cumulative IPC: 1.121 (Simulation time: 01 hr 13 min 36 sec)
Simulation finished CPU 3 instructions: 150000000 cycles: 134316529 cumulative IPC: 1.117 (Simulation time: 01 hr 17 min 19 sec)
Heartbeat CPU 1 instructions: 150000004 cycles: 155691442 heartbeat IPC: 0.76 cumulative IPC: 0.6938 (Simulation time: 01 hr 17 min 33 sec)
Heartbeat CPU 3 instructions: 230000004 cycles: 156311225 heartbeat IPC: 1.053 cumulative IPC: 1.116 (Simulation time: 01 hr 17 min 49 sec)
Heartbeat CPU 3 instructions: 240000000 cycles: 165985359 heartbeat IPC: 1.034 cumulative IPC: 1.111 (Simulation time: 01 hr 22 min 07 sec)
Heartbeat CPU 1 instructions: 160000004 cycles: 168862833 heartbeat IPC: 0.7592 cumulative IPC: 0.6996 (Simulation time: 01 hr 23 min 20 sec)
Heartbeat CPU 3 instructions: 250000000 cycles: 175060080 heartbeat IPC: 1.102 cumulative IPC: 1.11 (Simulation time: 01 hr 26 min 09 sec)
Heartbeat CPU 1 instructions: 170000003 cycles: 182239523 heartbeat IPC: 0.7476 cumulative IPC: 0.7036 (Simulation time: 01 hr 29 min 14 sec)
Heartbeat CPU 3 instructions: 260000003 cycles: 184251502 heartbeat IPC: 1.088 cumulative IPC: 1.109 (Simulation time: 01 hr 30 min 04 sec)
Heartbeat CPU 3 instructions: 270000001 cycles: 191121293 heartbeat IPC: 1.456 cumulative IPC: 1.123 (Simulation time: 01 hr 33 min 08 sec)
Heartbeat CPU 2 instructions: 90000004 cycles: 195188009 heartbeat IPC: 0.1312 cumulative IPC: 0.1192 (Simulation time: 01 hr 34 min 51 sec)
Heartbeat CPU 1 instructions: 180000001 cycles: 196172783 heartbeat IPC: 0.7177 cumulative IPC: 0.7047 (Simulation time: 01 hr 35 min 20 sec)
Heartbeat CPU 0 instructions: 80000002 cycles: 196234702 heartbeat IPC: 0.183 cumulative IPC: 0.1711 (Simulation time: 01 hr 35 min 22 sec)
Heartbeat CPU 3 instructions: 280000003 cycles: 201053574 heartbeat IPC: 1.007 cumulative IPC: 1.117 (Simulation time: 01 hr 37 min 25 sec)
Heartbeat CPU 3 instructions: 290000002 cycles: 211199184 heartbeat IPC: 0.9856 cumulative IPC: 1.11 (Simulation time: 01 hr 41 min 43 sec)
Heartbeat CPU 1 instructions: 190000002 cycles: 213512094 heartbeat IPC: 0.5767 cumulative IPC: 0.6932 (Simulation time: 01 hr 42 min 46 sec)
Heartbeat CPU 3 instructions: 300000000 cycles: 222348895 heartbeat IPC: 0.8969 cumulative IPC: 1.098 (Simulation time: 01 hr 46 min 23 sec)
Heartbeat CPU 1 instructions: 200000002 cycles: 230169606 heartbeat IPC: 0.6003 cumulative IPC: 0.6858 (Simulation time: 01 hr 49 min 39 sec)
Heartbeat CPU 3 instructions: 310000002 cycles: 230916652 heartbeat IPC: 1.167 cumulative IPC: 1.101 (Simulation time: 01 hr 49 min 59 sec)
Heartbeat CPU 3 instructions: 320000003 cycles: 237730540 heartbeat IPC: 1.468 cumulative IPC: 1.112 (Simulation time: 01 hr 52 min 52 sec)
Simulation finished CPU 1 instructions: 150000001 cycles: 218901175 cumulative IPC: 0.6852 (Simulation time: 01 hr 53 min 51 sec)
Heartbeat CPU 1 instructions: 210000000 cycles: 245553067 heartbeat IPC: 0.65 cumulative IPC: 0.6834 (Simulation time: 01 hr 56 min 11 sec)
Heartbeat CPU 3 instructions: 330000002 cycles: 246581335 heartbeat IPC: 1.13 cumulative IPC: 1.113 (Simulation time: 01 hr 56 min 37 sec)
Heartbeat CPU 3 instructions: 340000000 cycles: 254970423 heartbeat IPC: 1.192 cumulative IPC: 1.116 (Simulation time: 02 hr 00 min 17 sec)
Heartbeat CPU 1 instructions: 220000000 cycles: 259945773 heartbeat IPC: 0.6948 cumulative IPC: 0.6841 (Simulation time: 02 hr 02 min 31 sec)
Heartbeat CPU 3 instructions: 350000000 cycles: 262004331 heartbeat IPC: 1.422 cumulative IPC: 1.125 (Simulation time: 02 hr 03 min 29 sec)
Heartbeat CPU 0 instructions: 90000001 cycles: 263723532 heartbeat IPC: 0.1482 cumulative IPC: 0.1647 (Simulation time: 02 hr 04 min 16 sec)
Heartbeat CPU 2 instructions: 100000000 cycles: 269557028 heartbeat IPC: 0.1345 cumulative IPC: 0.1237 (Simulation time: 02 hr 06 min 37 sec)
Heartbeat CPU 3 instructions: 360000002 cycles: 273746209 heartbeat IPC: 0.8517 cumulative IPC: 1.112 (Simulation time: 02 hr 08 min 30 sec)
Heartbeat CPU 1 instructions: 230000002 cycles: 274144699 heartbeat IPC: 0.7043 cumulative IPC: 0.6852 (Simulation time: 02 hr 08 min 42 sec)
Heartbeat CPU 3 instructions: 370000003 cycles: 283564984 heartbeat IPC: 1.018 cumulative IPC: 1.108 (Simulation time: 02 hr 12 min 51 sec)
Heartbeat CPU 1 instructions: 240000003 cycles: 287420201 heartbeat IPC: 0.7533 cumulative IPC: 0.6886 (Simulation time: 02 hr 14 min 37 sec)
Heartbeat CPU 3 instructions: 380000001 cycles: 293179400 heartbeat IPC: 1.04 cumulative IPC: 1.106 (Simulation time: 02 hr 17 min 12 sec)
Heartbeat CPU 1 instructions: 250000003 cycles: 300436871 heartbeat IPC: 0.7682 cumulative IPC: 0.6923 (Simulation time: 02 hr 20 min 29 sec)
Heartbeat CPU 3 instructions: 390000004 cycles: 303071112 heartbeat IPC: 1.011 cumulative IPC: 1.103 (Simulation time: 02 hr 21 min 38 sec)
Heartbeat CPU 3 instructions: 400000001 cycles: 312784670 heartbeat IPC: 1.029 cumulative IPC: 1.1 (Simulation time: 02 hr 26 min 01 sec)
Heartbeat CPU 1 instructions: 260000001 cycles: 313309610 heartbeat IPC: 0.7768 cumulative IPC: 0.696 (Simulation time: 02 hr 26 min 11 sec)
Heartbeat CPU 0 instructions: 100000000 cycles: 318229803 heartbeat IPC: 0.1835 cumulative IPC: 0.1681 (Simulation time: 02 hr 28 min 24 sec)
Heartbeat CPU 3 instructions: 410000001 cycles: 322404244 heartbeat IPC: 1.04 cumulative IPC: 1.098 (Simulation time: 02 hr 30 min 18 sec)
Heartbeat CPU 1 instructions: 270000002 cycles: 326425010 heartbeat IPC: 0.7625 cumulative IPC: 0.6989 (Simulation time: 02 hr 32 min 08 sec)
Heartbeat CPU 2 instructions: 110000000 cycles: 327643760 heartbeat IPC: 0.1722 cumulative IPC: 0.1329 (Simulation time: 02 hr 32 min 38 sec)
Heartbeat CPU 3 instructions: 420000004 cycles: 331981784 heartbeat IPC: 1.044 cumulative IPC: 1.097 (Simulation time: 02 hr 34 min 34 sec)
Heartbeat CPU 1 instructions: 280000000 cycles: 339491853 heartbeat IPC: 0.7653 cumulative IPC: 0.7016 (Simulation time: 02 hr 37 min 41 sec)
Heartbeat CPU 3 instructions: 430000003 cycles: 341649487 heartbeat IPC: 1.034 cumulative IPC: 1.095 (Simulation time: 02 hr 38 min 36 sec)
Heartbeat CPU 3 instructions: 440000002 cycles: 349262167 heartbeat IPC: 1.314 cumulative IPC: 1.1 (Simulation time: 02 hr 41 min 55 sec)
Heartbeat CPU 1 instructions: 290000001 cycles: 353230707 heartbeat IPC: 0.7279 cumulative IPC: 0.7027 (Simulation time: 02 hr 43 min 38 sec)
Heartbeat CPU 3 instructions: 450000001 cycles: 357589627 heartbeat IPC: 1.201 cumulative IPC: 1.102 (Simulation time: 02 hr 45 min 31 sec)
Heartbeat CPU 3 instructions: 460000002 cycles: 365760309 heartbeat IPC: 1.224 cumulative IPC: 1.105 (Simulation time: 02 hr 49 min 05 sec)
Heartbeat CPU 1 instructions: 300000004 cycles: 367775614 heartbeat IPC: 0.6875 cumulative IPC: 0.702 (Simulation time: 02 hr 49 min 58 sec)
Heartbeat CPU 0 instructions: 110000004 cycles: 374012348 heartbeat IPC: 0.1793 cumulative IPC: 0.1699 (Simulation time: 02 hr 52 min 39 sec)
Heartbeat CPU 3 instructions: 470000000 cycles: 376615398 heartbeat IPC: 0.9212 cumulative IPC: 1.1 (Simulation time: 02 hr 53 min 46 sec)
Heartbeat CPU 1 instructions: 310000002 cycles: 385409979 heartbeat IPC: 0.5671 cumulative IPC: 0.6955 (Simulation time: 02 hr 57 min 21 sec)
Heartbeat CPU 3 instructions: 480000001 cycles: 388102621 heartbeat IPC: 0.8705 cumulative IPC: 1.092 (Simulation time: 02 hr 58 min 33 sec)
Heartbeat CPU 3 instructions: 490000000 cycles: 395259327 heartbeat IPC: 1.397 cumulative IPC: 1.098 (Simulation time: 03 hr 01 min 47 sec)
Heartbeat CPU 2 instructions: 120000003 cycles: 396798767 heartbeat IPC: 0.1446 cumulative IPC: 0.1351 (Simulation time: 03 hr 02 min 22 sec)
Heartbeat CPU 1 instructions: 320000004 cycles: 401486038 heartbeat IPC: 0.622 cumulative IPC: 0.6924 (Simulation time: 03 hr 04 min 22 sec)
Heartbeat CPU 3 instructions: 500000003 cycles: 403717375 heartbeat IPC: 1.182 cumulative IPC: 1.1 (Simulation time: 03 hr 05 min 22 sec)
Heartbeat CPU 3 instructions: 510000001 cycles: 410773892 heartbeat IPC: 1.417 cumulative IPC: 1.106 (Simulation time: 03 hr 08 min 27 sec)
Heartbeat CPU 1 instructions: 330000001 cycles: 416345145 heartbeat IPC: 0.673 cumulative IPC: 0.6917 (Simulation time: 03 hr 10 min 50 sec)
Heartbeat CPU 3 instructions: 520000001 cycles: 421128935 heartbeat IPC: 0.9657 cumulative IPC: 1.102 (Simulation time: 03 hr 12 min 43 sec)
Heartbeat CPU 3 instructions: 530000001 cycles: 427198770 heartbeat IPC: 1.647 cumulative IPC: 1.11 (Simulation time: 03 hr 15 min 36 sec)
Heartbeat CPU 1 instructions: 340000001 cycles: 431286117 heartbeat IPC: 0.6693 cumulative IPC: 0.6909 (Simulation time: 03 hr 17 min 33 sec)
Heartbeat CPU 3 instructions: 540000004 cycles: 438390731 heartbeat IPC: 0.8935 cumulative IPC: 1.105 (Simulation time: 03 hr 20 min 39 sec)
Heartbeat CPU 0 instructions: 120000004 cycles: 441778533 heartbeat IPC: 0.1476 cumulative IPC: 0.1663 (Simulation time: 03 hr 22 min 07 sec)
Heartbeat CPU 1 instructions: 350000000 cycles: 445135172 heartbeat IPC: 0.7221 cumulative IPC: 0.6919 (Simulation time: 03 hr 23 min 44 sec)
Heartbeat CPU 3 instructions: 550000004 cycles: 448053173 heartbeat IPC: 1.035 cumulative IPC: 1.103 (Simulation time: 03 hr 24 min 54 sec)
Heartbeat CPU 3 instructions: 560000003 cycles: 457592309 heartbeat IPC: 1.048 cumulative IPC: 1.102 (Simulation time: 03 hr 29 min 27 sec)
Heartbeat CPU 1 instructions: 360000004 cycles: 458131594 heartbeat IPC: 0.7694 cumulative IPC: 0.6942 (Simulation time: 03 hr 29 min 42 sec)
Heartbeat CPU 2 instructions: 130000000 cycles: 460130534 heartbeat IPC: 0.1579 cumulative IPC: 0.1384 (Simulation time: 03 hr 30 min 35 sec)
Heartbeat CPU 3 instructions: 570000000 cycles: 467132030 heartbeat IPC: 1.048 cumulative IPC: 1.101 (Simulation time: 03 hr 33 min 48 sec)
Heartbeat CPU 1 instructions: 370000001 cycles: 471101406 heartbeat IPC: 0.771 cumulative IPC: 0.6964 (Simulation time: 03 hr 35 min 43 sec)
Heartbeat CPU 3 instructions: 580000003 cycles: 476712845 heartbeat IPC: 1.044 cumulative IPC: 1.099 (Simulation time: 03 hr 38 min 18 sec)
Heartbeat CPU 1 instructions: 380000001 cycles: 484123012 heartbeat IPC: 0.768 cumulative IPC: 0.6984 (Simulation time: 03 hr 41 min 55 sec)
Heartbeat CPU 3 instructions: 590000002 cycles: 486264323 heartbeat IPC: 1.047 cumulative IPC: 1.098 (Simulation time: 03 hr 42 min 53 sec)
Heartbeat CPU 0 instructions: 130000003 cycles: 494076099 heartbeat IPC: 0.1912 cumulative IPC: 0.1691 (Simulation time: 03 hr 46 min 29 sec)
Heartbeat CPU 3 instructions: 600000001 cycles: 495657424 heartbeat IPC: 1.065 cumulative IPC: 1.098 (Simulation time: 03 hr 47 min 13 sec)
Heartbeat CPU 1 instructions: 390000004 cycles: 496919198 heartbeat IPC: 0.7815 cumulative IPC: 0.7006 (Simulation time: 03 hr 47 min 47 sec)
Heartbeat CPU 3 instructions: 610000000 cycles: 505315947 heartbeat IPC: 1.035 cumulative IPC: 1.096 (Simulation time: 03 hr 51 min 38 sec)
Heartbeat CPU 1 instructions: 400000003 cycles: 509774063 heartbeat IPC: 0.7779 cumulative IPC: 0.7027 (Simulation time: 03 hr 53 min 45 sec)
Heartbeat CPU 3 instructions: 620000004 cycles: 512219659 heartbeat IPC: 1.448 cumulative IPC: 1.101 (Simulation time: 03 hr 54 min 58 sec)
Heartbeat CPU 2 instructions: 140000002 cycles: 519339416 heartbeat IPC: 0.1689 cumulative IPC: 0.142 (Simulation time: 03 hr 58 min 06 sec)
Heartbeat CPU 3 instructions: 630000000 cycles: 522554636 heartbeat IPC: 0.9676 cumulative IPC: 1.099 (Simulation time: 03 hr 59 min 34 sec)
Heartbeat CPU 1 instructions: 410000000 cycles: 523549194 heartbeat IPC: 0.7259 cumulative IPC: 0.7033 (Simulation time: 04 hr 00 min 04 sec)
Heartbeat CPU 3 instructions: 640000000 cycles: 530212628 heartbeat IPC: 1.306 cumulative IPC: 1.102 (Simulation time: 04 hr 03 min 12 sec)
Heartbeat CPU 1 instructions: 420000000 cycles: 538296929 heartbeat IPC: 0.6781 cumulative IPC: 0.7026 (Simulation time: 04 hr 06 min 51 sec)
Heartbeat CPU 3 instructions: 650000000 cycles: 540401071 heartbeat IPC: 0.9815 cumulative IPC: 1.099 (Simulation time: 04 hr 07 min 41 sec)
Heartbeat CPU 3 instructions: 660000002 cycles: 554036086 heartbeat IPC: 0.7334 cumulative IPC: 1.09 (Simulation time: 04 hr 13 min 36 sec)
Heartbeat CPU 0 instructions: 140000001 cycles: 556502007 heartbeat IPC: 0.1602 cumulative IPC: 0.168 (Simulation time: 04 hr 14 min 44 sec)
Heartbeat CPU 1 instructions: 430000002 cycles: 556918992 heartbeat IPC: 0.537 cumulative IPC: 0.6968 (Simulation time: 04 hr 14 min 57 sec)
Heartbeat CPU 3 instructions: 670000002 cycles: 560854102 heartbeat IPC: 1.467 cumulative IPC: 1.095 (Simulation time: 04 hr 16 min 36 sec)
Heartbeat CPU 3 instructions: 680000000 cycles: 570211300 heartbeat IPC: 1.069 cumulative IPC: 1.094 (Simulation time: 04 hr 20 min 37 sec)
Heartbeat CPU 1 instructions: 440000002 cycles: 572255341 heartbeat IPC: 0.652 cumulative IPC: 0.6956 (Simulation time: 04 hr 21 min 39 sec)
Heartbeat CPU 3 instructions: 690000000 cycles: 574317264 heartbeat IPC: 2.435 cumulative IPC: 1.104 (Simulation time: 04 hr 22 min 35 sec)
Heartbeat CPU 3 instructions: 700000000 cycles: 584779705 heartbeat IPC: 0.9558 cumulative IPC: 1.102 (Simulation time: 04 hr 27 min 03 sec)
Heartbeat CPU 1 instructions: 450000002 cycles: 587863150 heartbeat IPC: 0.6407 cumulative IPC: 0.6941 (Simulation time: 04 hr 28 min 20 sec)
Heartbeat CPU 2 instructions: 150000000 cycles: 591420631 heartbeat IPC: 0.1387 cumulative IPC: 0.1416 (Simulation time: 04 hr 29 min 51 sec)
Heartbeat CPU 3 instructions: 710000000 cycles: 593333725 heartbeat IPC: 1.169 cumulative IPC: 1.103 (Simulation time: 04 hr 30 min 44 sec)
Heartbeat CPU 1 instructions: 460000001 cycles: 601945987 heartbeat IPC: 0.7101 cumulative IPC: 0.6945 (Simulation time: 04 hr 34 min 31 sec)
Heartbeat CPU 3 instructions: 720000001 cycles: 602089652 heartbeat IPC: 1.142 cumulative IPC: 1.103 (Simulation time: 04 hr 34 min 36 sec)
Heartbeat CPU 3 instructions: 730000001 cycles: 613667968 heartbeat IPC: 0.8637 cumulative IPC: 1.098 (Simulation time: 04 hr 39 min 29 sec)
Heartbeat CPU 1 instructions: 470000001 cycles: 615377115 heartbeat IPC: 0.7445 cumulative IPC: 0.6956 (Simulation time: 04 hr 40 min 14 sec)
Heartbeat CPU 0 instructions: 150000003 cycles: 617686404 heartbeat IPC: 0.1634 cumulative IPC: 0.1676 (Simulation time: 04 hr 41 min 25 sec)
Heartbeat CPU 3 instructions: 740000004 cycles: 623056517 heartbeat IPC: 1.065 cumulative IPC: 1.098 (Simulation time: 04 hr 43 min 42 sec)
Heartbeat CPU 1 instructions: 480000004 cycles: 628430035 heartbeat IPC: 0.7661 cumulative IPC: 0.6971 (Simulation time: 04 hr 46 min 11 sec)
Heartbeat CPU 3 instructions: 750000004 cycles: 632539391 heartbeat IPC: 1.055 cumulative IPC: 1.097 (Simulation time: 04 hr 48 min 02 sec)
Heartbeat CPU 1 instructions: 490000001 cycles: 641413517 heartbeat IPC: 0.7702 cumulative IPC: 0.6986 (Simulation time: 04 hr 51 min 30 sec)
Heartbeat CPU 3 instructions: 760000002 cycles: 642138949 heartbeat IPC: 1.042 cumulative IPC: 1.096 (Simulation time: 04 hr 51 min 49 sec)
Heartbeat CPU 2 instructions: 160000002 cycles: 647514260 heartbeat IPC: 0.1783 cumulative IPC: 0.1449 (Simulation time: 04 hr 53 min 52 sec)
Heartbeat CPU 3 instructions: 770000000 cycles: 651702743 heartbeat IPC: 1.046 cumulative IPC: 1.096 (Simulation time: 04 hr 55 min 37 sec)
Heartbeat CPU 1 instructions: 500000003 cycles: 654352465 heartbeat IPC: 0.7729 cumulative IPC: 0.7002 (Simulation time: 04 hr 56 min 48 sec)
Heartbeat CPU 3 instructions: 780000002 cycles: 661345071 heartbeat IPC: 1.037 cumulative IPC: 1.095 (Simulation time: 04 hr 59 min 49 sec)
Heartbeat CPU 1 instructions: 510000004 cycles: 667312786 heartbeat IPC: 0.7716 cumulative IPC: 0.7016 (Simulation time: 05 hr 02 min 34 sec)
Heartbeat CPU 0 instructions: 160000002 cycles: 669590107 heartbeat IPC: 0.1927 cumulative IPC: 0.1696 (Simulation time: 05 hr 03 min 34 sec)
Heartbeat CPU 3 instructions: 790000004 cycles: 671233038 heartbeat IPC: 1.011 cumulative IPC: 1.094 (Simulation time: 05 hr 04 min 22 sec)
Heartbeat CPU 3 instructions: 800000001 cycles: 679208175 heartbeat IPC: 1.254 cumulative IPC: 1.095 (Simulation time: 05 hr 07 min 51 sec)
Heartbeat CPU 1 instructions: 520000001 cycles: 680669059 heartbeat IPC: 0.7487 cumulative IPC: 0.7026 (Simulation time: 05 hr 08 min 33 sec)
Heartbeat CPU 3 instructions: 810000000 cycles: 689408728 heartbeat IPC: 0.9803 cumulative IPC: 1.094 (Simulation time: 05 hr 12 min 09 sec)
Heartbeat CPU 1 instructions: 530000001 cycles: 694485861 heartbeat IPC: 0.7238 cumulative IPC: 0.703 (Simulation time: 05 hr 14 min 19 sec)
Heartbeat CPU 3 instructions: 820000001 cycles: 695720624 heartbeat IPC: 1.584 cumulative IPC: 1.098 (Simulation time: 05 hr 14 min 52 sec)
Heartbeat CPU 3 instructions: 830000001 cycles: 705089733 heartbeat IPC: 1.067 cumulative IPC: 1.098 (Simulation time: 05 hr 18 min 45 sec)
Heartbeat CPU 2 instructions: 170000000 cycles: 707767787 heartbeat IPC: 0.166 cumulative IPC: 0.1467 (Simulation time: 05 hr 19 min 51 sec)
Heartbeat CPU 1 instructions: 540000002 cycles: 709707508 heartbeat IPC: 0.657 cumulative IPC: 0.702 (Simulation time: 05 hr 20 min 39 sec)
Heartbeat CPU 3 instructions: 840000000 cycles: 715148019 heartbeat IPC: 0.9942 cumulative IPC: 1.096 (Simulation time: 05 hr 22 min 48 sec)
Heartbeat CPU 3 instructions: 850000001 cycles: 725690320 heartbeat IPC: 0.9486 cumulative IPC: 1.094 (Simulation time: 05 hr 26 min 48 sec)
Heartbeat CPU 1 instructions: 550000000 cycles: 727779753 heartbeat IPC: 0.5533 cumulative IPC: 0.6982 (Simulation time: 05 hr 27 min 33 sec)
Heartbeat CPU 0 instructions: 170000001 cycles: 732360421 heartbeat IPC: 0.1593 cumulative IPC: 0.1687 (Simulation time: 05 hr 29 min 15 sec)
Heartbeat CPU 3 instructions: 860000002 cycles: 734212658 heartbeat IPC: 1.173 cumulative IPC: 1.095 (Simulation time: 05 hr 29 min 56 sec)
Heartbeat CPU 3 instructions: 870000000 cycles: 741000467 heartbeat IPC: 1.473 cumulative IPC: 1.099 (Simulation time: 05 hr 32 min 24 sec)
Heartbeat CPU 1 instructions: 560000004 cycles: 743019154 heartbeat IPC: 0.6562 cumulative IPC: 0.6973 (Simulation time: 05 hr 33 min 12 sec)
Heartbeat CPU 3 instructions: 880000004 cycles: 750826526 heartbeat IPC: 1.018 cumulative IPC: 1.098 (Simulation time: 05 hr 36 min 07 sec)
Heartbeat CPU 1 instructions: 570000001 cycles: 758700609 heartbeat IPC: 0.6377 cumulative IPC: 0.696 (Simulation time: 05 hr 38 min 58 sec)
Heartbeat CPU 3 instructions: 890000000 cycles: 759815780 heartbeat IPC: 1.112 cumulative IPC: 1.098 (Simulation time: 05 hr 39 min 24 sec)
Heartbeat CPU 3 instructions: 900000001 cycles: 766900312 heartbeat IPC: 1.412 cumulative IPC: 1.101 (Simulation time: 05 hr 42 min 15 sec)
Heartbeat CPU 1 instructions: 580000000 cycles: 772793541 heartbeat IPC: 0.7096 cumulative IPC: 0.6963 (Simulation time: 05 hr 44 min 28 sec)
Heartbeat CPU 3 instructions: 910000000 cycles: 778333091 heartbeat IPC: 0.8747 cumulative IPC: 1.097 (Simulation time: 05 hr 46 min 38 sec)
Heartbeat CPU 2 instructions: 180000001 cycles: 778693300 heartbeat IPC: 0.141 cumulative IPC: 0.1462 (Simulation time: 05 hr 46 min 46 sec)
Heartbeat CPU 1 instructions: 590000002 cycles: 786192652 heartbeat IPC: 0.7463 cumulative IPC: 0.6971 (Simulation time: 05 hr 49 min 48 sec)
Heartbeat CPU 3 instructions: 920000004 cycles: 787855069 heartbeat IPC: 1.05 cumulative IPC: 1.097 (Simulation time: 05 hr 50 min 29 sec)
Heartbeat CPU 0 instructions: 180000001 cycles: 791583481 heartbeat IPC: 0.1689 cumulative IPC: 0.1687 (Simulation time: 05 hr 52 min 03 sec)
Heartbeat CPU 3 instructions: 930000002 cycles: 797345006 heartbeat IPC: 1.054 cumulative IPC: 1.096 (Simulation time: 05 hr 54 min 22 sec)
Heartbeat CPU 1 instructions: 600000004 cycles: 799195438 heartbeat IPC: 0.7691 cumulative IPC: 0.6983 (Simulation time: 05 hr 55 min 06 sec)
Heartbeat CPU 3 instructions: 940000002 cycles: 806625951 heartbeat IPC: 1.077 cumulative IPC: 1.096 (Simulation time: 05 hr 58 min 10 sec)
Heartbeat CPU 1 instructions: 610000001 cycles: 812151419 heartbeat IPC: 0.7718 cumulative IPC: 0.6996 (Simulation time: 06 hr 00 min 22 sec)
Heartbeat CPU 3 instructions: 950000004 cycles: 815954372 heartbeat IPC: 1.072 cumulative IPC: 1.096 (Simulation time: 06 hr 01 min 57 sec)
Heartbeat CPU 3 instructions: 960000003 cycles: 825121881 heartbeat IPC: 1.091 cumulative IPC: 1.096 (Simulation time: 06 hr 05 min 36 sec)
Heartbeat CPU 1 instructions: 620000000 cycles: 825173637 heartbeat IPC: 0.7679 cumulative IPC: 0.7007 (Simulation time: 06 hr 05 min 38 sec)
Heartbeat CPU 3 instructions: 970000001 cycles: 834675352 heartbeat IPC: 1.047 cumulative IPC: 1.095 (Simulation time: 06 hr 09 min 25 sec)
Heartbeat CPU 2 instructions: 190000003 cycles: 836229875 heartbeat IPC: 0.1738 cumulative IPC: 0.1481 (Simulation time: 06 hr 10 min 03 sec)
Heartbeat CPU 1 instructions: 630000003 cycles: 838193664 heartbeat IPC: 0.768 cumulative IPC: 0.7017 (Simulation time: 06 hr 10 min 49 sec)
Heartbeat CPU 0 instructions: 190000001 cycles: 843141559 heartbeat IPC: 0.194 cumulative IPC: 0.1703 (Simulation time: 06 hr 12 min 51 sec)
Heartbeat CPU 3 instructions: 980000002 cycles: 844299280 heartbeat IPC: 1.039 cumulative IPC: 1.094 (Simulation time: 06 hr 13 min 19 sec)
Heartbeat CPU 1 instructions: 640000004 cycles: 851510234 heartbeat IPC: 0.7509 cumulative IPC: 0.7025 (Simulation time: 06 hr 16 min 08 sec)
Heartbeat CPU 3 instructions: 990000001 cycles: 851557963 heartbeat IPC: 1.378 cumulative IPC: 1.097 (Simulation time: 06 hr 16 min 09 sec)
Heartbeat CPU 3 instructions: 1000000000 cycles: 860233597 heartbeat IPC: 1.153 cumulative IPC: 1.097 (Simulation time: 06 hr 19 min 37 sec)
Heartbeat CPU 1 instructions: 650000000 cycles: 864997264 heartbeat IPC: 0.7415 cumulative IPC: 0.7031 (Simulation time: 06 hr 21 min 30 sec)
Heartbeat CPU 3 instructions: 1010000002 cycles: 868380746 heartbeat IPC: 1.227 cumulative IPC: 1.099 (Simulation time: 06 hr 22 min 52 sec)
Heartbeat CPU 3 instructions: 1020000003 cycles: 879151391 heartbeat IPC: 0.9284 cumulative IPC: 1.097 (Simulation time: 06 hr 27 min 10 sec)
Heartbeat CPU 1 instructions: 660000002 cycles: 881815816 heartbeat IPC: 0.5946 cumulative IPC: 0.701 (Simulation time: 06 hr 28 min 12 sec)
Heartbeat CPU 3 instructions: 1030000001 cycles: 890982596 heartbeat IPC: 0.8452 cumulative IPC: 1.093 (Simulation time: 06 hr 31 min 50 sec)
Heartbeat CPU 3 instructions: 1040000004 cycles: 898277346 heartbeat IPC: 1.371 cumulative IPC: 1.095 (Simulation time: 06 hr 34 min 46 sec)
Heartbeat CPU 1 instructions: 670000002 cycles: 898531243 heartbeat IPC: 0.5982 cumulative IPC: 0.6991 (Simulation time: 06 hr 34 min 52 sec)
Heartbeat CPU 3 instructions: 1050000000 cycles: 907320350 heartbeat IPC: 1.106 cumulative IPC: 1.096 (Simulation time: 06 hr 38 min 20 sec)
Heartbeat CPU 2 instructions: 200000000 cycles: 907470771 heartbeat IPC: 0.1404 cumulative IPC: 0.1475 (Simulation time: 06 hr 38 min 24 sec)
Heartbeat CPU 0 instructions: 200000001 cycles: 908116745 heartbeat IPC: 0.1539 cumulative IPC: 0.1691 (Simulation time: 06 hr 38 min 43 sec)
Simulation finished CPU 0 instructions: 150000002 cycles: 887244348 cumulative IPC: 0.1691 (Simulation time: 06 hr 38 min 43 sec)
Heartbeat CPU 3 instructions: 1060000002 cycles: 913874539 heartbeat IPC: 1.526 cumulative IPC: 1.099 (Simulation time: 06 hr 41 min 00 sec)
Heartbeat CPU 1 instructions: 680000002 cycles: 914277479 heartbeat IPC: 0.6351 cumulative IPC: 0.6979 (Simulation time: 06 hr 41 min 09 sec)
Heartbeat CPU 3 instructions: 1070000001 cycles: 925991102 heartbeat IPC: 0.8253 cumulative IPC: 1.095 (Simulation time: 06 hr 45 min 31 sec)
Heartbeat CPU 1 instructions: 690000000 cycles: 929127150 heartbeat IPC: 0.6734 cumulative IPC: 0.6975 (Simulation time: 06 hr 46 min 46 sec)
Heartbeat CPU 3 instructions: 1080000000 cycles: 931908395 heartbeat IPC: 1.69 cumulative IPC: 1.099 (Simulation time: 06 hr 47 min 50 sec)
Heartbeat CPU 3 instructions: 1090000000 cycles: 942045485 heartbeat IPC: 0.9865 cumulative IPC: 1.098 (Simulation time: 06 hr 51 min 43 sec)
Heartbeat CPU 1 instructions: 700000003 cycles: 943385665 heartbeat IPC: 0.7013 cumulative IPC: 0.6976 (Simulation time: 06 hr 52 min 12 sec)
Heartbeat CPU 3 instructions: 1100000002 cycles: 952494724 heartbeat IPC: 0.957 cumulative IPC: 1.096 (Simulation time: 06 hr 55 min 57 sec)
Heartbeat CPU 1 instructions: 710000002 cycles: 956567139 heartbeat IPC: 0.7586 cumulative IPC: 0.6985 (Simulation time: 06 hr 57 min 32 sec)
Heartbeat CPU 3 instructions: 1110000000 cycles: 962085327 heartbeat IPC: 1.043 cumulative IPC: 1.096 (Simulation time: 06 hr 59 min 38 sec)
Heartbeat CPU 0 instructions: 210000004 cycles: 964701855 heartbeat IPC: 0.1767 cumulative IPC: 0.1695 (Simulation time: 07 hr 00 min 39 sec)
Heartbeat CPU 1 instructions: 720000000 cycles: 969526656 heartbeat IPC: 0.7716 cumulative IPC: 0.6995 (Simulation time: 07 hr 02 min 34 sec)
Heartbeat CPU 2 instructions: 210000000 cycles: 971324990 heartbeat IPC: 0.1566 cumulative IPC: 0.1481 (Simulation time: 07 hr 03 min 14 sec)
Heartbeat CPU 3 instructions: 1120000002 cycles: 971658265 heartbeat IPC: 1.045 cumulative IPC: 1.095 (Simulation time: 07 hr 03 min 23 sec)
Heartbeat CPU 3 instructions: 1130000004 cycles: 981147299 heartbeat IPC: 1.054 cumulative IPC: 1.095 (Simulation time: 07 hr 07 min 00 sec)
Heartbeat CPU 1 instructions: 730000003 cycles: 982520347 heartbeat IPC: 0.7696 cumulative IPC: 0.7004 (Simulation time: 07 hr 07 min 32 sec)
Heartbeat CPU 3 instructions: 1140000002 cycles: 990770724 heartbeat IPC: 1.039 cumulative IPC: 1.094 (Simulation time: 07 hr 10 min 40 sec)
Heartbeat CPU 1 instructions: 740000001 cycles: 995605626 heartbeat IPC: 0.7642 cumulative IPC: 0.7013 (Simulation time: 07 hr 12 min 31 sec)
Heartbeat CPU 3 instructions: 1150000000 cycles: 1000398488 heartbeat IPC: 1.039 cumulative IPC: 1.094 (Simulation time: 07 hr 14 min 17 sec)
Heartbeat CPU 1 instructions: 750000001 cycles: 1008599455 heartbeat IPC: 0.7696 cumulative IPC: 0.7022 (Simulation time: 07 hr 17 min 19 sec)
Heartbeat CPU 3 instructions: 1160000004 cycles: 1010152202 heartbeat IPC: 1.025 cumulative IPC: 1.093 (Simulation time: 07 hr 17 min 54 sec)
Heartbeat CPU 0 instructions: 220000004 cycles: 1015923941 heartbeat IPC: 0.1952 cumulative IPC: 0.1708 (Simulation time: 07 hr 20 min 04 sec)
Heartbeat CPU 3 instructions: 1170000002 cycles: 1017522922 heartbeat IPC: 1.357 cumulative IPC: 1.095 (Simulation time: 07 hr 20 min 41 sec)
Heartbeat CPU 1 instructions: 760000003 cycles: 1022065836 heartbeat IPC: 0.7426 cumulative IPC: 0.7027 (Simulation time: 07 hr 22 min 18 sec)
Simulation finished CPU 2 instructions: 150000000 cycles: 1001484995 cumulative IPC: 0.1498 (Simulation time: 07 hr 22 min 26 sec)
Simulation complete CPU 0 instructions: 171160122 cycles: 1001484995 cumulative IPC: 0.1709 (Simulation time: 07 hr 22 min 26 sec)
Simulation complete CPU 1 instructions: 703762317 cycles: 1001484995 cumulative IPC: 0.7027 (Simulation time: 07 hr 22 min 26 sec)
Simulation complete CPU 2 instructions: 150000000 cycles: 1001484995 cumulative IPC: 0.1498 (Simulation time: 07 hr 22 min 26 sec)
Simulation complete CPU 3 instructions: 1095529100 cycles: 1001484995 cumulative IPC: 1.094 (Simulation time: 07 hr 22 min 26 sec)

ChampSim completed all CPUs

=== Simulation ===
CPU 0 runs /home/das/dpc3_traces/620.omnetpp_s-874B.champsimtrace.xzCPU 1 runs /home/das/dpc3_traces/607.cactuBSSN_s-2421B.champsimtrace.xzCPU 2 runs /home/das/dpc3_traces/605.mcf_s-665B.champsimtrace.xzCPU 3 runs /home/das/dpc3_traces/628.pop2_s-17B.champsimtrace.xz
Total Simulation Statistics (not including warmup)

CPU 0 cumulative IPC: 0.1709 instructions: 171160122 cycles: 1001484995
CPU 0 Branch Prediction Accuracy: 94.93% MPKI: 10.55 Average ROB Occupancy at Mispredict: 83.99
Branch type MPKI
BRANCH_DIRECT_JUMP: 0.925
BRANCH_INDIRECT: 0.126
BRANCH_CONDITIONAL: 8.37
BRANCH_DIRECT_CALL: 0.00014
BRANCH_INDIRECT_CALL: 0.733
BRANCH_RETURN: 0.398


CPU 1 cumulative IPC: 0.7027 instructions: 703762317 cycles: 1001484995
CPU 1 Branch Prediction Accuracy: 99.85% MPKI: 0.001802 Average ROB Occupancy at Mispredict: 348.8
Branch type MPKI
BRANCH_DIRECT_JUMP: 1.42e-06
BRANCH_INDIRECT: 7.1e-06
BRANCH_CONDITIONAL: 0.00179
BRANCH_DIRECT_CALL: 0
BRANCH_INDIRECT_CALL: 0
BRANCH_RETURN: 0


CPU 2 cumulative IPC: 0.1498 instructions: 150000000 cycles: 1001484995
CPU 2 Branch Prediction Accuracy: 90.36% MPKI: 23.83 Average ROB Occupancy at Mispredict: 18.59
Branch type MPKI
BRANCH_DIRECT_JUMP: 0.254
BRANCH_INDIRECT: 0
BRANCH_CONDITIONAL: 23.6
BRANCH_DIRECT_CALL: 0
BRANCH_INDIRECT_CALL: 0.000607
BRANCH_RETURN: 0


CPU 3 cumulative IPC: 1.094 instructions: 1095529100 cycles: 1001484995
CPU 3 Branch Prediction Accuracy: 97.47% MPKI: 3.922 Average ROB Occupancy at Mispredict: 108.1
Branch type MPKI
BRANCH_DIRECT_JUMP: 0.0288
BRANCH_INDIRECT: 0.000688
BRANCH_CONDITIONAL: 3.83
BRANCH_DIRECT_CALL: 0.000211
BRANCH_INDIRECT_CALL: 0
BRANCH_RETURN: 0.0653

LLC TOTAL        ACCESS:    4006049 HIT:    1604325 MISS:    2401724
LLC LOAD         ACCESS:    1928982 HIT:     371797 MISS:    1557185
LLC RFO          ACCESS:     293070 HIT:     107645 MISS:     185425
LLC PREFETCH     ACCESS:          0 HIT:          0 MISS:          0
LLC WRITE        ACCESS:    1105062 HIT:    1072134 MISS:      32928
LLC TRANSLATION  ACCESS:     678935 HIT:      52749 MISS:     626186
LLC PREFETCH REQUESTED:          0 ISSUED:          0 USEFUL:          0 USELESS:          0
LLC AVERAGE MISS LATENCY: 1654 cycles
LLC TOTAL        ACCESS:    8243255 HIT:    2774001 MISS:    5469254
LLC LOAD         ACCESS:    7410035 HIT:    2006416 MISS:    5403619
LLC RFO          ACCESS:      21155 HIT:      21155 MISS:          0
LLC PREFETCH     ACCESS:          0 HIT:          0 MISS:          0
LLC WRITE        ACCESS:     706116 HIT:     705985 MISS:        131
LLC TRANSLATION  ACCESS:     105949 HIT:      40445 MISS:      65504
LLC PREFETCH REQUESTED:          0 ISSUED:          0 USEFUL:          0 USELESS:          0
LLC AVERAGE MISS LATENCY: 1654 cycles
LLC TOTAL        ACCESS:    3648373 HIT:    1912560 MISS:    1735813
LLC LOAD         ACCESS:    2996437 HIT:    1306421 MISS:    1690016
LLC RFO          ACCESS:     248777 HIT:     240596 MISS:       8181
LLC PREFETCH     ACCESS:          0 HIT:          0 MISS:          0
LLC WRITE        ACCESS:     389187 HIT:     359090 MISS:      30097
LLC TRANSLATION  ACCESS:      13972 HIT:       6453 MISS:       7519
LLC PREFETCH REQUESTED:          0 ISSUED:          0 USEFUL:          0 USELESS:          0
LLC AVERAGE MISS LATENCY: 1654 cycles
LLC TOTAL        ACCESS:   10281555 HIT:    6539888 MISS:    3741667
LLC LOAD         ACCESS:    4729022 HIT:    2465149 MISS:    2263873
LLC RFO          ACCESS:    2277010 HIT:     851023 MISS:    1425987
LLC PREFETCH     ACCESS:          0 HIT:          0 MISS:          0
LLC WRITE        ACCESS:    3243550 HIT:    3214353 MISS:      29197
LLC TRANSLATION  ACCESS:      31973 HIT:       9363 MISS:      22610
LLC PREFETCH REQUESTED:          0 ISSUED:          0 USEFUL:          0 USELESS:          0
LLC AVERAGE MISS LATENCY: 1654 cycles
cpu0_DTLB TOTAL        ACCESS:   43722408 HIT:   39957756 MISS:    3764652
cpu0_DTLB LOAD         ACCESS:   43722408 HIT:   39957756 MISS:    3764652
cpu0_DTLB RFO          ACCESS:          0 HIT:          0 MISS:          0
cpu0_DTLB PREFETCH     ACCESS:          0 HIT:          0 MISS:          0
cpu0_DTLB WRITE        ACCESS:          0 HIT:          0 MISS:          0
cpu0_DTLB TRANSLATION  ACCESS:          0 HIT:          0 MISS:          0
cpu0_DTLB PREFETCH REQUESTED:          0 ISSUED:          0 USEFUL:          0 USELESS:          0
cpu0_DTLB AVERAGE MISS LATENCY: 193.6 cycles
cpu0_DTLB TOTAL        ACCESS:          0 HIT:          0 MISS:          0
cpu0_DTLB LOAD         ACCESS:          0 HIT:          0 MISS:          0
cpu0_DTLB RFO          ACCESS:          0 HIT:          0 MISS:          0
cpu0_DTLB PREFETCH     ACCESS:          0 HIT:          0 MISS:          0
cpu0_DTLB WRITE        ACCESS:          0 HIT:          0 MISS:          0
cpu0_DTLB TRANSLATION  ACCESS:          0 HIT:          0 MISS:          0
cpu0_DTLB PREFETCH REQUESTED:          0 ISSUED:          0 USEFUL:          0 USELESS:          0
cpu0_DTLB AVERAGE MISS LATENCY: 193.6 cycles
cpu0_DTLB TOTAL        ACCESS:          0 HIT:          0 MISS:          0
cpu0_DTLB LOAD         ACCESS:          0 HIT:          0 MISS:          0
cpu0_DTLB RFO          ACCESS:          0 HIT:          0 MISS:          0
cpu0_DTLB PREFETCH     ACCESS:          0 HIT:          0 MISS:          0
cpu0_DTLB WRITE        ACCESS:          0 HIT:          0 MISS:          0
cpu0_DTLB TRANSLATION  ACCESS:          0 HIT:          0 MISS:          0
cpu0_DTLB PREFETCH REQUESTED:          0 ISSUED:          0 USEFUL:          0 USELESS:          0
cpu0_DTLB AVERAGE MISS LATENCY: 193.6 cycles
cpu0_DTLB TOTAL        ACCESS:          0 HIT:          0 MISS:          0
cpu0_DTLB LOAD         ACCESS:          0 HIT:          0 MISS:          0
cpu0_DTLB RFO          ACCESS:          0 HIT:          0 MISS:          0
cpu0_DTLB PREFETCH     ACCESS:          0 HIT:          0 MISS:          0
cpu0_DTLB WRITE        ACCESS:          0 HIT:          0 MISS:          0
cpu0_DTLB TRANSLATION  ACCESS:          0 HIT:          0 MISS:          0
cpu0_DTLB PREFETCH REQUESTED:          0 ISSUED:          0 USEFUL:          0 USELESS:          0
cpu0_DTLB AVERAGE MISS LATENCY: 193.6 cycles
cpu0_ITLB TOTAL        ACCESS:   12301852 HIT:   11991538 MISS:     310314
cpu0_ITLB LOAD         ACCESS:   12301852 HIT:   11991538 MISS:     310314
cpu0_ITLB RFO          ACCESS:          0 HIT:          0 MISS:          0
cpu0_ITLB PREFETCH     ACCESS:          0 HIT:          0 MISS:          0
cpu0_ITLB WRITE        ACCESS:          0 HIT:          0 MISS:          0
cpu0_ITLB TRANSLATION  ACCESS:          0 HIT:          0 MISS:          0
cpu0_ITLB PREFETCH REQUESTED:          0 ISSUED:          0 USEFUL:          0 USELESS:          0
cpu0_ITLB AVERAGE MISS LATENCY: 14.33 cycles
cpu0_ITLB TOTAL        ACCESS:          0 HIT:          0 MISS:          0
cpu0_ITLB LOAD         ACCESS:          0 HIT:          0 MISS:          0
cpu0_ITLB RFO          ACCESS:          0 HIT:          0 MISS:          0
cpu0_ITLB PREFETCH     ACCESS:          0 HIT:          0 MISS:          0
cpu0_ITLB WRITE        ACCESS:          0 HIT:          0 MISS:          0
cpu0_ITLB TRANSLATION  ACCESS:          0 HIT:          0 MISS:          0
cpu0_ITLB PREFETCH REQUESTED:          0 ISSUED:          0 USEFUL:          0 USELESS:          0
cpu0_ITLB AVERAGE MISS LATENCY: 14.33 cycles
cpu0_ITLB TOTAL        ACCESS:          0 HIT:          0 MISS:          0
cpu0_ITLB LOAD         ACCESS:          0 HIT:          0 MISS:          0
cpu0_ITLB RFO          ACCESS:          0 HIT:          0 MISS:          0
cpu0_ITLB PREFETCH     ACCESS:          0 HIT:          0 MISS:          0
cpu0_ITLB WRITE        ACCESS:          0 HIT:          0 MISS:          0
cpu0_ITLB TRANSLATION  ACCESS:          0 HIT:          0 MISS:          0
cpu0_ITLB PREFETCH REQUESTED:          0 ISSUED:          0 USEFUL:          0 USELESS:          0
cpu0_ITLB AVERAGE MISS LATENCY: 14.33 cycles
cpu0_ITLB TOTAL        ACCESS:          0 HIT:          0 MISS:          0
cpu0_ITLB LOAD         ACCESS:          0 HIT:          0 MISS:          0
cpu0_ITLB RFO          ACCESS:          0 HIT:          0 MISS:          0
cpu0_ITLB PREFETCH     ACCESS:          0 HIT:          0 MISS:          0
cpu0_ITLB WRITE        ACCESS:          0 HIT:          0 MISS:          0
cpu0_ITLB TRANSLATION  ACCESS:          0 HIT:          0 MISS:          0
cpu0_ITLB PREFETCH REQUESTED:          0 ISSUED:          0 USEFUL:          0 USELESS:          0
cpu0_ITLB AVERAGE MISS LATENCY: 14.33 cycles
cpu0_L1D TOTAL        ACCESS:   56900262 HIT:   51262903 MISS:    5637359
cpu0_L1D LOAD         ACCESS:   26219487 HIT:   22698438 MISS:    3521049
cpu0_L1D RFO          ACCESS:          0 HIT:          0 MISS:          0
cpu0_L1D PREFETCH     ACCESS:          0 HIT:          0 MISS:          0
cpu0_L1D WRITE        ACCESS:   29664534 HIT:   28398782 MISS:    1265752
cpu0_L1D TRANSLATION  ACCESS:    1016241 HIT:     165683 MISS:     850558
cpu0_L1D PREFETCH REQUESTED:          0 ISSUED:          0 USEFUL:          0 USELESS:          0
cpu0_L1D AVERAGE MISS LATENCY: 475.8 cycles
cpu0_L1D TOTAL        ACCESS:          0 HIT:          0 MISS:          0
cpu0_L1D LOAD         ACCESS:          0 HIT:          0 MISS:          0
cpu0_L1D RFO          ACCESS:          0 HIT:          0 MISS:          0
cpu0_L1D PREFETCH     ACCESS:          0 HIT:          0 MISS:          0
cpu0_L1D WRITE        ACCESS:          0 HIT:          0 MISS:          0
cpu0_L1D TRANSLATION  ACCESS:          0 HIT:          0 MISS:          0
cpu0_L1D PREFETCH REQUESTED:          0 ISSUED:          0 USEFUL:          0 USELESS:          0
cpu0_L1D AVERAGE MISS LATENCY: 475.8 cycles
cpu0_L1D TOTAL        ACCESS:          0 HIT:          0 MISS:          0
cpu0_L1D LOAD         ACCESS:          0 HIT:          0 MISS:          0
cpu0_L1D RFO          ACCESS:          0 HIT:          0 MISS:          0
cpu0_L1D PREFETCH     ACCESS:          0 HIT:          0 MISS:          0
cpu0_L1D WRITE        ACCESS:          0 HIT:          0 MISS:          0
cpu0_L1D TRANSLATION  ACCESS:          0 HIT:          0 MISS:          0
cpu0_L1D PREFETCH REQUESTED:          0 ISSUED:          0 USEFUL:          0 USELESS:          0
cpu0_L1D AVERAGE MISS LATENCY: 475.8 cycles
cpu0_L1D TOTAL        ACCESS:          0 HIT:          0 MISS:          0
cpu0_L1D LOAD         ACCESS:          0 HIT:          0 MISS:          0
cpu0_L1D RFO          ACCESS:          0 HIT:          0 MISS:          0
cpu0_L1D PREFETCH     ACCESS:          0 HIT:          0 MISS:          0
cpu0_L1D WRITE        ACCESS:          0 HIT:          0 MISS:          0
cpu0_L1D TRANSLATION  ACCESS:          0 HIT:          0 MISS:          0
cpu0_L1D PREFETCH REQUESTED:          0 ISSUED:          0 USEFUL:          0 USELESS:          0
cpu0_L1D AVERAGE MISS LATENCY: 475.8 cycles
cpu0_L1I TOTAL        ACCESS:   14702693 HIT:   14618521 MISS:      84172
cpu0_L1I LOAD         ACCESS:   14702693 HIT:   14618521 MISS:      84172
cpu0_L1I RFO          ACCESS:          0 HIT:          0 MISS:          0
cpu0_L1I PREFETCH     ACCESS:          0 HIT:          0 MISS:          0
cpu0_L1I WRITE        ACCESS:          0 HIT:          0 MISS:          0
cpu0_L1I TRANSLATION  ACCESS:          0 HIT:          0 MISS:          0
cpu0_L1I PREFETCH REQUESTED:          0 ISSUED:          0 USEFUL:          0 USELESS:          0
cpu0_L1I AVERAGE MISS LATENCY: 78.28 cycles
cpu0_L1I TOTAL        ACCESS:          0 HIT:          0 MISS:          0
cpu0_L1I LOAD         ACCESS:          0 HIT:          0 MISS:          0
cpu0_L1I RFO          ACCESS:          0 HIT:          0 MISS:          0
cpu0_L1I PREFETCH     ACCESS:          0 HIT:          0 MISS:          0
cpu0_L1I WRITE        ACCESS:          0 HIT:          0 MISS:          0
cpu0_L1I TRANSLATION  ACCESS:          0 HIT:          0 MISS:          0
cpu0_L1I PREFETCH REQUESTED:          0 ISSUED:          0 USEFUL:          0 USELESS:          0
cpu0_L1I AVERAGE MISS LATENCY: 78.28 cycles
cpu0_L1I TOTAL        ACCESS:          0 HIT:          0 MISS:          0
cpu0_L1I LOAD         ACCESS:          0 HIT:          0 MISS:          0
cpu0_L1I RFO          ACCESS:          0 HIT:          0 MISS:          0
cpu0_L1I PREFETCH     ACCESS:          0 HIT:          0 MISS:          0
cpu0_L1I WRITE        ACCESS:          0 HIT:          0 MISS:          0
cpu0_L1I TRANSLATION  ACCESS:          0 HIT:          0 MISS:          0
cpu0_L1I PREFETCH REQUESTED:          0 ISSUED:          0 USEFUL:          0 USELESS:          0
cpu0_L1I AVERAGE MISS LATENCY: 78.28 cycles
cpu0_L1I TOTAL        ACCESS:          0 HIT:          0 MISS:          0
cpu0_L1I LOAD         ACCESS:          0 HIT:          0 MISS:          0
cpu0_L1I RFO          ACCESS:          0 HIT:          0 MISS:          0
cpu0_L1I PREFETCH     ACCESS:          0 HIT:          0 MISS:          0
cpu0_L1I WRITE        ACCESS:          0 HIT:          0 MISS:          0
cpu0_L1I TRANSLATION  ACCESS:          0 HIT:          0 MISS:          0
cpu0_L1I PREFETCH REQUESTED:          0 ISSUED:          0 USEFUL:          0 USELESS:          0
cpu0_L1I AVERAGE MISS LATENCY: 78.28 cycles
cpu0_L2C TOTAL        ACCESS:    5762326 HIT:    2858674 MISS:    2903652
cpu0_L2C LOAD         ACCESS:    2897730 HIT:     968747 MISS:    1928983
cpu0_L2C RFO          ACCESS:     417933 HIT:     124863 MISS:     293070
cpu0_L2C PREFETCH     ACCESS:          0 HIT:          0 MISS:          0
cpu0_L2C WRITE        ACCESS:    1597010 HIT:    1594346 MISS:       2664
cpu0_L2C TRANSLATION  ACCESS:     849653 HIT:     170718 MISS:     678935
cpu0_L2C PREFETCH REQUESTED:          0 ISSUED:          0 USEFUL:          0 USELESS:          0
cpu0_L2C AVERAGE MISS LATENCY: 931 cycles
cpu0_L2C TOTAL        ACCESS:          0 HIT:          0 MISS:          0
cpu0_L2C LOAD         ACCESS:          0 HIT:          0 MISS:          0
cpu0_L2C RFO          ACCESS:          0 HIT:          0 MISS:          0
cpu0_L2C PREFETCH     ACCESS:          0 HIT:          0 MISS:          0
cpu0_L2C WRITE        ACCESS:          0 HIT:          0 MISS:          0
cpu0_L2C TRANSLATION  ACCESS:          0 HIT:          0 MISS:          0
cpu0_L2C PREFETCH REQUESTED:          0 ISSUED:          0 USEFUL:          0 USELESS:          0
cpu0_L2C AVERAGE MISS LATENCY: 931 cycles
cpu0_L2C TOTAL        ACCESS:          0 HIT:          0 MISS:          0
cpu0_L2C LOAD         ACCESS:          0 HIT:          0 MISS:          0
cpu0_L2C RFO          ACCESS:          0 HIT:          0 MISS:          0
cpu0_L2C PREFETCH     ACCESS:          0 HIT:          0 MISS:          0
cpu0_L2C WRITE        ACCESS:          0 HIT:          0 MISS:          0
cpu0_L2C TRANSLATION  ACCESS:          0 HIT:          0 MISS:          0
cpu0_L2C PREFETCH REQUESTED:          0 ISSUED:          0 USEFUL:          0 USELESS:          0
cpu0_L2C AVERAGE MISS LATENCY: 931 cycles
cpu0_L2C TOTAL        ACCESS:          0 HIT:          0 MISS:          0
cpu0_L2C LOAD         ACCESS:          0 HIT:          0 MISS:          0
cpu0_L2C RFO          ACCESS:          0 HIT:          0 MISS:          0
cpu0_L2C PREFETCH     ACCESS:          0 HIT:          0 MISS:          0
cpu0_L2C WRITE        ACCESS:          0 HIT:          0 MISS:          0
cpu0_L2C TRANSLATION  ACCESS:          0 HIT:          0 MISS:          0
cpu0_L2C PREFETCH REQUESTED:          0 ISSUED:          0 USEFUL:          0 USELESS:          0
cpu0_L2C AVERAGE MISS LATENCY: 931 cycles
cpu0_STLB TOTAL        ACCESS:    3440392 HIT:    2707599 MISS:     732793
cpu0_STLB LOAD         ACCESS:    3440392 HIT:    2707599 MISS:     732793
cpu0_STLB RFO          ACCESS:          0 HIT:          0 MISS:          0
cpu0_STLB PREFETCH     ACCESS:          0 HIT:          0 MISS:          0
cpu0_STLB WRITE        ACCESS:          0 HIT:          0 MISS:          0
cpu0_STLB TRANSLATION  ACCESS:          0 HIT:          0 MISS:          0
cpu0_STLB PREFETCH REQUESTED:          0 ISSUED:          0 USEFUL:          0 USELESS:          0
cpu0_STLB AVERAGE MISS LATENCY: 986.3 cycles
cpu0_STLB TOTAL        ACCESS:          0 HIT:          0 MISS:          0
cpu0_STLB LOAD         ACCESS:          0 HIT:          0 MISS:          0
cpu0_STLB RFO          ACCESS:          0 HIT:          0 MISS:          0
cpu0_STLB PREFETCH     ACCESS:          0 HIT:          0 MISS:          0
cpu0_STLB WRITE        ACCESS:          0 HIT:          0 MISS:          0
cpu0_STLB TRANSLATION  ACCESS:          0 HIT:          0 MISS:          0
cpu0_STLB PREFETCH REQUESTED:          0 ISSUED:          0 USEFUL:          0 USELESS:          0
cpu0_STLB AVERAGE MISS LATENCY: 986.3 cycles
cpu0_STLB TOTAL        ACCESS:          0 HIT:          0 MISS:          0
cpu0_STLB LOAD         ACCESS:          0 HIT:          0 MISS:          0
cpu0_STLB RFO          ACCESS:          0 HIT:          0 MISS:          0
cpu0_STLB PREFETCH     ACCESS:          0 HIT:          0 MISS:          0
cpu0_STLB WRITE        ACCESS:          0 HIT:          0 MISS:          0
cpu0_STLB TRANSLATION  ACCESS:          0 HIT:          0 MISS:          0
cpu0_STLB PREFETCH REQUESTED:          0 ISSUED:          0 USEFUL:          0 USELESS:          0
cpu0_STLB AVERAGE MISS LATENCY: 986.3 cycles
cpu0_STLB TOTAL        ACCESS:          0 HIT:          0 MISS:          0
cpu0_STLB LOAD         ACCESS:          0 HIT:          0 MISS:          0
cpu0_STLB RFO          ACCESS:          0 HIT:          0 MISS:          0
cpu0_STLB PREFETCH     ACCESS:          0 HIT:          0 MISS:          0
cpu0_STLB WRITE        ACCESS:          0 HIT:          0 MISS:          0
cpu0_STLB TRANSLATION  ACCESS:          0 HIT:          0 MISS:          0
cpu0_STLB PREFETCH REQUESTED:          0 ISSUED:          0 USEFUL:          0 USELESS:          0
cpu0_STLB AVERAGE MISS LATENCY: 986.3 cycles
cpu1_DTLB TOTAL        ACCESS:          0 HIT:          0 MISS:          0
cpu1_DTLB LOAD         ACCESS:          0 HIT:          0 MISS:          0
cpu1_DTLB RFO          ACCESS:          0 HIT:          0 MISS:          0
cpu1_DTLB PREFETCH     ACCESS:          0 HIT:          0 MISS:          0
cpu1_DTLB WRITE        ACCESS:          0 HIT:          0 MISS:          0
cpu1_DTLB TRANSLATION  ACCESS:          0 HIT:          0 MISS:          0
cpu1_DTLB PREFETCH REQUESTED:          0 ISSUED:          0 USEFUL:          0 USELESS:          0
cpu1_DTLB AVERAGE MISS LATENCY: 8.436 cycles
cpu1_DTLB TOTAL        ACCESS:  148007650 HIT:   86358991 MISS:   61648659
cpu1_DTLB LOAD         ACCESS:  148007650 HIT:   86358991 MISS:   61648659
cpu1_DTLB RFO          ACCESS:          0 HIT:          0 MISS:          0
cpu1_DTLB PREFETCH     ACCESS:          0 HIT:          0 MISS:          0
cpu1_DTLB WRITE        ACCESS:          0 HIT:          0 MISS:          0
cpu1_DTLB TRANSLATION  ACCESS:          0 HIT:          0 MISS:          0
cpu1_DTLB PREFETCH REQUESTED:          0 ISSUED:          0 USEFUL:          0 USELESS:          0
cpu1_DTLB AVERAGE MISS LATENCY: 8.436 cycles
cpu1_DTLB TOTAL        ACCESS:          0 HIT:          0 MISS:          0
cpu1_DTLB LOAD         ACCESS:          0 HIT:          0 MISS:          0
cpu1_DTLB RFO          ACCESS:          0 HIT:          0 MISS:          0
cpu1_DTLB PREFETCH     ACCESS:          0 HIT:          0 MISS:          0
cpu1_DTLB WRITE        ACCESS:          0 HIT:          0 MISS:          0
cpu1_DTLB TRANSLATION  ACCESS:          0 HIT:          0 MISS:          0
cpu1_DTLB PREFETCH REQUESTED:          0 ISSUED:          0 USEFUL:          0 USELESS:          0
cpu1_DTLB AVERAGE MISS LATENCY: 8.436 cycles
cpu1_DTLB TOTAL        ACCESS:          0 HIT:          0 MISS:          0
cpu1_DTLB LOAD         ACCESS:          0 HIT:          0 MISS:          0
cpu1_DTLB RFO          ACCESS:          0 HIT:          0 MISS:          0
cpu1_DTLB PREFETCH     ACCESS:          0 HIT:          0 MISS:          0
cpu1_DTLB WRITE        ACCESS:          0 HIT:          0 MISS:          0
cpu1_DTLB TRANSLATION  ACCESS:          0 HIT:          0 MISS:          0
cpu1_DTLB PREFETCH REQUESTED:          0 ISSUED:          0 USEFUL:          0 USELESS:          0
cpu1_DTLB AVERAGE MISS LATENCY: 8.436 cycles
cpu1_ITLB TOTAL        ACCESS:          0 HIT:          0 MISS:          0
cpu1_ITLB LOAD         ACCESS:          0 HIT:          0 MISS:          0
cpu1_ITLB RFO          ACCESS:          0 HIT:          0 MISS:          0
cpu1_ITLB PREFETCH     ACCESS:          0 HIT:          0 MISS:          0
cpu1_ITLB WRITE        ACCESS:          0 HIT:          0 MISS:          0
cpu1_ITLB TRANSLATION  ACCESS:          0 HIT:          0 MISS:          0
cpu1_ITLB PREFETCH REQUESTED:          0 ISSUED:          0 USEFUL:          0 USELESS:          0
cpu1_ITLB AVERAGE MISS LATENCY: -nan cycles
cpu1_ITLB TOTAL        ACCESS:   91845347 HIT:   91845347 MISS:          0
cpu1_ITLB LOAD         ACCESS:   91845347 HIT:   91845347 MISS:          0
cpu1_ITLB RFO          ACCESS:          0 HIT:          0 MISS:          0
cpu1_ITLB PREFETCH     ACCESS:          0 HIT:          0 MISS:          0
cpu1_ITLB WRITE        ACCESS:          0 HIT:          0 MISS:          0
cpu1_ITLB TRANSLATION  ACCESS:          0 HIT:          0 MISS:          0
cpu1_ITLB PREFETCH REQUESTED:          0 ISSUED:          0 USEFUL:          0 USELESS:          0
cpu1_ITLB AVERAGE MISS LATENCY: -nan cycles
cpu1_ITLB TOTAL        ACCESS:          0 HIT:          0 MISS:          0
cpu1_ITLB LOAD         ACCESS:          0 HIT:          0 MISS:          0
cpu1_ITLB RFO          ACCESS:          0 HIT:          0 MISS:          0
cpu1_ITLB PREFETCH     ACCESS:          0 HIT:          0 MISS:          0
cpu1_ITLB WRITE        ACCESS:          0 HIT:          0 MISS:          0
cpu1_ITLB TRANSLATION  ACCESS:          0 HIT:          0 MISS:          0
cpu1_ITLB PREFETCH REQUESTED:          0 ISSUED:          0 USEFUL:          0 USELESS:          0
cpu1_ITLB AVERAGE MISS LATENCY: -nan cycles
cpu1_ITLB TOTAL        ACCESS:          0 HIT:          0 MISS:          0
cpu1_ITLB LOAD         ACCESS:          0 HIT:          0 MISS:          0
cpu1_ITLB RFO          ACCESS:          0 HIT:          0 MISS:          0
cpu1_ITLB PREFETCH     ACCESS:          0 HIT:          0 MISS:          0
cpu1_ITLB WRITE        ACCESS:          0 HIT:          0 MISS:          0
cpu1_ITLB TRANSLATION  ACCESS:          0 HIT:          0 MISS:          0
cpu1_ITLB PREFETCH REQUESTED:          0 ISSUED:          0 USEFUL:          0 USELESS:          0
cpu1_ITLB AVERAGE MISS LATENCY: -nan cycles
cpu1_L1D TOTAL        ACCESS:          0 HIT:          0 MISS:          0
cpu1_L1D LOAD         ACCESS:          0 HIT:          0 MISS:          0
cpu1_L1D RFO          ACCESS:          0 HIT:          0 MISS:          0
cpu1_L1D PREFETCH     ACCESS:          0 HIT:          0 MISS:          0
cpu1_L1D WRITE        ACCESS:          0 HIT:          0 MISS:          0
cpu1_L1D TRANSLATION  ACCESS:          0 HIT:          0 MISS:          0
cpu1_L1D PREFETCH REQUESTED:          0 ISSUED:          0 USEFUL:          0 USELESS:          0
cpu1_L1D AVERAGE MISS LATENCY: 153.2 cycles
cpu1_L1D TOTAL        ACCESS:  184179188 HIT:  102364451 MISS:   81814737
cpu1_L1D LOAD         ACCESS:  103640019 HIT:   26128688 MISS:   77511331
cpu1_L1D RFO          ACCESS:          0 HIT:          0 MISS:          0
cpu1_L1D PREFETCH     ACCESS:          0 HIT:          0 MISS:          0
cpu1_L1D WRITE        ACCESS:   80405996 HIT:   76234592 MISS:    4171404
cpu1_L1D TRANSLATION  ACCESS:     133173 HIT:       1171 MISS:     132002
cpu1_L1D PREFETCH REQUESTED:          0 ISSUED:          0 USEFUL:          0 USELESS:          0
cpu1_L1D AVERAGE MISS LATENCY: 153.2 cycles
cpu1_L1D TOTAL        ACCESS:          0 HIT:          0 MISS:          0
cpu1_L1D LOAD         ACCESS:          0 HIT:          0 MISS:          0
cpu1_L1D RFO          ACCESS:          0 HIT:          0 MISS:          0
cpu1_L1D PREFETCH     ACCESS:          0 HIT:          0 MISS:          0
cpu1_L1D WRITE        ACCESS:          0 HIT:          0 MISS:          0
cpu1_L1D TRANSLATION  ACCESS:          0 HIT:          0 MISS:          0
cpu1_L1D PREFETCH REQUESTED:          0 ISSUED:          0 USEFUL:          0 USELESS:          0
cpu1_L1D AVERAGE MISS LATENCY: 153.2 cycles
cpu1_L1D TOTAL        ACCESS:          0 HIT:          0 MISS:          0
cpu1_L1D LOAD         ACCESS:          0 HIT:          0 MISS:          0
cpu1_L1D RFO          ACCESS:          0 HIT:          0 MISS:          0
cpu1_L1D PREFETCH     ACCESS:          0 HIT:          0 MISS:          0
cpu1_L1D WRITE        ACCESS:          0 HIT:          0 MISS:          0
cpu1_L1D TRANSLATION  ACCESS:          0 HIT:          0 MISS:          0
cpu1_L1D PREFETCH REQUESTED:          0 ISSUED:          0 USEFUL:          0 USELESS:          0
cpu1_L1D AVERAGE MISS LATENCY: 153.2 cycles
cpu1_L1I TOTAL        ACCESS:          0 HIT:          0 MISS:          0
cpu1_L1I LOAD         ACCESS:          0 HIT:          0 MISS:          0
cpu1_L1I RFO          ACCESS:          0 HIT:          0 MISS:          0
cpu1_L1I PREFETCH     ACCESS:          0 HIT:          0 MISS:          0
cpu1_L1I WRITE        ACCESS:          0 HIT:          0 MISS:          0
cpu1_L1I TRANSLATION  ACCESS:          0 HIT:          0 MISS:          0
cpu1_L1I PREFETCH REQUESTED:          0 ISSUED:          0 USEFUL:          0 USELESS:          0
cpu1_L1I AVERAGE MISS LATENCY: -nan cycles
cpu1_L1I TOTAL        ACCESS:  120330400 HIT:  120330400 MISS:          0
cpu1_L1I LOAD         ACCESS:  120330400 HIT:  120330400 MISS:          0
cpu1_L1I RFO          ACCESS:          0 HIT:          0 MISS:          0
cpu1_L1I PREFETCH     ACCESS:          0 HIT:          0 MISS:          0
cpu1_L1I WRITE        ACCESS:          0 HIT:          0 MISS:          0
cpu1_L1I TRANSLATION  ACCESS:          0 HIT:          0 MISS:          0
cpu1_L1I PREFETCH REQUESTED:          0 ISSUED:          0 USEFUL:          0 USELESS:          0
cpu1_L1I AVERAGE MISS LATENCY: -nan cycles
cpu1_L1I TOTAL        ACCESS:          0 HIT:          0 MISS:          0
cpu1_L1I LOAD         ACCESS:          0 HIT:          0 MISS:          0
cpu1_L1I RFO          ACCESS:          0 HIT:          0 MISS:          0
cpu1_L1I PREFETCH     ACCESS:          0 HIT:          0 MISS:          0
cpu1_L1I WRITE        ACCESS:          0 HIT:          0 MISS:          0
cpu1_L1I TRANSLATION  ACCESS:          0 HIT:          0 MISS:          0
cpu1_L1I PREFETCH REQUESTED:          0 ISSUED:          0 USEFUL:          0 USELESS:          0
cpu1_L1I AVERAGE MISS LATENCY: -nan cycles
cpu1_L1I TOTAL        ACCESS:          0 HIT:          0 MISS:          0
cpu1_L1I LOAD         ACCESS:          0 HIT:          0 MISS:          0
cpu1_L1I RFO          ACCESS:          0 HIT:          0 MISS:          0
cpu1_L1I PREFETCH     ACCESS:          0 HIT:          0 MISS:          0
cpu1_L1I WRITE        ACCESS:          0 HIT:          0 MISS:          0
cpu1_L1I TRANSLATION  ACCESS:          0 HIT:          0 MISS:          0
cpu1_L1I PREFETCH REQUESTED:          0 ISSUED:          0 USEFUL:          0 USELESS:          0
cpu1_L1I AVERAGE MISS LATENCY: -nan cycles
cpu1_L2C TOTAL        ACCESS:          0 HIT:          0 MISS:          0
cpu1_L2C LOAD         ACCESS:          0 HIT:          0 MISS:          0
cpu1_L2C RFO          ACCESS:          0 HIT:          0 MISS:          0
cpu1_L2C PREFETCH     ACCESS:          0 HIT:          0 MISS:          0
cpu1_L2C WRITE        ACCESS:          0 HIT:          0 MISS:          0
cpu1_L2C TRANSLATION  ACCESS:          0 HIT:          0 MISS:          0
cpu1_L2C PREFETCH REQUESTED:          0 ISSUED:          0 USEFUL:          0 USELESS:          0
cpu1_L2C AVERAGE MISS LATENCY: 1554 cycles
cpu1_L2C TOTAL        ACCESS:   85952707 HIT:   78415285 MISS:    7537422
cpu1_L2C LOAD         ACCESS:   76629971 HIT:   69219814 MISS:    7410157
cpu1_L2C RFO          ACCESS:    3100349 HIT:    3079033 MISS:      21316
cpu1_L2C PREFETCH     ACCESS:          0 HIT:          0 MISS:          0
cpu1_L2C WRITE        ACCESS:    6090471 HIT:    6090471 MISS:          0
cpu1_L2C TRANSLATION  ACCESS:     131916 HIT:      25967 MISS:     105949
cpu1_L2C PREFETCH REQUESTED:          0 ISSUED:          0 USEFUL:          0 USELESS:          0
cpu1_L2C AVERAGE MISS LATENCY: 1554 cycles
cpu1_L2C TOTAL        ACCESS:          0 HIT:          0 MISS:          0
cpu1_L2C LOAD         ACCESS:          0 HIT:          0 MISS:          0
cpu1_L2C RFO          ACCESS:          0 HIT:          0 MISS:          0
cpu1_L2C PREFETCH     ACCESS:          0 HIT:          0 MISS:          0
cpu1_L2C WRITE        ACCESS:          0 HIT:          0 MISS:          0
cpu1_L2C TRANSLATION  ACCESS:          0 HIT:          0 MISS:          0
cpu1_L2C PREFETCH REQUESTED:          0 ISSUED:          0 USEFUL:          0 USELESS:          0
cpu1_L2C AVERAGE MISS LATENCY: 1554 cycles
cpu1_L2C TOTAL        ACCESS:          0 HIT:          0 MISS:          0
cpu1_L2C LOAD         ACCESS:          0 HIT:          0 MISS:          0
cpu1_L2C RFO          ACCESS:          0 HIT:          0 MISS:          0
cpu1_L2C PREFETCH     ACCESS:          0 HIT:          0 MISS:          0
cpu1_L2C WRITE        ACCESS:          0 HIT:          0 MISS:          0
cpu1_L2C TRANSLATION  ACCESS:          0 HIT:          0 MISS:          0
cpu1_L2C PREFETCH REQUESTED:          0 ISSUED:          0 USEFUL:          0 USELESS:          0
cpu1_L2C AVERAGE MISS LATENCY: 1554 cycles
cpu1_STLB TOTAL        ACCESS:          0 HIT:          0 MISS:          0
cpu1_STLB LOAD         ACCESS:          0 HIT:          0 MISS:          0
cpu1_STLB RFO          ACCESS:          0 HIT:          0 MISS:          0
cpu1_STLB PREFETCH     ACCESS:          0 HIT:          0 MISS:          0
cpu1_STLB WRITE        ACCESS:          0 HIT:          0 MISS:          0
cpu1_STLB TRANSLATION  ACCESS:          0 HIT:          0 MISS:          0
cpu1_STLB PREFETCH REQUESTED:          0 ISSUED:          0 USEFUL:          0 USELESS:          0
cpu1_STLB AVERAGE MISS LATENCY: 1644 cycles
cpu1_STLB TOTAL        ACCESS:   53101834 HIT:   53016184 MISS:      85650
cpu1_STLB LOAD         ACCESS:   53101834 HIT:   53016184 MISS:      85650
cpu1_STLB RFO          ACCESS:          0 HIT:          0 MISS:          0
cpu1_STLB PREFETCH     ACCESS:          0 HIT:          0 MISS:          0
cpu1_STLB WRITE        ACCESS:          0 HIT:          0 MISS:          0
cpu1_STLB TRANSLATION  ACCESS:          0 HIT:          0 MISS:          0
cpu1_STLB PREFETCH REQUESTED:          0 ISSUED:          0 USEFUL:          0 USELESS:          0
cpu1_STLB AVERAGE MISS LATENCY: 1644 cycles
cpu1_STLB TOTAL        ACCESS:          0 HIT:          0 MISS:          0
cpu1_STLB LOAD         ACCESS:          0 HIT:          0 MISS:          0
cpu1_STLB RFO          ACCESS:          0 HIT:          0 MISS:          0
cpu1_STLB PREFETCH     ACCESS:          0 HIT:          0 MISS:          0
cpu1_STLB WRITE        ACCESS:          0 HIT:          0 MISS:          0
cpu1_STLB TRANSLATION  ACCESS:          0 HIT:          0 MISS:          0
cpu1_STLB PREFETCH REQUESTED:          0 ISSUED:          0 USEFUL:          0 USELESS:          0
cpu1_STLB AVERAGE MISS LATENCY: 1644 cycles
cpu1_STLB TOTAL        ACCESS:          0 HIT:          0 MISS:          0
cpu1_STLB LOAD         ACCESS:          0 HIT:          0 MISS:          0
cpu1_STLB RFO          ACCESS:          0 HIT:          0 MISS:          0
cpu1_STLB PREFETCH     ACCESS:          0 HIT:          0 MISS:          0
cpu1_STLB WRITE        ACCESS:          0 HIT:          0 MISS:          0
cpu1_STLB TRANSLATION  ACCESS:          0 HIT:          0 MISS:          0
cpu1_STLB PREFETCH REQUESTED:          0 ISSUED:          0 USEFUL:          0 USELESS:          0
cpu1_STLB AVERAGE MISS LATENCY: 1644 cycles
cpu2_DTLB TOTAL        ACCESS:          0 HIT:          0 MISS:          0
cpu2_DTLB LOAD         ACCESS:          0 HIT:          0 MISS:          0
cpu2_DTLB RFO          ACCESS:          0 HIT:          0 MISS:          0
cpu2_DTLB PREFETCH     ACCESS:          0 HIT:          0 MISS:          0
cpu2_DTLB WRITE        ACCESS:          0 HIT:          0 MISS:          0
cpu2_DTLB TRANSLATION  ACCESS:          0 HIT:          0 MISS:          0
cpu2_DTLB PREFETCH REQUESTED:          0 ISSUED:          0 USEFUL:          0 USELESS:          0
cpu2_DTLB AVERAGE MISS LATENCY: 11.6 cycles
cpu2_DTLB TOTAL        ACCESS:          0 HIT:          0 MISS:          0
cpu2_DTLB LOAD         ACCESS:          0 HIT:          0 MISS:          0
cpu2_DTLB RFO          ACCESS:          0 HIT:          0 MISS:          0
cpu2_DTLB PREFETCH     ACCESS:          0 HIT:          0 MISS:          0
cpu2_DTLB WRITE        ACCESS:          0 HIT:          0 MISS:          0
cpu2_DTLB TRANSLATION  ACCESS:          0 HIT:          0 MISS:          0
cpu2_DTLB PREFETCH REQUESTED:          0 ISSUED:          0 USEFUL:          0 USELESS:          0
cpu2_DTLB AVERAGE MISS LATENCY: 11.6 cycles
cpu2_DTLB TOTAL        ACCESS:   41012908 HIT:   38449050 MISS:    2563858
cpu2_DTLB LOAD         ACCESS:   41012908 HIT:   38449050 MISS:    2563858
cpu2_DTLB RFO          ACCESS:          0 HIT:          0 MISS:          0
cpu2_DTLB PREFETCH     ACCESS:          0 HIT:          0 MISS:          0
cpu2_DTLB WRITE        ACCESS:          0 HIT:          0 MISS:          0
cpu2_DTLB TRANSLATION  ACCESS:          0 HIT:          0 MISS:          0
cpu2_DTLB PREFETCH REQUESTED:          0 ISSUED:          0 USEFUL:          0 USELESS:          0
cpu2_DTLB AVERAGE MISS LATENCY: 11.6 cycles
cpu2_DTLB TOTAL        ACCESS:          0 HIT:          0 MISS:          0
cpu2_DTLB LOAD         ACCESS:          0 HIT:          0 MISS:          0
cpu2_DTLB RFO          ACCESS:          0 HIT:          0 MISS:          0
cpu2_DTLB PREFETCH     ACCESS:          0 HIT:          0 MISS:          0
cpu2_DTLB WRITE        ACCESS:          0 HIT:          0 MISS:          0
cpu2_DTLB TRANSLATION  ACCESS:          0 HIT:          0 MISS:          0
cpu2_DTLB PREFETCH REQUESTED:          0 ISSUED:          0 USEFUL:          0 USELESS:          0
cpu2_DTLB AVERAGE MISS LATENCY: 11.6 cycles
cpu2_ITLB TOTAL        ACCESS:          0 HIT:          0 MISS:          0
cpu2_ITLB LOAD         ACCESS:          0 HIT:          0 MISS:          0
cpu2_ITLB RFO          ACCESS:          0 HIT:          0 MISS:          0
cpu2_ITLB PREFETCH     ACCESS:          0 HIT:          0 MISS:          0
cpu2_ITLB WRITE        ACCESS:          0 HIT:          0 MISS:          0
cpu2_ITLB TRANSLATION  ACCESS:          0 HIT:          0 MISS:          0
cpu2_ITLB PREFETCH REQUESTED:          0 ISSUED:          0 USEFUL:          0 USELESS:          0
cpu2_ITLB AVERAGE MISS LATENCY: -nan cycles
cpu2_ITLB TOTAL        ACCESS:          0 HIT:          0 MISS:          0
cpu2_ITLB LOAD         ACCESS:          0 HIT:          0 MISS:          0
cpu2_ITLB RFO          ACCESS:          0 HIT:          0 MISS:          0
cpu2_ITLB PREFETCH     ACCESS:          0 HIT:          0 MISS:          0
cpu2_ITLB WRITE        ACCESS:          0 HIT:          0 MISS:          0
cpu2_ITLB TRANSLATION  ACCESS:          0 HIT:          0 MISS:          0
cpu2_ITLB PREFETCH REQUESTED:          0 ISSUED:          0 USEFUL:          0 USELESS:          0
cpu2_ITLB AVERAGE MISS LATENCY: -nan cycles
cpu2_ITLB TOTAL        ACCESS:      47827 HIT:      47827 MISS:          0
cpu2_ITLB LOAD         ACCESS:      47827 HIT:      47827 MISS:          0
cpu2_ITLB RFO          ACCESS:          0 HIT:          0 MISS:          0
cpu2_ITLB PREFETCH     ACCESS:          0 HIT:          0 MISS:          0
cpu2_ITLB WRITE        ACCESS:          0 HIT:          0 MISS:          0
cpu2_ITLB TRANSLATION  ACCESS:          0 HIT:          0 MISS:          0
cpu2_ITLB PREFETCH REQUESTED:          0 ISSUED:          0 USEFUL:          0 USELESS:          0
cpu2_ITLB AVERAGE MISS LATENCY: -nan cycles
cpu2_ITLB TOTAL        ACCESS:          0 HIT:          0 MISS:          0
cpu2_ITLB LOAD         ACCESS:          0 HIT:          0 MISS:          0
cpu2_ITLB RFO          ACCESS:          0 HIT:          0 MISS:          0
cpu2_ITLB PREFETCH     ACCESS:          0 HIT:          0 MISS:          0
cpu2_ITLB WRITE        ACCESS:          0 HIT:          0 MISS:          0
cpu2_ITLB TRANSLATION  ACCESS:          0 HIT:          0 MISS:          0
cpu2_ITLB PREFETCH REQUESTED:          0 ISSUED:          0 USEFUL:          0 USELESS:          0
cpu2_ITLB AVERAGE MISS LATENCY: -nan cycles
cpu2_L1D TOTAL        ACCESS:          0 HIT:          0 MISS:          0
cpu2_L1D LOAD         ACCESS:          0 HIT:          0 MISS:          0
cpu2_L1D RFO          ACCESS:          0 HIT:          0 MISS:          0
cpu2_L1D PREFETCH     ACCESS:          0 HIT:          0 MISS:          0
cpu2_L1D WRITE        ACCESS:          0 HIT:          0 MISS:          0
cpu2_L1D TRANSLATION  ACCESS:          0 HIT:          0 MISS:          0
cpu2_L1D PREFETCH REQUESTED:          0 ISSUED:          0 USEFUL:          0 USELESS:          0
cpu2_L1D AVERAGE MISS LATENCY: 272.2 cycles
cpu2_L1D TOTAL        ACCESS:          0 HIT:          0 MISS:          0
cpu2_L1D LOAD         ACCESS:          0 HIT:          0 MISS:          0
cpu2_L1D RFO          ACCESS:          0 HIT:          0 MISS:          0
cpu2_L1D PREFETCH     ACCESS:          0 HIT:          0 MISS:          0
cpu2_L1D WRITE        ACCESS:          0 HIT:          0 MISS:          0
cpu2_L1D TRANSLATION  ACCESS:          0 HIT:          0 MISS:          0
cpu2_L1D PREFETCH REQUESTED:          0 ISSUED:          0 USEFUL:          0 USELESS:          0
cpu2_L1D AVERAGE MISS LATENCY: 272.2 cycles
cpu2_L1D TOTAL        ACCESS:   52621887 HIT:   45509349 MISS:    7112538
cpu2_L1D LOAD         ACCESS:   34888162 HIT:   29361745 MISS:    5526417
cpu2_L1D RFO          ACCESS:          0 HIT:          0 MISS:          0
cpu2_L1D PREFETCH     ACCESS:          0 HIT:          0 MISS:          0
cpu2_L1D WRITE        ACCESS:   17702527 HIT:   16133203 MISS:    1569324
cpu2_L1D TRANSLATION  ACCESS:      31198 HIT:      14401 MISS:      16797
cpu2_L1D PREFETCH REQUESTED:          0 ISSUED:          0 USEFUL:          0 USELESS:          0
cpu2_L1D AVERAGE MISS LATENCY: 272.2 cycles
cpu2_L1D TOTAL        ACCESS:          0 HIT:          0 MISS:          0
cpu2_L1D LOAD         ACCESS:          0 HIT:          0 MISS:          0
cpu2_L1D RFO          ACCESS:          0 HIT:          0 MISS:          0
cpu2_L1D PREFETCH     ACCESS:          0 HIT:          0 MISS:          0
cpu2_L1D WRITE        ACCESS:          0 HIT:          0 MISS:          0
cpu2_L1D TRANSLATION  ACCESS:          0 HIT:          0 MISS:          0
cpu2_L1D PREFETCH REQUESTED:          0 ISSUED:          0 USEFUL:          0 USELESS:          0
cpu2_L1D AVERAGE MISS LATENCY: 272.2 cycles
cpu2_L1I TOTAL        ACCESS:          0 HIT:          0 MISS:          0
cpu2_L1I LOAD         ACCESS:          0 HIT:          0 MISS:          0
cpu2_L1I RFO          ACCESS:          0 HIT:          0 MISS:          0
cpu2_L1I PREFETCH     ACCESS:          0 HIT:          0 MISS:          0
cpu2_L1I WRITE        ACCESS:          0 HIT:          0 MISS:          0
cpu2_L1I TRANSLATION  ACCESS:          0 HIT:          0 MISS:          0
cpu2_L1I PREFETCH REQUESTED:          0 ISSUED:          0 USEFUL:          0 USELESS:          0
cpu2_L1I AVERAGE MISS LATENCY: 196.5 cycles
cpu2_L1I TOTAL        ACCESS:          0 HIT:          0 MISS:          0
cpu2_L1I LOAD         ACCESS:          0 HIT:          0 MISS:          0
cpu2_L1I RFO          ACCESS:          0 HIT:          0 MISS:          0
cpu2_L1I PREFETCH     ACCESS:          0 HIT:          0 MISS:          0
cpu2_L1I WRITE        ACCESS:          0 HIT:          0 MISS:          0
cpu2_L1I TRANSLATION  ACCESS:          0 HIT:          0 MISS:          0
cpu2_L1I PREFETCH REQUESTED:          0 ISSUED:          0 USEFUL:          0 USELESS:          0
cpu2_L1I AVERAGE MISS LATENCY: 196.5 cycles
cpu2_L1I TOTAL        ACCESS:      53674 HIT:      53672 MISS:          2
cpu2_L1I LOAD         ACCESS:      53674 HIT:      53672 MISS:          2
cpu2_L1I RFO          ACCESS:          0 HIT:          0 MISS:          0
cpu2_L1I PREFETCH     ACCESS:          0 HIT:          0 MISS:          0
cpu2_L1I WRITE        ACCESS:          0 HIT:          0 MISS:          0
cpu2_L1I TRANSLATION  ACCESS:          0 HIT:          0 MISS:          0
cpu2_L1I PREFETCH REQUESTED:          0 ISSUED:          0 USEFUL:          0 USELESS:          0
cpu2_L1I AVERAGE MISS LATENCY: 196.5 cycles
cpu2_L1I TOTAL        ACCESS:          0 HIT:          0 MISS:          0
cpu2_L1I LOAD         ACCESS:          0 HIT:          0 MISS:          0
cpu2_L1I RFO          ACCESS:          0 HIT:          0 MISS:          0
cpu2_L1I PREFETCH     ACCESS:          0 HIT:          0 MISS:          0
cpu2_L1I WRITE        ACCESS:          0 HIT:          0 MISS:          0
cpu2_L1I TRANSLATION  ACCESS:          0 HIT:          0 MISS:          0
cpu2_L1I PREFETCH REQUESTED:          0 ISSUED:          0 USEFUL:          0 USELESS:          0
cpu2_L1I AVERAGE MISS LATENCY: 196.5 cycles
cpu2_L2C TOTAL        ACCESS:          0 HIT:          0 MISS:          0
cpu2_L2C LOAD         ACCESS:          0 HIT:          0 MISS:          0
cpu2_L2C RFO          ACCESS:          0 HIT:          0 MISS:          0
cpu2_L2C PREFETCH     ACCESS:          0 HIT:          0 MISS:          0
cpu2_L2C WRITE        ACCESS:          0 HIT:          0 MISS:          0
cpu2_L2C TRANSLATION  ACCESS:          0 HIT:          0 MISS:          0
cpu2_L2C PREFETCH REQUESTED:          0 ISSUED:          0 USEFUL:          0 USELESS:          0
cpu2_L2C AVERAGE MISS LATENCY: 579.6 cycles
cpu2_L2C TOTAL        ACCESS:          0 HIT:          0 MISS:          0
cpu2_L2C LOAD         ACCESS:          0 HIT:          0 MISS:          0
cpu2_L2C RFO          ACCESS:          0 HIT:          0 MISS:          0
cpu2_L2C PREFETCH     ACCESS:          0 HIT:          0 MISS:          0
cpu2_L2C WRITE        ACCESS:          0 HIT:          0 MISS:          0
cpu2_L2C TRANSLATION  ACCESS:          0 HIT:          0 MISS:          0
cpu2_L2C PREFETCH REQUESTED:          0 ISSUED:          0 USEFUL:          0 USELESS:          0
cpu2_L2C AVERAGE MISS LATENCY: 579.6 cycles
cpu2_L2C TOTAL        ACCESS:    5981198 HIT:    2721534 MISS:    3259664
cpu2_L2C LOAD         ACCESS:    4606807 HIT:    1610370 MISS:    2996437
cpu2_L2C RFO          ACCESS:     573054 HIT:     324277 MISS:     248777
cpu2_L2C PREFETCH     ACCESS:          0 HIT:          0 MISS:          0
cpu2_L2C WRITE        ACCESS:     784542 HIT:     784064 MISS:        478
cpu2_L2C TRANSLATION  ACCESS:      16795 HIT:       2823 MISS:      13972
cpu2_L2C PREFETCH REQUESTED:          0 ISSUED:          0 USEFUL:          0 USELESS:          0
cpu2_L2C AVERAGE MISS LATENCY: 579.6 cycles
cpu2_L2C TOTAL        ACCESS:          0 HIT:          0 MISS:          0
cpu2_L2C LOAD         ACCESS:          0 HIT:          0 MISS:          0
cpu2_L2C RFO          ACCESS:          0 HIT:          0 MISS:          0
cpu2_L2C PREFETCH     ACCESS:          0 HIT:          0 MISS:          0
cpu2_L2C WRITE        ACCESS:          0 HIT:          0 MISS:          0
cpu2_L2C TRANSLATION  ACCESS:          0 HIT:          0 MISS:          0
cpu2_L2C PREFETCH REQUESTED:          0 ISSUED:          0 USEFUL:          0 USELESS:          0
cpu2_L2C AVERAGE MISS LATENCY: 579.6 cycles
cpu2_STLB TOTAL        ACCESS:          0 HIT:          0 MISS:          0
cpu2_STLB LOAD         ACCESS:          0 HIT:          0 MISS:          0
cpu2_STLB RFO          ACCESS:          0 HIT:          0 MISS:          0
cpu2_STLB PREFETCH     ACCESS:          0 HIT:          0 MISS:          0
cpu2_STLB WRITE        ACCESS:          0 HIT:          0 MISS:          0
[...]
cpu2_L1I WRITE        ACCESS:          0 HIT:          0 MISS:          0
cpu2_L1I TRANSLATION  ACCESS:          0 HIT:          0 MISS:          0
cpu2_L1I PREFETCH REQUESTED:          0 ISSUED:          0 USEFUL:          0 USELESS:          0
cpu2_L1I AVERAGE MISS LATENCY: 196.5 cycles
cpu2_L1I TOTAL        ACCESS:          0 HIT:          0 MISS:          0
cpu2_L1I LOAD         ACCESS:          0 HIT:          0 MISS:          0
cpu2_L1I RFO          ACCESS:          0 HIT:          0 MISS:          0
cpu2_L1I PREFETCH     ACCESS:          0 HIT:          0 MISS:          0
cpu2_L1I WRITE        ACCESS:          0 HIT:          0 MISS:          0
cpu2_L1I TRANSLATION  ACCESS:          0 HIT:          0 MISS:          0
cpu2_L1I PREFETCH REQUESTED:          0 ISSUED:          0 USEFUL:          0 USELESS:          0
cpu2_L1I AVERAGE MISS LATENCY: 196.5 cycles
cpu2_L2C TOTAL        ACCESS:          0 HIT:          0 MISS:          0
cpu2_L2C LOAD         ACCESS:          0 HIT:          0 MISS:          0
cpu2_L2C RFO          ACCESS:          0 HIT:          0 MISS:          0
cpu2_L2C PREFETCH     ACCESS:          0 HIT:          0 MISS:          0
cpu2_L2C WRITE        ACCESS:          0 HIT:          0 MISS:          0
cpu2_L2C TRANSLATION  ACCESS:          0 HIT:          0 MISS:          0
cpu2_L2C PREFETCH REQUESTED:          0 ISSUED:          0 USEFUL:          0 USELESS:          0
cpu2_L2C AVERAGE MISS LATENCY: 579.6 cycles
cpu2_L2C TOTAL        ACCESS:          0 HIT:          0 MISS:          0
cpu2_L2C LOAD         ACCESS:          0 HIT:          0 MISS:          0
cpu2_L2C RFO          ACCESS:          0 HIT:          0 MISS:          0
cpu2_L2C PREFETCH     ACCESS:          0 HIT:          0 MISS:          0
cpu2_L2C WRITE        ACCESS:          0 HIT:          0 MISS:          0
cpu2_L2C TRANSLATION  ACCESS:          0 HIT:          0 MISS:          0
cpu2_L2C PREFETCH REQUESTED:          0 ISSUED:          0 USEFUL:          0 USELESS:          0
cpu2_L2C AVERAGE MISS LATENCY: 579.6 cycles
cpu2_L2C TOTAL        ACCESS:    5981198 HIT:    2721534 MISS:    3259664
cpu2_L2C LOAD         ACCESS:    4606807 HIT:    1610370 MISS:    2996437
cpu2_L2C RFO          ACCESS:     573054 HIT:     324277 MISS:     248777
cpu2_L2C PREFETCH     ACCESS:          0 HIT:          0 MISS:          0
cpu2_L2C WRITE        ACCESS:     784542 HIT:     784064 MISS:        478
cpu2_L2C TRANSLATION  ACCESS:      16795 HIT:       2823 MISS:      13972
cpu2_L2C PREFETCH REQUESTED:          0 ISSUED:          0 USEFUL:          0 USELESS:          0
cpu2_L2C AVERAGE MISS LATENCY: 579.6 cycles
cpu2_L2C TOTAL        ACCESS:          0 HIT:          0 MISS:          0
cpu2_L2C LOAD         ACCESS:          0 HIT:          0 MISS:          0
cpu2_L2C RFO          ACCESS:          0 HIT:          0 MISS:          0
cpu2_L2C PREFETCH     ACCESS:          0 HIT:          0 MISS:          0
cpu2_L2C WRITE        ACCESS:          0 HIT:          0 MISS:          0
cpu2_L2C TRANSLATION  ACCESS:          0 HIT:          0 MISS:          0
cpu2_L2C PREFETCH REQUESTED:          0 ISSUED:          0 USEFUL:          0 USELESS:          0
cpu2_L2C AVERAGE MISS LATENCY: 579.6 cycles
cpu2_STLB TOTAL        ACCESS:          0 HIT:          0 MISS:          0
cpu2_STLB LOAD         ACCESS:          0 HIT:          0 MISS:          0
cpu2_STLB RFO          ACCESS:          0 HIT:          0 MISS:          0
cpu2_STLB PREFETCH     ACCESS:          0 HIT:          0 MISS:          0
cpu2_STLB WRITE        ACCESS:          0 HIT:          0 MISS:          0
cpu2_STLB TRANSLATION  ACCESS:          0 HIT:          0 MISS:          0
cpu2_STLB PREFETCH REQUESTED:          0 ISSUED:          0 USEFUL:          0 USELESS:          0
cpu2_STLB AVERAGE MISS LATENCY: 434.3 cycles
cpu2_STLB TOTAL        ACCESS:          0 HIT:          0 MISS:          0
cpu2_STLB LOAD         ACCESS:          0 HIT:          0 MISS:          0
cpu2_STLB RFO          ACCESS:          0 HIT:          0 MISS:          0
cpu2_STLB PREFETCH     ACCESS:          0 HIT:          0 MISS:          0
cpu2_STLB WRITE        ACCESS:          0 HIT:          0 MISS:          0
cpu2_STLB TRANSLATION  ACCESS:          0 HIT:          0 MISS:          0
cpu2_STLB PREFETCH REQUESTED:          0 ISSUED:          0 USEFUL:          0 USELESS:          0
cpu2_STLB AVERAGE MISS LATENCY: 434.3 cycles
cpu2_STLB TOTAL        ACCESS:    2217525 HIT:    2186565 MISS:      30960
cpu2_STLB LOAD         ACCESS:    2217525 HIT:    2186565 MISS:      30960
cpu2_STLB RFO          ACCESS:          0 HIT:          0 MISS:          0
cpu2_STLB PREFETCH     ACCESS:          0 HIT:          0 MISS:          0
cpu2_STLB WRITE        ACCESS:          0 HIT:          0 MISS:          0
cpu2_STLB TRANSLATION  ACCESS:          0 HIT:          0 MISS:          0
cpu2_STLB PREFETCH REQUESTED:          0 ISSUED:          0 USEFUL:          0 USELESS:          0
cpu2_STLB AVERAGE MISS LATENCY: 434.3 cycles
cpu2_STLB TOTAL        ACCESS:          0 HIT:          0 MISS:          0
cpu2_STLB LOAD         ACCESS:          0 HIT:          0 MISS:          0
cpu2_STLB RFO          ACCESS:          0 HIT:          0 MISS:          0
cpu2_STLB PREFETCH     ACCESS:          0 HIT:          0 MISS:          0
cpu2_STLB WRITE        ACCESS:          0 HIT:          0 MISS:          0
cpu2_STLB TRANSLATION  ACCESS:          0 HIT:          0 MISS:          0
cpu2_STLB PREFETCH REQUESTED:          0 ISSUED:          0 USEFUL:          0 USELESS:          0
cpu2_STLB AVERAGE MISS LATENCY: 434.3 cycles
cpu3_DTLB TOTAL        ACCESS:          0 HIT:          0 MISS:          0
cpu3_DTLB LOAD         ACCESS:          0 HIT:          0 MISS:          0
cpu3_DTLB RFO          ACCESS:          0 HIT:          0 MISS:          0
cpu3_DTLB PREFETCH     ACCESS:          0 HIT:          0 MISS:          0
cpu3_DTLB WRITE        ACCESS:          0 HIT:          0 MISS:          0
cpu3_DTLB TRANSLATION  ACCESS:          0 HIT:          0 MISS:          0
cpu3_DTLB PREFETCH REQUESTED:          0 ISSUED:          0 USEFUL:          0 USELESS:          0
cpu3_DTLB AVERAGE MISS LATENCY: 24.19 cycles
cpu3_DTLB TOTAL        ACCESS:          0 HIT:          0 MISS:          0
cpu3_DTLB LOAD         ACCESS:          0 HIT:          0 MISS:          0
cpu3_DTLB RFO          ACCESS:          0 HIT:          0 MISS:          0
cpu3_DTLB PREFETCH     ACCESS:          0 HIT:          0 MISS:          0
cpu3_DTLB WRITE        ACCESS:          0 HIT:          0 MISS:          0
cpu3_DTLB TRANSLATION  ACCESS:          0 HIT:          0 MISS:          0
cpu3_DTLB PREFETCH REQUESTED:          0 ISSUED:          0 USEFUL:          0 USELESS:          0
cpu3_DTLB AVERAGE MISS LATENCY: 24.19 cycles
cpu3_DTLB TOTAL        ACCESS:          0 HIT:          0 MISS:          0
cpu3_DTLB LOAD         ACCESS:          0 HIT:          0 MISS:          0
cpu3_DTLB RFO          ACCESS:          0 HIT:          0 MISS:          0
cpu3_DTLB PREFETCH     ACCESS:          0 HIT:          0 MISS:          0
cpu3_DTLB WRITE        ACCESS:          0 HIT:          0 MISS:          0
cpu3_DTLB TRANSLATION  ACCESS:          0 HIT:          0 MISS:          0
cpu3_DTLB PREFETCH REQUESTED:          0 ISSUED:          0 USEFUL:          0 USELESS:          0
cpu3_DTLB AVERAGE MISS LATENCY: 24.19 cycles
cpu3_DTLB TOTAL        ACCESS:   20652777 HIT:   20479372 MISS:     173405
cpu3_DTLB LOAD         ACCESS:   20652777 HIT:   20479372 MISS:     173405
cpu3_DTLB RFO          ACCESS:          0 HIT:          0 MISS:          0
cpu3_DTLB PREFETCH     ACCESS:          0 HIT:          0 MISS:          0
cpu3_DTLB WRITE        ACCESS:          0 HIT:          0 MISS:          0
cpu3_DTLB TRANSLATION  ACCESS:          0 HIT:          0 MISS:          0
cpu3_DTLB PREFETCH REQUESTED:          0 ISSUED:          0 USEFUL:          0 USELESS:          0
cpu3_DTLB AVERAGE MISS LATENCY: 24.19 cycles
cpu3_ITLB TOTAL        ACCESS:          0 HIT:          0 MISS:          0
cpu3_ITLB LOAD         ACCESS:          0 HIT:          0 MISS:          0
cpu3_ITLB RFO          ACCESS:          0 HIT:          0 MISS:          0
cpu3_ITLB PREFETCH     ACCESS:          0 HIT:          0 MISS:          0
cpu3_ITLB WRITE        ACCESS:          0 HIT:          0 MISS:          0
cpu3_ITLB TRANSLATION  ACCESS:          0 HIT:          0 MISS:          0
cpu3_ITLB PREFETCH REQUESTED:          0 ISSUED:          0 USEFUL:          0 USELESS:          0
cpu3_ITLB AVERAGE MISS LATENCY: 16.39 cycles
cpu3_ITLB TOTAL        ACCESS:          0 HIT:          0 MISS:          0
cpu3_ITLB LOAD         ACCESS:          0 HIT:          0 MISS:          0
cpu3_ITLB RFO          ACCESS:          0 HIT:          0 MISS:          0
cpu3_ITLB PREFETCH     ACCESS:          0 HIT:          0 MISS:          0
cpu3_ITLB WRITE        ACCESS:          0 HIT:          0 MISS:          0
cpu3_ITLB TRANSLATION  ACCESS:          0 HIT:          0 MISS:          0
cpu3_ITLB PREFETCH REQUESTED:          0 ISSUED:          0 USEFUL:          0 USELESS:          0
cpu3_ITLB AVERAGE MISS LATENCY: 16.39 cycles
cpu3_ITLB TOTAL        ACCESS:          0 HIT:          0 MISS:          0
cpu3_ITLB LOAD         ACCESS:          0 HIT:          0 MISS:          0
cpu3_ITLB RFO          ACCESS:          0 HIT:          0 MISS:          0
cpu3_ITLB PREFETCH     ACCESS:          0 HIT:          0 MISS:          0
cpu3_ITLB WRITE        ACCESS:          0 HIT:          0 MISS:          0
cpu3_ITLB TRANSLATION  ACCESS:          0 HIT:          0 MISS:          0
cpu3_ITLB PREFETCH REQUESTED:          0 ISSUED:          0 USEFUL:          0 USELESS:          0
cpu3_ITLB AVERAGE MISS LATENCY: 16.39 cycles
cpu3_ITLB TOTAL        ACCESS:     304852 HIT:     298407 MISS:       6445
cpu3_ITLB LOAD         ACCESS:     304852 HIT:     298407 MISS:       6445
cpu3_ITLB RFO          ACCESS:          0 HIT:          0 MISS:          0
cpu3_ITLB PREFETCH     ACCESS:          0 HIT:          0 MISS:          0
cpu3_ITLB WRITE        ACCESS:          0 HIT:          0 MISS:          0
cpu3_ITLB TRANSLATION  ACCESS:          0 HIT:          0 MISS:          0
cpu3_ITLB PREFETCH REQUESTED:          0 ISSUED:          0 USEFUL:          0 USELESS:          0
cpu3_ITLB AVERAGE MISS LATENCY: 16.39 cycles
cpu3_L1D TOTAL        ACCESS:          0 HIT:          0 MISS:          0
cpu3_L1D LOAD         ACCESS:          0 HIT:          0 MISS:          0
cpu3_L1D RFO          ACCESS:          0 HIT:          0 MISS:          0
cpu3_L1D PREFETCH     ACCESS:          0 HIT:          0 MISS:          0
cpu3_L1D WRITE        ACCESS:          0 HIT:          0 MISS:          0
cpu3_L1D TRANSLATION  ACCESS:          0 HIT:          0 MISS:          0
cpu3_L1D PREFETCH REQUESTED:          0 ISSUED:          0 USEFUL:          0 USELESS:          0
cpu3_L1D AVERAGE MISS LATENCY: 138.7 cycles
cpu3_L1D TOTAL        ACCESS:          0 HIT:          0 MISS:          0
cpu3_L1D LOAD         ACCESS:          0 HIT:          0 MISS:          0
cpu3_L1D RFO          ACCESS:          0 HIT:          0 MISS:          0
cpu3_L1D PREFETCH     ACCESS:          0 HIT:          0 MISS:          0
cpu3_L1D WRITE        ACCESS:          0 HIT:          0 MISS:          0
cpu3_L1D TRANSLATION  ACCESS:          0 HIT:          0 MISS:          0
cpu3_L1D PREFETCH REQUESTED:          0 ISSUED:          0 USEFUL:          0 USELESS:          0
cpu3_L1D AVERAGE MISS LATENCY: 138.7 cycles
cpu3_L1D TOTAL        ACCESS:          0 HIT:          0 MISS:          0
cpu3_L1D LOAD         ACCESS:          0 HIT:          0 MISS:          0
cpu3_L1D RFO          ACCESS:          0 HIT:          0 MISS:          0
cpu3_L1D PREFETCH     ACCESS:          0 HIT:          0 MISS:          0
cpu3_L1D WRITE        ACCESS:          0 HIT:          0 MISS:          0
cpu3_L1D TRANSLATION  ACCESS:          0 HIT:          0 MISS:          0
cpu3_L1D PREFETCH REQUESTED:          0 ISSUED:          0 USEFUL:          0 USELESS:          0
cpu3_L1D AVERAGE MISS LATENCY: 138.7 cycles
cpu3_L1D TOTAL        ACCESS:   25177705 HIT:   19942228 MISS:    5235477
cpu3_L1D LOAD         ACCESS:   15567223 HIT:   13232797 MISS:    2334426
cpu3_L1D RFO          ACCESS:          0 HIT:          0 MISS:          0
cpu3_L1D PREFETCH     ACCESS:          0 HIT:          0 MISS:          0
cpu3_L1D WRITE        ACCESS:    9602219 HIT:    6707258 MISS:    2894961
cpu3_L1D TRANSLATION  ACCESS:       8263 HIT:       2173 MISS:       6090
cpu3_L1D PREFETCH REQUESTED:          0 ISSUED:          0 USEFUL:          0 USELESS:          0
cpu3_L1D AVERAGE MISS LATENCY: 138.7 cycles
cpu3_L1I TOTAL        ACCESS:          0 HIT:          0 MISS:          0
cpu3_L1I LOAD         ACCESS:          0 HIT:          0 MISS:          0
cpu3_L1I RFO          ACCESS:          0 HIT:          0 MISS:          0
cpu3_L1I PREFETCH     ACCESS:          0 HIT:          0 MISS:          0
cpu3_L1I WRITE        ACCESS:          0 HIT:          0 MISS:          0
cpu3_L1I TRANSLATION  ACCESS:          0 HIT:          0 MISS:          0
cpu3_L1I PREFETCH REQUESTED:          0 ISSUED:          0 USEFUL:          0 USELESS:          0
cpu3_L1I AVERAGE MISS LATENCY: 48.36 cycles
cpu3_L1I TOTAL        ACCESS:          0 HIT:          0 MISS:          0
cpu3_L1I LOAD         ACCESS:          0 HIT:          0 MISS:          0
cpu3_L1I RFO          ACCESS:          0 HIT:          0 MISS:          0
cpu3_L1I PREFETCH     ACCESS:          0 HIT:          0 MISS:          0
cpu3_L1I WRITE        ACCESS:          0 HIT:          0 MISS:          0
cpu3_L1I TRANSLATION  ACCESS:          0 HIT:          0 MISS:          0
cpu3_L1I PREFETCH REQUESTED:          0 ISSUED:          0 USEFUL:          0 USELESS:          0
cpu3_L1I AVERAGE MISS LATENCY: 48.36 cycles
cpu3_L1I TOTAL        ACCESS:          0 HIT:          0 MISS:          0
cpu3_L1I LOAD         ACCESS:          0 HIT:          0 MISS:          0
cpu3_L1I RFO          ACCESS:          0 HIT:          0 MISS:          0
cpu3_L1I PREFETCH     ACCESS:          0 HIT:          0 MISS:          0
cpu3_L1I WRITE        ACCESS:          0 HIT:          0 MISS:          0
cpu3_L1I TRANSLATION  ACCESS:          0 HIT:          0 MISS:          0
cpu3_L1I PREFETCH REQUESTED:          0 ISSUED:          0 USEFUL:          0 USELESS:          0
cpu3_L1I AVERAGE MISS LATENCY: 48.36 cycles
cpu3_L1I TOTAL        ACCESS:     372046 HIT:     261457 MISS:     110589
cpu3_L1I LOAD         ACCESS:     372046 HIT:     261457 MISS:     110589
cpu3_L1I RFO          ACCESS:          0 HIT:          0 MISS:          0
cpu3_L1I PREFETCH     ACCESS:          0 HIT:          0 MISS:          0
cpu3_L1I WRITE        ACCESS:          0 HIT:          0 MISS:          0
cpu3_L1I TRANSLATION  ACCESS:          0 HIT:          0 MISS:          0
cpu3_L1I PREFETCH REQUESTED:          0 ISSUED:          0 USEFUL:          0 USELESS:          0
cpu3_L1I AVERAGE MISS LATENCY: 48.36 cycles
cpu3_L2C TOTAL        ACCESS:          0 HIT:          0 MISS:          0
cpu3_L2C LOAD         ACCESS:          0 HIT:          0 MISS:          0
cpu3_L2C RFO          ACCESS:          0 HIT:          0 MISS:          0
cpu3_L2C PREFETCH     ACCESS:          0 HIT:          0 MISS:          0
cpu3_L2C WRITE        ACCESS:          0 HIT:          0 MISS:          0
cpu3_L2C TRANSLATION  ACCESS:          0 HIT:          0 MISS:          0
cpu3_L2C PREFETCH REQUESTED:          0 ISSUED:          0 USEFUL:          0 USELESS:          0
cpu3_L2C AVERAGE MISS LATENCY: 881 cycles
cpu3_L2C TOTAL        ACCESS:          0 HIT:          0 MISS:          0
cpu3_L2C LOAD         ACCESS:          0 HIT:          0 MISS:          0
cpu3_L2C RFO          ACCESS:          0 HIT:          0 MISS:          0
cpu3_L2C PREFETCH     ACCESS:          0 HIT:          0 MISS:          0
cpu3_L2C WRITE        ACCESS:          0 HIT:          0 MISS:          0
cpu3_L2C TRANSLATION  ACCESS:          0 HIT:          0 MISS:          0
cpu3_L2C PREFETCH REQUESTED:          0 ISSUED:          0 USEFUL:          0 USELESS:          0
cpu3_L2C AVERAGE MISS LATENCY: 881 cycles
cpu3_L2C TOTAL        ACCESS:          0 HIT:          0 MISS:          0
cpu3_L2C LOAD         ACCESS:          0 HIT:          0 MISS:          0
cpu3_L2C RFO          ACCESS:          0 HIT:          0 MISS:          0
cpu3_L2C PREFETCH     ACCESS:          0 HIT:          0 MISS:          0
cpu3_L2C WRITE        ACCESS:          0 HIT:          0 MISS:          0
cpu3_L2C TRANSLATION  ACCESS:          0 HIT:          0 MISS:          0
cpu3_L2C PREFETCH REQUESTED:          0 ISSUED:          0 USEFUL:          0 USELESS:          0
cpu3_L2C AVERAGE MISS LATENCY: 881 cycles
cpu3_L2C TOTAL        ACCESS:    3067738 HIT:    2154379 MISS:     913359
cpu3_L2C LOAD         ACCESS:    1380909 HIT:     778252 MISS:     602657
cpu3_L2C RFO          ACCESS:     724924 HIT:     418792 MISS:     306132
cpu3_L2C PREFETCH     ACCESS:          0 HIT:          0 MISS:          0
cpu3_L2C WRITE        ACCESS:     955915 HIT:     955380 MISS:        535
cpu3_L2C TRANSLATION  ACCESS:       5990 HIT:       1955 MISS:       4035
cpu3_L2C PREFETCH REQUESTED:          0 ISSUED:          0 USEFUL:          0 USELESS:          0
cpu3_L2C AVERAGE MISS LATENCY: 881 cycles
cpu3_STLB TOTAL        ACCESS:          0 HIT:          0 MISS:          0
cpu3_STLB LOAD         ACCESS:          0 HIT:          0 MISS:          0
cpu3_STLB RFO          ACCESS:          0 HIT:          0 MISS:          0
cpu3_STLB PREFETCH     ACCESS:          0 HIT:          0 MISS:          0
cpu3_STLB WRITE        ACCESS:          0 HIT:          0 MISS:          0
cpu3_STLB TRANSLATION  ACCESS:          0 HIT:          0 MISS:          0
cpu3_STLB PREFETCH REQUESTED:          0 ISSUED:          0 USEFUL:          0 USELESS:          0
cpu3_STLB AVERAGE MISS LATENCY: 762.2 cycles
cpu3_STLB TOTAL        ACCESS:          0 HIT:          0 MISS:          0
cpu3_STLB LOAD         ACCESS:          0 HIT:          0 MISS:          0
cpu3_STLB RFO          ACCESS:          0 HIT:          0 MISS:          0
cpu3_STLB PREFETCH     ACCESS:          0 HIT:          0 MISS:          0
cpu3_STLB WRITE        ACCESS:          0 HIT:          0 MISS:          0
cpu3_STLB TRANSLATION  ACCESS:          0 HIT:          0 MISS:          0
cpu3_STLB PREFETCH REQUESTED:          0 ISSUED:          0 USEFUL:          0 USELESS:          0
cpu3_STLB AVERAGE MISS LATENCY: 762.2 cycles
cpu3_STLB TOTAL        ACCESS:          0 HIT:          0 MISS:          0
cpu3_STLB LOAD         ACCESS:          0 HIT:          0 MISS:          0
cpu3_STLB RFO          ACCESS:          0 HIT:          0 MISS:          0
cpu3_STLB PREFETCH     ACCESS:          0 HIT:          0 MISS:          0
cpu3_STLB WRITE        ACCESS:          0 HIT:          0 MISS:          0
cpu3_STLB TRANSLATION  ACCESS:          0 HIT:          0 MISS:          0
cpu3_STLB PREFETCH REQUESTED:          0 ISSUED:          0 USEFUL:          0 USELESS:          0
cpu3_STLB AVERAGE MISS LATENCY: 762.2 cycles
cpu3_STLB TOTAL        ACCESS:      68389 HIT:      61246 MISS:       7143
cpu3_STLB LOAD         ACCESS:      68389 HIT:      61246 MISS:       7143
cpu3_STLB RFO          ACCESS:          0 HIT:          0 MISS:          0
cpu3_STLB PREFETCH     ACCESS:          0 HIT:          0 MISS:          0
cpu3_STLB WRITE        ACCESS:          0 HIT:          0 MISS:          0
cpu3_STLB TRANSLATION  ACCESS:          0 HIT:          0 MISS:          0
cpu3_STLB PREFETCH REQUESTED:          0 ISSUED:          0 USEFUL:          0 USELESS:          0
cpu3_STLB AVERAGE MISS LATENCY: 762.2 cycles

DRAM Statistics

Channel 0 RQ ROW_BUFFER_HIT:    2191606
  ROW_BUFFER_MISS:   11063022
 AVG DBUS CONGESTED CYCLE: 3.984
WQ ROW_BUFFER_HIT: Channel 0 
  ROW_BUFFER_MISS:      80416
  FULL:    3435239
