WARNING: physical memory size is smaller than virtual memory size.
WARNING: option --warmup_instructions is deprecated. Use --warmup-instructions instead.
WARNING: option --simulation_instructions is deprecated. Use --simulation-instructions instead.

*** ChampSim Multicore Out-of-Order Simulator ***
Warmup Instructions: 50000000
Simulation Instructions: 150000000
Number of CPUs: 4
Page size: 4096

Off-chip DRAM Size: 4 GiB Channels: 1 Width: 64-bit Data Race: 3200 MT/s
Heartbeat CPU 2 instructions: 10000002 cycles: 2507018 heartbeat IPC: 3.989 cumulative IPC: 3.989 (Simulation time: 00 hr 02 min 18 sec)
Heartbeat CPU 3 instructions: 10000003 cycles: 3099302 heartbeat IPC: 3.227 cumulative IPC: 3.227 (Simulation time: 00 hr 02 min 48 sec)
Heartbeat CPU 1 instructions: 10000001 cycles: 3680551 heartbeat IPC: 2.717 cumulative IPC: 2.717 (Simulation time: 00 hr 03 min 22 sec)
Heartbeat CPU 0 instructions: 10000001 cycles: 4175535 heartbeat IPC: 2.395 cumulative IPC: 2.395 (Simulation time: 00 hr 03 min 49 sec)
Heartbeat CPU 2 instructions: 20000001 cycles: 5016684 heartbeat IPC: 3.985 cumulative IPC: 3.987 (Simulation time: 00 hr 04 min 35 sec)
Heartbeat CPU 3 instructions: 20000003 cycles: 6205584 heartbeat IPC: 3.219 cumulative IPC: 3.223 (Simulation time: 00 hr 05 min 44 sec)
Heartbeat CPU 1 instructions: 20000002 cycles: 7360068 heartbeat IPC: 2.718 cumulative IPC: 2.717 (Simulation time: 00 hr 06 min 45 sec)
Heartbeat CPU 2 instructions: 30000000 cycles: 7521052 heartbeat IPC: 3.993 cumulative IPC: 3.989 (Simulation time: 00 hr 06 min 55 sec)
Heartbeat CPU 0 instructions: 20000004 cycles: 8347971 heartbeat IPC: 2.397 cumulative IPC: 2.396 (Simulation time: 00 hr 07 min 43 sec)
Heartbeat CPU 3 instructions: 30000000 cycles: 9304843 heartbeat IPC: 3.227 cumulative IPC: 3.224 (Simulation time: 00 hr 08 min 41 sec)
Heartbeat CPU 2 instructions: 40000002 cycles: 10031551 heartbeat IPC: 3.983 cumulative IPC: 3.987 (Simulation time: 00 hr 09 min 18 sec)
Heartbeat CPU 1 instructions: 30000002 cycles: 11042518 heartbeat IPC: 2.716 cumulative IPC: 2.717 (Simulation time: 00 hr 10 min 13 sec)
Heartbeat CPU 3 instructions: 40000004 cycles: 12401635 heartbeat IPC: 3.229 cumulative IPC: 3.225 (Simulation time: 00 hr 11 min 31 sec)
Heartbeat CPU 0 instructions: 30000001 cycles: 12520753 heartbeat IPC: 2.396 cumulative IPC: 2.396 (Simulation time: 00 hr 11 min 38 sec)
Heartbeat CPU 2 instructions: 50000003 cycles: 12555208 heartbeat IPC: 3.963 cumulative IPC: 3.982 (Simulation time: 00 hr 11 min 40 sec)
Warmup finished CPU 2 instructions: 50000003 cycles: 12555209 cumulative IPC: 3.982 (Simulation time: 00 hr 11 min 40 sec)
Heartbeat CPU 1 instructions: 40000003 cycles: 14723286 heartbeat IPC: 2.717 cumulative IPC: 2.717 (Simulation time: 00 hr 13 min 35 sec)
Heartbeat CPU 2 instructions: 60000003 cycles: 15063089 heartbeat IPC: 3.987 cumulative IPC: 3.983 (Simulation time: 00 hr 13 min 51 sec)
Heartbeat CPU 3 instructions: 50000003 cycles: 15488987 heartbeat IPC: 3.239 cumulative IPC: 3.228 (Simulation time: 00 hr 14 min 14 sec)
Warmup finished CPU 3 instructions: 50000003 cycles: 15488988 cumulative IPC: 3.228 (Simulation time: 00 hr 14 min 14 sec)
Heartbeat CPU 0 instructions: 40000000 cycles: 16706810 heartbeat IPC: 2.389 cumulative IPC: 2.394 (Simulation time: 00 hr 15 min 19 sec)
Heartbeat CPU 2 instructions: 70000001 cycles: 17570045 heartbeat IPC: 3.989 cumulative IPC: 3.984 (Simulation time: 00 hr 16 min 07 sec)
Heartbeat CPU 1 instructions: 50000004 cycles: 18403756 heartbeat IPC: 2.717 cumulative IPC: 2.717 (Simulation time: 00 hr 16 min 52 sec)
Warmup finished CPU 1 instructions: 50000004 cycles: 18403757 cumulative IPC: 2.717 (Simulation time: 00 hr 16 min 52 sec)
Heartbeat CPU 3 instructions: 60000002 cycles: 18587206 heartbeat IPC: 3.228 cumulative IPC: 3.228 (Simulation time: 00 hr 17 min 02 sec)
Heartbeat CPU 2 instructions: 80000000 cycles: 20077945 heartbeat IPC: 3.987 cumulative IPC: 3.984 (Simulation time: 00 hr 18 min 25 sec)
Heartbeat CPU 0 instructions: 50000003 cycles: 20873376 heartbeat IPC: 2.4 cumulative IPC: 2.395 (Simulation time: 00 hr 19 min 09 sec)
Warmup finished CPU 0 instructions: 50000003 cycles: 20873377 cumulative IPC: 2.395 (Simulation time: 00 hr 19 min 09 sec)
Warmup complete CPU 0 instructions: 50000003 cycles: 20873377 cumulative IPC: 2.395 (Simulation time: 00 hr 19 min 09 sec)
Warmup complete CPU 1 instructions: 56465555 cycles: 20873377 cumulative IPC: 2.705 (Simulation time: 00 hr 19 min 09 sec)
Warmup complete CPU 2 instructions: 83181724 cycles: 20873377 cumulative IPC: 3.985 (Simulation time: 00 hr 19 min 09 sec)
Warmup complete CPU 3 instructions: 67389255 cycles: 20873377 cumulative IPC: 3.228 (Simulation time: 00 hr 19 min 09 sec)
Heartbeat CPU 2 instructions: 90000001 cycles: 23897403 heartbeat IPC: 2.618 cumulative IPC: 2.255 (Simulation time: 00 hr 20 min 30 sec)
Heartbeat CPU 1 instructions: 60000004 cycles: 24871109 heartbeat IPC: 1.546 cumulative IPC: 0.8841 (Simulation time: 00 hr 20 min 58 sec)
Heartbeat CPU 2 instructions: 100000001 cycles: 27563359 heartbeat IPC: 2.728 cumulative IPC: 2.514 (Simulation time: 00 hr 22 min 19 sec)
Heartbeat CPU 2 instructions: 110000001 cycles: 31950739 heartbeat IPC: 2.279 cumulative IPC: 2.421 (Simulation time: 00 hr 24 min 28 sec)
Heartbeat CPU 2 instructions: 120000002 cycles: 35712858 heartbeat IPC: 2.658 cumulative IPC: 2.481 (Simulation time: 00 hr 26 min 12 sec)
Heartbeat CPU 3 instructions: 70000000 cycles: 35714698 heartbeat IPC: 0.5839 cumulative IPC: 0.1759 (Simulation time: 00 hr 26 min 12 sec)
Heartbeat CPU 1 instructions: 70000000 cycles: 36422596 heartbeat IPC: 0.8657 cumulative IPC: 0.8704 (Simulation time: 00 hr 26 min 30 sec)
Heartbeat CPU 2 instructions: 130000003 cycles: 39282347 heartbeat IPC: 2.802 cumulative IPC: 2.543 (Simulation time: 00 hr 27 min 53 sec)
Heartbeat CPU 2 instructions: 140000003 cycles: 43558613 heartbeat IPC: 2.338 cumulative IPC: 2.505 (Simulation time: 00 hr 29 min 53 sec)
Heartbeat CPU 2 instructions: 150000002 cycles: 47770219 heartbeat IPC: 2.374 cumulative IPC: 2.484 (Simulation time: 00 hr 31 min 43 sec)
Heartbeat CPU 1 instructions: 80000001 cycles: 48138963 heartbeat IPC: 0.8535 cumulative IPC: 0.8632 (Simulation time: 00 hr 31 min 54 sec)
Heartbeat CPU 2 instructions: 160000001 cycles: 51391766 heartbeat IPC: 2.761 cumulative IPC: 2.517 (Simulation time: 00 hr 33 min 30 sec)
Heartbeat CPU 2 instructions: 170000004 cycles: 55335214 heartbeat IPC: 2.536 cumulative IPC: 2.519 (Simulation time: 00 hr 35 min 29 sec)
Heartbeat CPU 0 instructions: 60000003 cycles: 59702517 heartbeat IPC: 0.2575 cumulative IPC: 0.2575 (Simulation time: 00 hr 37 min 38 sec)
Heartbeat CPU 1 instructions: 90000000 cycles: 59793558 heartbeat IPC: 0.858 cumulative IPC: 0.8616 (Simulation time: 00 hr 37 min 41 sec)
Heartbeat CPU 2 instructions: 180000003 cycles: 59850593 heartbeat IPC: 2.215 cumulative IPC: 2.484 (Simulation time: 00 hr 37 min 43 sec)
Heartbeat CPU 2 instructions: 190000001 cycles: 64177092 heartbeat IPC: 2.311 cumulative IPC: 2.467 (Simulation time: 00 hr 39 min 46 sec)
Heartbeat CPU 2 instructions: 200000004 cycles: 68264035 heartbeat IPC: 2.447 cumulative IPC: 2.465 (Simulation time: 00 hr 41 min 45 sec)
Heartbeat CPU 1 instructions: 100000000 cycles: 71452512 heartbeat IPC: 0.8577 cumulative IPC: 0.8607 (Simulation time: 00 hr 43 min 26 sec)
Heartbeat CPU 2 instructions: 210000004 cycles: 71980065 heartbeat IPC: 2.691 cumulative IPC: 2.481 (Simulation time: 00 hr 43 min 42 sec)
Heartbeat CPU 2 instructions: 220000001 cycles: 76269860 heartbeat IPC: 2.331 cumulative IPC: 2.47 (Simulation time: 00 hr 45 min 50 sec)
Heartbeat CPU 2 instructions: 230000000 cycles: 79881586 heartbeat IPC: 2.769 cumulative IPC: 2.488 (Simulation time: 00 hr 47 min 33 sec)
Simulation finished CPU 2 instructions: 150000001 cycles: 60132456 cumulative IPC: 2.494 (Simulation time: 00 hr 48 min 08 sec)
Heartbeat CPU 1 instructions: 110000003 cycles: 83112882 heartbeat IPC: 0.8576 cumulative IPC: 0.8601 (Simulation time: 00 hr 49 min 08 sec)
Heartbeat CPU 2 instructions: 240000004 cycles: 84045961 heartbeat IPC: 2.401 cumulative IPC: 2.482 (Simulation time: 00 hr 49 min 36 sec)
Heartbeat CPU 2 instructions: 250000004 cycles: 88170652 heartbeat IPC: 2.424 cumulative IPC: 2.479 (Simulation time: 00 hr 51 min 37 sec)
Heartbeat CPU 2 instructions: 260000002 cycles: 92009389 heartbeat IPC: 2.605 cumulative IPC: 2.486 (Simulation time: 00 hr 53 min 24 sec)
Heartbeat CPU 1 instructions: 120000004 cycles: 94658745 heartbeat IPC: 0.8661 cumulative IPC: 0.8611 (Simulation time: 00 hr 54 min 39 sec)
Heartbeat CPU 3 instructions: 80000000 cycles: 94971595 heartbeat IPC: 0.1688 cumulative IPC: 0.1702 (Simulation time: 00 hr 54 min 46 sec)
Heartbeat CPU 2 instructions: 270000004 cycles: 96094269 heartbeat IPC: 2.448 cumulative IPC: 2.484 (Simulation time: 00 hr 55 min 19 sec)
Heartbeat CPU 0 instructions: 70000004 cycles: 98542622 heartbeat IPC: 0.2575 cumulative IPC: 0.2575 (Simulation time: 00 hr 56 min 36 sec)
Heartbeat CPU 2 instructions: 280000004 cycles: 100018821 heartbeat IPC: 2.548 cumulative IPC: 2.487 (Simulation time: 00 hr 57 min 15 sec)
Heartbeat CPU 2 instructions: 290000003 cycles: 103636467 heartbeat IPC: 2.764 cumulative IPC: 2.499 (Simulation time: 00 hr 58 min 59 sec)
Heartbeat CPU 1 instructions: 130000001 cycles: 106284166 heartbeat IPC: 0.8602 cumulative IPC: 0.861 (Simulation time: 01 hr 00 min 14 sec)
Heartbeat CPU 2 instructions: 300000000 cycles: 107427474 heartbeat IPC: 2.638 cumulative IPC: 2.505 (Simulation time: 01 hr 00 min 45 sec)
Heartbeat CPU 2 instructions: 310000004 cycles: 110946104 heartbeat IPC: 2.842 cumulative IPC: 2.518 (Simulation time: 01 hr 02 min 28 sec)
Heartbeat CPU 2 instructions: 320000001 cycles: 114476068 heartbeat IPC: 2.833 cumulative IPC: 2.53 (Simulation time: 01 hr 04 min 08 sec)
Heartbeat CPU 1 instructions: 140000002 cycles: 117727103 heartbeat IPC: 0.8739 cumulative IPC: 0.8625 (Simulation time: 01 hr 05 min 44 sec)
Heartbeat CPU 2 instructions: 330000001 cycles: 118001316 heartbeat IPC: 2.837 cumulative IPC: 2.541 (Simulation time: 01 hr 05 min 53 sec)
Heartbeat CPU 2 instructions: 340000003 cycles: 121754838 heartbeat IPC: 2.664 cumulative IPC: 2.546 (Simulation time: 01 hr 07 min 31 sec)
Heartbeat CPU 2 instructions: 350000001 cycles: 125359342 heartbeat IPC: 2.774 cumulative IPC: 2.554 (Simulation time: 01 hr 09 min 17 sec)
Heartbeat CPU 2 instructions: 360000001 cycles: 128998156 heartbeat IPC: 2.748 cumulative IPC: 2.56 (Simulation time: 01 hr 11 min 06 sec)
Heartbeat CPU 1 instructions: 150000004 cycles: 129275717 heartbeat IPC: 0.8659 cumulative IPC: 0.8628 (Simulation time: 01 hr 11 min 14 sec)
Heartbeat CPU 2 instructions: 370000001 cycles: 132702332 heartbeat IPC: 2.7 cumulative IPC: 2.565 (Simulation time: 01 hr 12 min 52 sec)
Heartbeat CPU 0 instructions: 80000002 cycles: 137567707 heartbeat IPC: 0.2562 cumulative IPC: 0.2571 (Simulation time: 01 hr 15 min 02 sec)
Heartbeat CPU 2 instructions: 380000003 cycles: 137973025 heartbeat IPC: 1.897 cumulative IPC: 2.535 (Simulation time: 01 hr 15 min 13 sec)
Heartbeat CPU 1 instructions: 160000004 cycles: 140895587 heartbeat IPC: 0.8606 cumulative IPC: 0.8626 (Simulation time: 01 hr 16 min 36 sec)
Heartbeat CPU 2 instructions: 390000000 cycles: 142179698 heartbeat IPC: 2.377 cumulative IPC: 2.529 (Simulation time: 01 hr 17 min 13 sec)
Heartbeat CPU 2 instructions: 400000002 cycles: 145834918 heartbeat IPC: 2.736 cumulative IPC: 2.535 (Simulation time: 01 hr 18 min 49 sec)
Heartbeat CPU 2 instructions: 410000004 cycles: 149593384 heartbeat IPC: 2.661 cumulative IPC: 2.539 (Simulation time: 01 hr 20 min 43 sec)
Heartbeat CPU 3 instructions: 90000004 cycles: 152276237 heartbeat IPC: 0.1745 cumulative IPC: 0.1721 (Simulation time: 01 hr 21 min 56 sec)
Heartbeat CPU 1 instructions: 170000000 cycles: 152640761 heartbeat IPC: 0.8514 cumulative IPC: 0.8616 (Simulation time: 01 hr 22 min 05 sec)
Heartbeat CPU 2 instructions: 420000001 cycles: 153161561 heartbeat IPC: 2.803 cumulative IPC: 2.546 (Simulation time: 01 hr 22 min 21 sec)
Heartbeat CPU 2 instructions: 430000003 cycles: 158441092 heartbeat IPC: 1.894 cumulative IPC: 2.521 (Simulation time: 01 hr 24 min 44 sec)
Heartbeat CPU 2 instructions: 440000000 cycles: 162893706 heartbeat IPC: 2.246 cumulative IPC: 2.512 (Simulation time: 01 hr 26 min 55 sec)
Heartbeat CPU 1 instructions: 180000001 cycles: 164389549 heartbeat IPC: 0.8512 cumulative IPC: 0.8608 (Simulation time: 01 hr 27 min 32 sec)
Heartbeat CPU 2 instructions: 450000003 cycles: 170228643 heartbeat IPC: 1.363 cumulative IPC: 2.456 (Simulation time: 01 hr 30 min 03 sec)
Heartbeat CPU 2 instructions: 460000000 cycles: 173823828 heartbeat IPC: 2.781 cumulative IPC: 2.464 (Simulation time: 01 hr 31 min 46 sec)
Heartbeat CPU 1 instructions: 190000004 cycles: 176064030 heartbeat IPC: 0.8566 cumulative IPC: 0.8605 (Simulation time: 01 hr 32 min 51 sec)
Heartbeat CPU 0 instructions: 90000001 cycles: 176801078 heartbeat IPC: 0.2549 cumulative IPC: 0.2565 (Simulation time: 01 hr 33 min 14 sec)
Heartbeat CPU 2 instructions: 470000002 cycles: 177514108 heartbeat IPC: 2.71 cumulative IPC: 2.469 (Simulation time: 01 hr 33 min 36 sec)
Heartbeat CPU 2 instructions: 480000000 cycles: 181330428 heartbeat IPC: 2.62 cumulative IPC: 2.473 (Simulation time: 01 hr 35 min 20 sec)
Heartbeat CPU 1 instructions: 200000002 cycles: 188789321 heartbeat IPC: 0.7858 cumulative IPC: 0.8548 (Simulation time: 01 hr 38 min 12 sec)
Simulation finished CPU 1 instructions: 150000000 cycles: 179573527 cumulative IPC: 0.8353 (Simulation time: 01 hr 42 min 33 sec)
Heartbeat CPU 1 instructions: 210000002 cycles: 206052260 heartbeat IPC: 0.5793 cumulative IPC: 0.8291 (Simulation time: 01 hr 44 min 43 sec)
Heartbeat CPU 2 instructions: 490000000 cycles: 206441354 heartbeat IPC: 0.3982 cumulative IPC: 2.192 (Simulation time: 01 hr 44 min 52 sec)
Heartbeat CPU 3 instructions: 100000000 cycles: 209773829 heartbeat IPC: 0.1739 cumulative IPC: 0.1726 (Simulation time: 01 hr 46 min 19 sec)
Heartbeat CPU 2 instructions: 500000002 cycles: 216102184 heartbeat IPC: 1.035 cumulative IPC: 2.135 (Simulation time: 01 hr 49 min 04 sec)
Heartbeat CPU 1 instructions: 220000000 cycles: 218611516 heartbeat IPC: 0.7962 cumulative IPC: 0.827 (Simulation time: 01 hr 50 min 10 sec)
Heartbeat CPU 2 instructions: 510000001 cycles: 225277399 heartbeat IPC: 1.09 cumulative IPC: 2.088 (Simulation time: 01 hr 52 min 57 sec)
Heartbeat CPU 1 instructions: 230000002 cycles: 230699098 heartbeat IPC: 0.8273 cumulative IPC: 0.827 (Simulation time: 01 hr 55 min 21 sec)
Heartbeat CPU 0 instructions: 100000000 cycles: 232869706 heartbeat IPC: 0.1784 cumulative IPC: 0.2359 (Simulation time: 01 hr 56 min 13 sec)
Heartbeat CPU 2 instructions: 520000001 cycles: 234386221 heartbeat IPC: 1.098 cumulative IPC: 2.046 (Simulation time: 01 hr 56 min 56 sec)
Heartbeat CPU 1 instructions: 240000003 cycles: 243063858 heartbeat IPC: 0.8088 cumulative IPC: 0.826 (Simulation time: 02 hr 00 min 48 sec)
Heartbeat CPU 2 instructions: 530000000 cycles: 243524783 heartbeat IPC: 1.094 cumulative IPC: 2.007 (Simulation time: 02 hr 00 min 59 sec)
Heartbeat CPU 2 instructions: 540000004 cycles: 252700301 heartbeat IPC: 1.09 cumulative IPC: 1.971 (Simulation time: 02 hr 04 min 56 sec)
Heartbeat CPU 1 instructions: 250000003 cycles: 255162560 heartbeat IPC: 0.8265 cumulative IPC: 0.826 (Simulation time: 02 hr 06 min 00 sec)
Heartbeat CPU 3 instructions: 110000000 cycles: 259178905 heartbeat IPC: 0.2024 cumulative IPC: 0.1788 (Simulation time: 02 hr 07 min 43 sec)
Heartbeat CPU 2 instructions: 550000001 cycles: 261906769 heartbeat IPC: 1.086 cumulative IPC: 1.937 (Simulation time: 02 hr 08 min 51 sec)
Heartbeat CPU 1 instructions: 260000000 cycles: 267362180 heartbeat IPC: 0.8197 cumulative IPC: 0.8257 (Simulation time: 02 hr 11 min 20 sec)
Heartbeat CPU 2 instructions: 560000000 cycles: 273853708 heartbeat IPC: 0.837 cumulative IPC: 1.885 (Simulation time: 02 hr 13 min 56 sec)
Heartbeat CPU 0 instructions: 110000004 cycles: 281685030 heartbeat IPC: 0.2049 cumulative IPC: 0.2301 (Simulation time: 02 hr 16 min 47 sec)
Heartbeat CPU 1 instructions: 270000003 cycles: 283611404 heartbeat IPC: 0.6154 cumulative IPC: 0.8127 (Simulation time: 02 hr 17 min 33 sec)
Heartbeat CPU 1 instructions: 280000000 cycles: 298983954 heartbeat IPC: 0.6505 cumulative IPC: 0.8038 (Simulation time: 02 hr 23 min 33 sec)
Heartbeat CPU 2 instructions: 570000001 cycles: 300140402 heartbeat IPC: 0.3804 cumulative IPC: 1.743 (Simulation time: 02 hr 24 min 09 sec)
Heartbeat CPU 2 instructions: 580000001 cycles: 309267073 heartbeat IPC: 1.096 cumulative IPC: 1.723 (Simulation time: 02 hr 28 min 02 sec)
Heartbeat CPU 1 instructions: 290000001 cycles: 311225076 heartbeat IPC: 0.8169 cumulative IPC: 0.8043 (Simulation time: 02 hr 28 min 56 sec)
Heartbeat CPU 2 instructions: 590000004 cycles: 318415886 heartbeat IPC: 1.093 cumulative IPC: 1.703 (Simulation time: 02 hr 32 min 04 sec)
Heartbeat CPU 3 instructions: 120000003 cycles: 321207645 heartbeat IPC: 0.1612 cumulative IPC: 0.1752 (Simulation time: 02 hr 33 min 20 sec)
Heartbeat CPU 1 instructions: 300000001 cycles: 323368392 heartbeat IPC: 0.8235 cumulative IPC: 0.8051 (Simulation time: 02 hr 34 min 17 sec)
Heartbeat CPU 2 instructions: 600000001 cycles: 327555281 heartbeat IPC: 1.094 cumulative IPC: 1.685 (Simulation time: 02 hr 36 min 11 sec)
Heartbeat CPU 0 instructions: 120000004 cycles: 331881862 heartbeat IPC: 0.1992 cumulative IPC: 0.2251 (Simulation time: 02 hr 38 min 03 sec)
Heartbeat CPU 1 instructions: 310000003 cycles: 335466070 heartbeat IPC: 0.8266 cumulative IPC: 0.8059 (Simulation time: 02 hr 39 min 37 sec)
Heartbeat CPU 2 instructions: 610000000 cycles: 336630781 heartbeat IPC: 1.102 cumulative IPC: 1.668 (Simulation time: 02 hr 40 min 10 sec)
Heartbeat CPU 2 instructions: 620000002 cycles: 345714578 heartbeat IPC: 1.101 cumulative IPC: 1.653 (Simulation time: 02 hr 44 min 06 sec)
Heartbeat CPU 1 instructions: 320000002 cycles: 347479342 heartbeat IPC: 0.8324 cumulative IPC: 0.8069 (Simulation time: 02 hr 44 min 55 sec)
Heartbeat CPU 2 instructions: 630000004 cycles: 354703138 heartbeat IPC: 1.113 cumulative IPC: 1.638 (Simulation time: 02 hr 48 min 12 sec)
Heartbeat CPU 1 instructions: 330000001 cycles: 360037510 heartbeat IPC: 0.7963 cumulative IPC: 0.8065 (Simulation time: 02 hr 50 min 25 sec)
Heartbeat CPU 1 instructions: 340000003 cycles: 378788153 heartbeat IPC: 0.5333 cumulative IPC: 0.7922 (Simulation time: 02 hr 57 min 27 sec)
Heartbeat CPU 3 instructions: 130000000 cycles: 381941062 heartbeat IPC: 0.1647 cumulative IPC: 0.1734 (Simulation time: 02 hr 58 min 38 sec)
Heartbeat CPU 2 instructions: 640000002 cycles: 384007857 heartbeat IPC: 0.3412 cumulative IPC: 1.533 (Simulation time: 02 hr 59 min 25 sec)
Heartbeat CPU 0 instructions: 130000002 cycles: 389290017 heartbeat IPC: 0.1742 cumulative IPC: 0.2171 (Simulation time: 03 hr 01 min 46 sec)
Heartbeat CPU 1 instructions: 350000003 cycles: 392026003 heartbeat IPC: 0.7554 cumulative IPC: 0.7909 (Simulation time: 03 hr 02 min 58 sec)
Heartbeat CPU 2 instructions: 650000003 cycles: 393539449 heartbeat IPC: 1.049 cumulative IPC: 1.521 (Simulation time: 03 hr 03 min 39 sec)
Heartbeat CPU 2 instructions: 660000000 cycles: 402675040 heartbeat IPC: 1.095 cumulative IPC: 1.511 (Simulation time: 03 hr 07 min 37 sec)
Heartbeat CPU 1 instructions: 360000004 cycles: 404074386 heartbeat IPC: 0.83 cumulative IPC: 0.7921 (Simulation time: 03 hr 08 min 11 sec)
Heartbeat CPU 2 instructions: 670000000 cycles: 411782295 heartbeat IPC: 1.098 cumulative IPC: 1.501 (Simulation time: 03 hr 11 min 24 sec)
Heartbeat CPU 1 instructions: 370000001 cycles: 416140549 heartbeat IPC: 0.8288 cumulative IPC: 0.7932 (Simulation time: 03 hr 13 min 12 sec)
Heartbeat CPU 2 instructions: 680000002 cycles: 420835751 heartbeat IPC: 1.105 cumulative IPC: 1.492 (Simulation time: 03 hr 15 min 13 sec)
Heartbeat CPU 1 instructions: 380000001 cycles: 428341477 heartbeat IPC: 0.8196 cumulative IPC: 0.794 (Simulation time: 03 hr 18 min 27 sec)
Heartbeat CPU 2 instructions: 690000001 cycles: 430017196 heartbeat IPC: 1.089 cumulative IPC: 1.483 (Simulation time: 03 hr 19 min 08 sec)
Heartbeat CPU 0 instructions: 140000001 cycles: 431540384 heartbeat IPC: 0.2367 cumulative IPC: 0.2192 (Simulation time: 03 hr 19 min 48 sec)
Heartbeat CPU 3 instructions: 140000002 cycles: 431795309 heartbeat IPC: 0.2006 cumulative IPC: 0.1767 (Simulation time: 03 hr 19 min 54 sec)
Heartbeat CPU 2 instructions: 700000000 cycles: 439107842 heartbeat IPC: 1.1 cumulative IPC: 1.475 (Simulation time: 03 hr 23 min 01 sec)
Heartbeat CPU 1 instructions: 390000001 cycles: 440442152 heartbeat IPC: 0.8264 cumulative IPC: 0.7949 (Simulation time: 03 hr 23 min 37 sec)
Heartbeat CPU 1 instructions: 400000003 cycles: 455134432 heartbeat IPC: 0.6806 cumulative IPC: 0.7911 (Simulation time: 03 hr 29 min 08 sec)
Heartbeat CPU 2 instructions: 710000002 cycles: 465148750 heartbeat IPC: 0.384 cumulative IPC: 1.411 (Simulation time: 03 hr 32 min 56 sec)
Heartbeat CPU 1 instructions: 410000001 cycles: 473720579 heartbeat IPC: 0.538 cumulative IPC: 0.7807 (Simulation time: 03 hr 36 min 10 sec)
Heartbeat CPU 2 instructions: 720000000 cycles: 479680468 heartbeat IPC: 0.6881 cumulative IPC: 1.388 (Simulation time: 03 hr 38 min 40 sec)
Heartbeat CPU 1 instructions: 420000000 cycles: 486147019 heartbeat IPC: 0.8047 cumulative IPC: 0.7813 (Simulation time: 03 hr 41 min 27 sec)
Heartbeat CPU 2 instructions: 730000001 cycles: 488855927 heartbeat IPC: 1.09 cumulative IPC: 1.382 (Simulation time: 03 hr 42 min 34 sec)
Heartbeat CPU 0 instructions: 150000003 cycles: 491078861 heartbeat IPC: 0.168 cumulative IPC: 0.2127 (Simulation time: 03 hr 43 min 30 sec)
Heartbeat CPU 3 instructions: 150000000 cycles: 495489406 heartbeat IPC: 0.157 cumulative IPC: 0.1741 (Simulation time: 03 hr 45 min 28 sec)
Heartbeat CPU 2 instructions: 740000001 cycles: 498051312 heartbeat IPC: 1.088 cumulative IPC: 1.376 (Simulation time: 03 hr 46 min 35 sec)
Heartbeat CPU 1 instructions: 430000003 cycles: 498499438 heartbeat IPC: 0.8096 cumulative IPC: 0.7821 (Simulation time: 03 hr 46 min 47 sec)
Heartbeat CPU 2 instructions: 750000000 cycles: 507143487 heartbeat IPC: 1.1 cumulative IPC: 1.371 (Simulation time: 03 hr 50 min 32 sec)
Heartbeat CPU 1 instructions: 440000003 cycles: 510550132 heartbeat IPC: 0.8298 cumulative IPC: 0.7832 (Simulation time: 03 hr 51 min 59 sec)
Heartbeat CPU 2 instructions: 760000000 cycles: 516373742 heartbeat IPC: 1.083 cumulative IPC: 1.366 (Simulation time: 03 hr 54 min 30 sec)
Heartbeat CPU 1 instructions: 450000000 cycles: 522709077 heartbeat IPC: 0.8224 cumulative IPC: 0.7842 (Simulation time: 03 hr 57 min 11 sec)
Heartbeat CPU 2 instructions: 770000004 cycles: 525530301 heartbeat IPC: 1.092 cumulative IPC: 1.361 (Simulation time: 03 hr 58 min 22 sec)
Heartbeat CPU 0 instructions: 160000002 cycles: 533932529 heartbeat IPC: 0.2334 cumulative IPC: 0.2144 (Simulation time: 04 hr 02 min 02 sec)
Heartbeat CPU 2 instructions: 780000003 cycles: 534730278 heartbeat IPC: 1.087 cumulative IPC: 1.356 (Simulation time: 04 hr 02 min 26 sec)
Heartbeat CPU 1 instructions: 460000001 cycles: 535015010 heartbeat IPC: 0.8126 cumulative IPC: 0.7849 (Simulation time: 04 hr 02 min 32 sec)
Heartbeat CPU 3 instructions: 160000002 cycles: 547872841 heartbeat IPC: 0.1909 cumulative IPC: 0.1757 (Simulation time: 04 hr 07 min 32 sec)
Heartbeat CPU 1 instructions: 470000001 cycles: 551510857 heartbeat IPC: 0.6062 cumulative IPC: 0.7793 (Simulation time: 04 hr 08 min 47 sec)
Heartbeat CPU 2 instructions: 790000003 cycles: 562830635 heartbeat IPC: 0.3559 cumulative IPC: 1.304 (Simulation time: 04 hr 13 min 17 sec)
Heartbeat CPU 1 instructions: 480000000 cycles: 566144284 heartbeat IPC: 0.6834 cumulative IPC: 0.7767 (Simulation time: 04 hr 14 min 39 sec)
Heartbeat CPU 2 instructions: 800000003 cycles: 572132870 heartbeat IPC: 1.075 cumulative IPC: 1.3 (Simulation time: 04 hr 17 min 17 sec)
Heartbeat CPU 1 instructions: 490000003 cycles: 578233385 heartbeat IPC: 0.8272 cumulative IPC: 0.7778 (Simulation time: 04 hr 19 min 54 sec)
Heartbeat CPU 2 instructions: 810000004 cycles: 581134029 heartbeat IPC: 1.111 cumulative IPC: 1.297 (Simulation time: 04 hr 21 min 16 sec)
Heartbeat CPU 0 instructions: 170000001 cycles: 588881183 heartbeat IPC: 0.182 cumulative IPC: 0.2113 (Simulation time: 04 hr 24 min 38 sec)
Heartbeat CPU 2 instructions: 820000004 cycles: 590353803 heartbeat IPC: 1.085 cumulative IPC: 1.294 (Simulation time: 04 hr 25 min 18 sec)
Heartbeat CPU 1 instructions: 500000001 cycles: 590488722 heartbeat IPC: 0.816 cumulative IPC: 0.7787 (Simulation time: 04 hr 25 min 23 sec)
Heartbeat CPU 2 instructions: 830000001 cycles: 599377844 heartbeat IPC: 1.108 cumulative IPC: 1.291 (Simulation time: 04 hr 29 min 15 sec)
Heartbeat CPU 1 instructions: 510000004 cycles: 602602223 heartbeat IPC: 0.8255 cumulative IPC: 0.7796 (Simulation time: 04 hr 30 min 31 sec)
Heartbeat CPU 3 instructions: 170000000 cycles: 603796784 heartbeat IPC: 0.1788 cumulative IPC: 0.176 (Simulation time: 04 hr 30 min 58 sec)
Heartbeat CPU 2 instructions: 840000000 cycles: 608387232 heartbeat IPC: 1.11 cumulative IPC: 1.288 (Simulation time: 04 hr 33 min 04 sec)
Heartbeat CPU 1 instructions: 520000000 cycles: 614905561 heartbeat IPC: 0.8128 cumulative IPC: 0.7803 (Simulation time: 04 hr 35 min 55 sec)
Heartbeat CPU 2 instructions: 850000002 cycles: 617516833 heartbeat IPC: 1.095 cumulative IPC: 1.285 (Simulation time: 04 hr 37 min 03 sec)
Heartbeat CPU 1 instructions: 530000001 cycles: 628085408 heartbeat IPC: 0.7587 cumulative IPC: 0.7799 (Simulation time: 04 hr 41 min 19 sec)
Heartbeat CPU 0 instructions: 180000001 cycles: 642390043 heartbeat IPC: 0.1869 cumulative IPC: 0.2092 (Simulation time: 04 hr 46 min 31 sec)
Heartbeat CPU 1 instructions: 540000002 cycles: 646490245 heartbeat IPC: 0.5433 cumulative IPC: 0.7729 (Simulation time: 04 hr 48 min 08 sec)
Heartbeat CPU 2 instructions: 860000004 cycles: 646624649 heartbeat IPC: 0.3436 cumulative IPC: 1.241 (Simulation time: 04 hr 48 min 12 sec)
Heartbeat CPU 2 instructions: 870000001 cycles: 656344171 heartbeat IPC: 1.029 cumulative IPC: 1.238 (Simulation time: 04 hr 52 min 15 sec)
Heartbeat CPU 1 instructions: 550000000 cycles: 659075480 heartbeat IPC: 0.7946 cumulative IPC: 0.7733 (Simulation time: 04 hr 53 min 30 sec)
Heartbeat CPU 3 instructions: 180000001 cycles: 664440952 heartbeat IPC: 0.1649 cumulative IPC: 0.175 (Simulation time: 04 hr 55 min 47 sec)
Heartbeat CPU 2 instructions: 880000000 cycles: 665338020 heartbeat IPC: 1.112 cumulative IPC: 1.236 (Simulation time: 04 hr 56 min 09 sec)
Heartbeat CPU 1 instructions: 560000004 cycles: 671227279 heartbeat IPC: 0.8229 cumulative IPC: 0.7742 (Simulation time: 04 hr 58 min 40 sec)
Heartbeat CPU 2 instructions: 890000002 cycles: 674475151 heartbeat IPC: 1.094 cumulative IPC: 1.234 (Simulation time: 05 hr 00 min 07 sec)
Heartbeat CPU 1 instructions: 570000001 cycles: 683333599 heartbeat IPC: 0.826 cumulative IPC: 0.7752 (Simulation time: 05 hr 03 min 56 sec)
Heartbeat CPU 2 instructions: 900000002 cycles: 683553960 heartbeat IPC: 1.101 cumulative IPC: 1.233 (Simulation time: 05 hr 04 min 03 sec)
Heartbeat CPU 0 instructions: 190000001 cycles: 688640040 heartbeat IPC: 0.2162 cumulative IPC: 0.2097 (Simulation time: 05 hr 06 min 18 sec)
Heartbeat CPU 2 instructions: 910000001 cycles: 692635175 heartbeat IPC: 1.101 cumulative IPC: 1.231 (Simulation time: 05 hr 08 min 00 sec)
Heartbeat CPU 1 instructions: 580000000 cycles: 695448846 heartbeat IPC: 0.8254 cumulative IPC: 0.7761 (Simulation time: 05 hr 09 min 13 sec)
Heartbeat CPU 2 instructions: 920000000 cycles: 701761730 heartbeat IPC: 1.096 cumulative IPC: 1.229 (Simulation time: 05 hr 12 min 02 sec)
Heartbeat CPU 1 instructions: 590000003 cycles: 707468317 heartbeat IPC: 0.832 cumulative IPC: 0.7771 (Simulation time: 05 hr 14 min 41 sec)
Heartbeat CPU 2 instructions: 930000000 cycles: 710912074 heartbeat IPC: 1.093 cumulative IPC: 1.227 (Simulation time: 05 hr 16 min 13 sec)
Heartbeat CPU 3 instructions: 190000003 cycles: 713951152 heartbeat IPC: 0.202 cumulative IPC: 0.1769 (Simulation time: 05 hr 17 min 28 sec)
Heartbeat CPU 1 instructions: 600000000 cycles: 723067836 heartbeat IPC: 0.641 cumulative IPC: 0.7741 (Simulation time: 05 hr 20 min 57 sec)
Heartbeat CPU 1 instructions: 610000001 cycles: 739439213 heartbeat IPC: 0.6108 cumulative IPC: 0.7703 (Simulation time: 05 hr 27 min 47 sec)
Heartbeat CPU 2 instructions: 940000002 cycles: 740437705 heartbeat IPC: 0.3387 cumulative IPC: 1.191 (Simulation time: 05 hr 28 min 11 sec)
Heartbeat CPU 0 instructions: 200000001 cycles: 744990259 heartbeat IPC: 0.1775 cumulative IPC: 0.2071 (Simulation time: 05 hr 30 min 11 sec)
Simulation finished CPU 0 instructions: 150000003 cycles: 724116884 cumulative IPC: 0.2071 (Simulation time: 05 hr 30 min 11 sec)
Heartbeat CPU 2 instructions: 950000002 cycles: 749727704 heartbeat IPC: 1.076 cumulative IPC: 1.189 (Simulation time: 05 hr 32 min 15 sec)
Heartbeat CPU 1 instructions: 620000000 cycles: 751969711 heartbeat IPC: 0.7981 cumulative IPC: 0.7708 (Simulation time: 05 hr 33 min 17 sec)
Heartbeat CPU 2 instructions: 960000000 cycles: 758931969 heartbeat IPC: 1.086 cumulative IPC: 1.188 (Simulation time: 05 hr 36 min 18 sec)
Heartbeat CPU 1 instructions: 630000003 cycles: 764076775 heartbeat IPC: 0.826 cumulative IPC: 0.7717 (Simulation time: 05 hr 38 min 31 sec)
Heartbeat CPU 2 instructions: 970000000 cycles: 768003450 heartbeat IPC: 1.102 cumulative IPC: 1.187 (Simulation time: 05 hr 40 min 17 sec)
Heartbeat CPU 3 instructions: 200000000 cycles: 775606158 heartbeat IPC: 0.1622 cumulative IPC: 0.1757 (Simulation time: 05 hr 43 min 32 sec)
Heartbeat CPU 1 instructions: 640000004 cycles: 776194529 heartbeat IPC: 0.8252 cumulative IPC: 0.7726 (Simulation time: 05 hr 43 min 46 sec)
Heartbeat CPU 2 instructions: 980000000 cycles: 777088023 heartbeat IPC: 1.101 cumulative IPC: 1.186 (Simulation time: 05 hr 44 min 08 sec)
Heartbeat CPU 2 instructions: 990000004 cycles: 786135766 heartbeat IPC: 1.105 cumulative IPC: 1.185 (Simulation time: 05 hr 47 min 52 sec)
Heartbeat CPU 0 instructions: 210000004 cycles: 787111951 heartbeat IPC: 0.2374 cumulative IPC: 0.2088 (Simulation time: 05 hr 48 min 17 sec)
Heartbeat CPU 1 instructions: 650000000 cycles: 788225698 heartbeat IPC: 0.8312 cumulative IPC: 0.7735 (Simulation time: 05 hr 48 min 46 sec)
Heartbeat CPU 2 instructions: 1000000003 cycles: 795313412 heartbeat IPC: 1.09 cumulative IPC: 1.184 (Simulation time: 05 hr 51 min 50 sec)
Heartbeat CPU 1 instructions: 660000002 cycles: 800422759 heartbeat IPC: 0.8199 cumulative IPC: 0.7742 (Simulation time: 05 hr 54 min 02 sec)
Heartbeat CPU 1 instructions: 670000004 cycles: 818035024 heartbeat IPC: 0.5678 cumulative IPC: 0.7696 (Simulation time: 06 hr 00 min 45 sec)
Heartbeat CPU 2 instructions: 1010000003 cycles: 823228282 heartbeat IPC: 0.3582 cumulative IPC: 1.155 (Simulation time: 06 hr 02 min 56 sec)
Heartbeat CPU 1 instructions: 680000002 cycles: 831594707 heartbeat IPC: 0.7375 cumulative IPC: 0.7691 (Simulation time: 06 hr 06 min 33 sec)
Heartbeat CPU 2 instructions: 1020000000 cycles: 832778742 heartbeat IPC: 1.047 cumulative IPC: 1.154 (Simulation time: 06 hr 07 min 07 sec)
Heartbeat CPU 3 instructions: 210000000 cycles: 836924870 heartbeat IPC: 0.1631 cumulative IPC: 0.1748 (Simulation time: 06 hr 08 min 50 sec)
Heartbeat CPU 2 instructions: 1030000000 cycles: 841685648 heartbeat IPC: 1.123 cumulative IPC: 1.154 (Simulation time: 06 hr 10 min 51 sec)
Heartbeat CPU 0 instructions: 220000002 cycles: 841733727 heartbeat IPC: 0.1831 cumulative IPC: 0.2071 (Simulation time: 06 hr 10 min 52 sec)
Heartbeat CPU 1 instructions: 690000004 cycles: 843659613 heartbeat IPC: 0.8289 cumulative IPC: 0.77 (Simulation time: 06 hr 11 min 41 sec)
Heartbeat CPU 2 instructions: 1040000001 cycles: 850816612 heartbeat IPC: 1.095 cumulative IPC: 1.153 (Simulation time: 06 hr 14 min 42 sec)
Heartbeat CPU 1 instructions: 700000002 cycles: 855789319 heartbeat IPC: 0.8244 cumulative IPC: 0.7708 (Simulation time: 06 hr 16 min 58 sec)
Heartbeat CPU 2 instructions: 1050000001 cycles: 859890811 heartbeat IPC: 1.102 cumulative IPC: 1.152 (Simulation time: 06 hr 18 min 50 sec)
Heartbeat CPU 1 instructions: 710000002 cycles: 867958884 heartbeat IPC: 0.8217 cumulative IPC: 0.7715 (Simulation time: 06 hr 22 min 25 sec)
Heartbeat CPU 2 instructions: 1060000000 cycles: 869069866 heartbeat IPC: 1.089 cumulative IPC: 1.152 (Simulation time: 06 hr 22 min 50 sec)
Simulation finished CPU 3 instructions: 150000000 cycles: 849103336 cumulative IPC: 0.1767 (Simulation time: 06 hr 23 min 10 sec)
Simulation complete CPU 0 instructions: 176743829 cycles: 849103336 cumulative IPC: 0.2082 (Simulation time: 06 hr 23 min 10 sec)
Simulation complete CPU 1 instructions: 655214553 cycles: 849103336 cumulative IPC: 0.7717 (Simulation time: 06 hr 23 min 10 sec)
Simulation complete CPU 2 instructions: 977866451 cycles: 849103336 cumulative IPC: 1.152 (Simulation time: 06 hr 23 min 10 sec)
Simulation complete CPU 3 instructions: 150000000 cycles: 849103336 cumulative IPC: 0.1767 (Simulation time: 06 hr 23 min 10 sec)

ChampSim completed all CPUs

=== Simulation ===
CPU 0 runs /home/das/dpc3_traces/620.omnetpp_s-874B.champsimtrace.xzCPU 1 runs /home/das/dpc3_traces/607.cactuBSSN_s-2421B.champsimtrace.xzCPU 2 runs /home/das/dpc3_traces/654.roms_s-842B.champsimtrace.xzCPU 3 runs /home/das/dpc3_traces/605.mcf_s-665B.champsimtrace.xz
Total Simulation Statistics (not including warmup)

CPU 0 cumulative IPC: 0.2082 instructions: 176743829 cycles: 849103336
CPU 0 Branch Prediction Accuracy: 94.92% MPKI: 10.57 Average ROB Occupancy at Mispredict: 83.11
Branch type MPKI
BRANCH_DIRECT_JUMP: 0.925
BRANCH_INDIRECT: 0.127
BRANCH_CONDITIONAL: 8.39
BRANCH_DIRECT_CALL: 0.000136
BRANCH_INDIRECT_CALL: 0.733
BRANCH_RETURN: 0.398


CPU 1 cumulative IPC: 0.7717 instructions: 655214553 cycles: 849103336
CPU 1 Branch Prediction Accuracy: 99.85% MPKI: 0.001802 Average ROB Occupancy at Mispredict: 348.6
Branch type MPKI
BRANCH_DIRECT_JUMP: 1.53e-06
BRANCH_INDIRECT: 7.63e-06
BRANCH_CONDITIONAL: 0.00179
BRANCH_DIRECT_CALL: 0
BRANCH_INDIRECT_CALL: 0
BRANCH_RETURN: 0


CPU 2 cumulative IPC: 1.152 instructions: 977866451 cycles: 849103336
CPU 2 Branch Prediction Accuracy: 90.88% MPKI: 11.68 Average ROB Occupancy at Mispredict: 125.7
Branch type MPKI
BRANCH_DIRECT_JUMP: 0.0638
BRANCH_INDIRECT: 0
BRANCH_CONDITIONAL: 6.97
BRANCH_DIRECT_CALL: 8.18e-06
BRANCH_INDIRECT_CALL: 0
BRANCH_RETURN: 4.65


CPU 3 cumulative IPC: 0.1767 instructions: 150000000 cycles: 849103336
CPU 3 Branch Prediction Accuracy: 90.36% MPKI: 23.85 Average ROB Occupancy at Mispredict: 18.54
Branch type MPKI
BRANCH_DIRECT_JUMP: 0.254
BRANCH_INDIRECT: 0
BRANCH_CONDITIONAL: 23.6
BRANCH_DIRECT_CALL: 0
BRANCH_INDIRECT_CALL: 0.000633
BRANCH_RETURN: 0

LLC TOTAL        ACCESS:    4126613 HIT:    1756962 MISS:    2369651
LLC LOAD         ACCESS:    1988057 HIT:     442137 MISS:    1545920
LLC RFO          ACCESS:     300576 HIT:     129886 MISS:     170690
LLC PREFETCH     ACCESS:          0 HIT:          0 MISS:          0
LLC WRITE        ACCESS:    1138433 HIT:    1115273 MISS:      23160
LLC TRANSLATION  ACCESS:     699547 HIT:      69666 MISS:     629881
LLC PREFETCH REQUESTED:          0 ISSUED:          0 USEFUL:          0 USELESS:          0
LLC AVERAGE MISS LATENCY: 1484 cycles
LLC TOTAL        ACCESS:    7583877 HIT:    2490613 MISS:    5093264
LLC LOAD         ACCESS:    6822874 HIT:    1790790 MISS:    5032084
LLC RFO          ACCESS:      13500 HIT:      13500 MISS:          0
LLC PREFETCH     ACCESS:          0 HIT:          0 MISS:          0
LLC WRITE        ACCESS:     648658 HIT:     648571 MISS:         87
LLC TRANSLATION  ACCESS:      98845 HIT:      37752 MISS:      61093
LLC PREFETCH REQUESTED:          0 ISSUED:          0 USEFUL:          0 USELESS:          0
LLC AVERAGE MISS LATENCY: 1484 cycles
LLC TOTAL        ACCESS:    2852069 HIT:     748842 MISS:    2103227
LLC LOAD         ACCESS:    1220516 HIT:       8017 MISS:    1212499
LLC RFO          ACCESS:     811548 HIT:         30 MISS:     811518
LLC PREFETCH     ACCESS:          0 HIT:          0 MISS:          0
LLC WRITE        ACCESS:     811762 HIT:     738934 MISS:      72828
LLC TRANSLATION  ACCESS:       8243 HIT:       1861 MISS:       6382
LLC PREFETCH REQUESTED:          0 ISSUED:          0 USEFUL:          0 USELESS:          0
LLC AVERAGE MISS LATENCY: 1484 cycles
LLC TOTAL        ACCESS:    3618732 HIT:    1959117 MISS:    1659615
LLC LOAD         ACCESS:    3001235 HIT:    1379098 MISS:    1622137
LLC RFO          ACCESS:     231691 HIT:     225192 MISS:       6499
LLC PREFETCH     ACCESS:          0 HIT:          0 MISS:          0
LLC WRITE        ACCESS:     371781 HIT:     347477 MISS:      24304
LLC TRANSLATION  ACCESS:      14025 HIT:       7350 MISS:       6675
LLC PREFETCH REQUESTED:          0 ISSUED:          0 USEFUL:          0 USELESS:          0
LLC AVERAGE MISS LATENCY: 1484 cycles
cpu0_DTLB TOTAL        ACCESS:   45141415 HIT:   41257851 MISS:    3883564
cpu0_DTLB LOAD         ACCESS:   45141415 HIT:   41257851 MISS:    3883564
cpu0_DTLB RFO          ACCESS:          0 HIT:          0 MISS:          0
cpu0_DTLB PREFETCH     ACCESS:          0 HIT:          0 MISS:          0
cpu0_DTLB WRITE        ACCESS:          0 HIT:          0 MISS:          0
cpu0_DTLB TRANSLATION  ACCESS:          0 HIT:          0 MISS:          0
cpu0_DTLB PREFETCH REQUESTED:          0 ISSUED:          0 USEFUL:          0 USELESS:          0
cpu0_DTLB AVERAGE MISS LATENCY: 158.6 cycles
cpu0_DTLB TOTAL        ACCESS:          0 HIT:          0 MISS:          0
cpu0_DTLB LOAD         ACCESS:          0 HIT:          0 MISS:          0
cpu0_DTLB RFO          ACCESS:          0 HIT:          0 MISS:          0
cpu0_DTLB PREFETCH     ACCESS:          0 HIT:          0 MISS:          0
cpu0_DTLB WRITE        ACCESS:          0 HIT:          0 MISS:          0
cpu0_DTLB TRANSLATION  ACCESS:          0 HIT:          0 MISS:          0
cpu0_DTLB PREFETCH REQUESTED:          0 ISSUED:          0 USEFUL:          0 USELESS:          0
cpu0_DTLB AVERAGE MISS LATENCY: 158.6 cycles
cpu0_DTLB TOTAL        ACCESS:          0 HIT:          0 MISS:          0
cpu0_DTLB LOAD         ACCESS:          0 HIT:          0 MISS:          0
cpu0_DTLB RFO          ACCESS:          0 HIT:          0 MISS:          0
cpu0_DTLB PREFETCH     ACCESS:          0 HIT:          0 MISS:          0
cpu0_DTLB WRITE        ACCESS:          0 HIT:          0 MISS:          0
cpu0_DTLB TRANSLATION  ACCESS:          0 HIT:          0 MISS:          0
cpu0_DTLB PREFETCH REQUESTED:          0 ISSUED:          0 USEFUL:          0 USELESS:          0
cpu0_DTLB AVERAGE MISS LATENCY: 158.6 cycles
cpu0_DTLB TOTAL        ACCESS:          0 HIT:          0 MISS:          0
cpu0_DTLB LOAD         ACCESS:          0 HIT:          0 MISS:          0
cpu0_DTLB RFO          ACCESS:          0 HIT:          0 MISS:          0
cpu0_DTLB PREFETCH     ACCESS:          0 HIT:          0 MISS:          0
cpu0_DTLB WRITE        ACCESS:          0 HIT:          0 MISS:          0
cpu0_DTLB TRANSLATION  ACCESS:          0 HIT:          0 MISS:          0
cpu0_DTLB PREFETCH REQUESTED:          0 ISSUED:          0 USEFUL:          0 USELESS:          0
cpu0_DTLB AVERAGE MISS LATENCY: 158.6 cycles
cpu0_ITLB TOTAL        ACCESS:   12729379 HIT:   12408369 MISS:     321010
cpu0_ITLB LOAD         ACCESS:   12729379 HIT:   12408369 MISS:     321010
cpu0_ITLB RFO          ACCESS:          0 HIT:          0 MISS:          0
cpu0_ITLB PREFETCH     ACCESS:          0 HIT:          0 MISS:          0
cpu0_ITLB WRITE        ACCESS:          0 HIT:          0 MISS:          0
cpu0_ITLB TRANSLATION  ACCESS:          0 HIT:          0 MISS:          0
cpu0_ITLB PREFETCH REQUESTED:          0 ISSUED:          0 USEFUL:          0 USELESS:          0
cpu0_ITLB AVERAGE MISS LATENCY: 11.2 cycles
cpu0_ITLB TOTAL        ACCESS:          0 HIT:          0 MISS:          0
cpu0_ITLB LOAD         ACCESS:          0 HIT:          0 MISS:          0
cpu0_ITLB RFO          ACCESS:          0 HIT:          0 MISS:          0
cpu0_ITLB PREFETCH     ACCESS:          0 HIT:          0 MISS:          0
cpu0_ITLB WRITE        ACCESS:          0 HIT:          0 MISS:          0
cpu0_ITLB TRANSLATION  ACCESS:          0 HIT:          0 MISS:          0
cpu0_ITLB PREFETCH REQUESTED:          0 ISSUED:          0 USEFUL:          0 USELESS:          0
cpu0_ITLB AVERAGE MISS LATENCY: 11.2 cycles
cpu0_ITLB TOTAL        ACCESS:          0 HIT:          0 MISS:          0
cpu0_ITLB LOAD         ACCESS:          0 HIT:          0 MISS:          0
cpu0_ITLB RFO          ACCESS:          0 HIT:          0 MISS:          0
cpu0_ITLB PREFETCH     ACCESS:          0 HIT:          0 MISS:          0
cpu0_ITLB WRITE        ACCESS:          0 HIT:          0 MISS:          0
cpu0_ITLB TRANSLATION  ACCESS:          0 HIT:          0 MISS:          0
cpu0_ITLB PREFETCH REQUESTED:          0 ISSUED:          0 USEFUL:          0 USELESS:          0
cpu0_ITLB AVERAGE MISS LATENCY: 11.2 cycles
cpu0_ITLB TOTAL        ACCESS:          0 HIT:          0 MISS:          0
cpu0_ITLB LOAD         ACCESS:          0 HIT:          0 MISS:          0
cpu0_ITLB RFO          ACCESS:          0 HIT:          0 MISS:          0
cpu0_ITLB PREFETCH     ACCESS:          0 HIT:          0 MISS:          0
cpu0_ITLB WRITE        ACCESS:          0 HIT:          0 MISS:          0
cpu0_ITLB TRANSLATION  ACCESS:          0 HIT:          0 MISS:          0
cpu0_ITLB PREFETCH REQUESTED:          0 ISSUED:          0 USEFUL:          0 USELESS:          0
cpu0_ITLB AVERAGE MISS LATENCY: 11.2 cycles
cpu0_L1D TOTAL        ACCESS:   58730035 HIT:   52949560 MISS:    5780475
cpu0_L1D LOAD         ACCESS:   27057336 HIT:   23442865 MISS:    3614471
cpu0_L1D RFO          ACCESS:          0 HIT:          0 MISS:          0
cpu0_L1D PREFETCH     ACCESS:          0 HIT:          0 MISS:          0
cpu0_L1D WRITE        ACCESS:   30625866 HIT:   29336466 MISS:    1289400
cpu0_L1D TRANSLATION  ACCESS:    1046833 HIT:     170229 MISS:     876604
cpu0_L1D PREFETCH REQUESTED:          0 ISSUED:          0 USEFUL:          0 USELESS:          0
cpu0_L1D AVERAGE MISS LATENCY: 383.1 cycles
cpu0_L1D TOTAL        ACCESS:          0 HIT:          0 MISS:          0
cpu0_L1D LOAD         ACCESS:          0 HIT:          0 MISS:          0
cpu0_L1D RFO          ACCESS:          0 HIT:          0 MISS:          0
cpu0_L1D PREFETCH     ACCESS:          0 HIT:          0 MISS:          0
cpu0_L1D WRITE        ACCESS:          0 HIT:          0 MISS:          0
cpu0_L1D TRANSLATION  ACCESS:          0 HIT:          0 MISS:          0
cpu0_L1D PREFETCH REQUESTED:          0 ISSUED:          0 USEFUL:          0 USELESS:          0
cpu0_L1D AVERAGE MISS LATENCY: 383.1 cycles
cpu0_L1D TOTAL        ACCESS:          0 HIT:          0 MISS:          0
cpu0_L1D LOAD         ACCESS:          0 HIT:          0 MISS:          0
cpu0_L1D RFO          ACCESS:          0 HIT:          0 MISS:          0
cpu0_L1D PREFETCH     ACCESS:          0 HIT:          0 MISS:          0
cpu0_L1D WRITE        ACCESS:          0 HIT:          0 MISS:          0
cpu0_L1D TRANSLATION  ACCESS:          0 HIT:          0 MISS:          0
cpu0_L1D PREFETCH REQUESTED:          0 ISSUED:          0 USEFUL:          0 USELESS:          0
cpu0_L1D AVERAGE MISS LATENCY: 383.1 cycles
cpu0_L1D TOTAL        ACCESS:          0 HIT:          0 MISS:          0
cpu0_L1D LOAD         ACCESS:          0 HIT:          0 MISS:          0
cpu0_L1D RFO          ACCESS:          0 HIT:          0 MISS:          0
cpu0_L1D PREFETCH     ACCESS:          0 HIT:          0 MISS:          0
cpu0_L1D WRITE        ACCESS:          0 HIT:          0 MISS:          0
cpu0_L1D TRANSLATION  ACCESS:          0 HIT:          0 MISS:          0
cpu0_L1D PREFETCH REQUESTED:          0 ISSUED:          0 USEFUL:          0 USELESS:          0
cpu0_L1D AVERAGE MISS LATENCY: 383.1 cycles
cpu0_L1I TOTAL        ACCESS:   15185641 HIT:   15098436 MISS:      87205
cpu0_L1I LOAD         ACCESS:   15185641 HIT:   15098436 MISS:      87205
cpu0_L1I RFO          ACCESS:          0 HIT:          0 MISS:          0
cpu0_L1I PREFETCH     ACCESS:          0 HIT:          0 MISS:          0
cpu0_L1I WRITE        ACCESS:          0 HIT:          0 MISS:          0
cpu0_L1I TRANSLATION  ACCESS:          0 HIT:          0 MISS:          0
cpu0_L1I PREFETCH REQUESTED:          0 ISSUED:          0 USEFUL:          0 USELESS:          0
cpu0_L1I AVERAGE MISS LATENCY: 53.87 cycles
cpu0_L1I TOTAL        ACCESS:          0 HIT:          0 MISS:          0
cpu0_L1I LOAD         ACCESS:          0 HIT:          0 MISS:          0
cpu0_L1I RFO          ACCESS:          0 HIT:          0 MISS:          0
cpu0_L1I PREFETCH     ACCESS:          0 HIT:          0 MISS:          0
cpu0_L1I WRITE        ACCESS:          0 HIT:          0 MISS:          0
cpu0_L1I TRANSLATION  ACCESS:          0 HIT:          0 MISS:          0
cpu0_L1I PREFETCH REQUESTED:          0 ISSUED:          0 USEFUL:          0 USELESS:          0
cpu0_L1I AVERAGE MISS LATENCY: 53.87 cycles
cpu0_L1I TOTAL        ACCESS:          0 HIT:          0 MISS:          0
cpu0_L1I LOAD         ACCESS:          0 HIT:          0 MISS:          0
cpu0_L1I RFO          ACCESS:          0 HIT:          0 MISS:          0
cpu0_L1I PREFETCH     ACCESS:          0 HIT:          0 MISS:          0
cpu0_L1I WRITE        ACCESS:          0 HIT:          0 MISS:          0
cpu0_L1I TRANSLATION  ACCESS:          0 HIT:          0 MISS:          0
cpu0_L1I PREFETCH REQUESTED:          0 ISSUED:          0 USEFUL:          0 USELESS:          0
cpu0_L1I AVERAGE MISS LATENCY: 53.87 cycles
cpu0_L1I TOTAL        ACCESS:          0 HIT:          0 MISS:          0
cpu0_L1I LOAD         ACCESS:          0 HIT:          0 MISS:          0
cpu0_L1I RFO          ACCESS:          0 HIT:          0 MISS:          0
cpu0_L1I PREFETCH     ACCESS:          0 HIT:          0 MISS:          0
cpu0_L1I WRITE        ACCESS:          0 HIT:          0 MISS:          0
cpu0_L1I TRANSLATION  ACCESS:          0 HIT:          0 MISS:          0
cpu0_L1I PREFETCH REQUESTED:          0 ISSUED:          0 USEFUL:          0 USELESS:          0
cpu0_L1I AVERAGE MISS LATENCY: 53.87 cycles
cpu0_L2C TOTAL        ACCESS:    5946182 HIT:    2955281 MISS:    2990901
cpu0_L2C LOAD         ACCESS:    2990225 HIT:    1002168 MISS:    1988057
cpu0_L2C RFO          ACCESS:     431569 HIT:     130993 MISS:     300576
cpu0_L2C PREFETCH     ACCESS:          0 HIT:          0 MISS:          0
cpu0_L2C WRITE        ACCESS:    1648725 HIT:    1646004 MISS:       2721
cpu0_L2C TRANSLATION  ACCESS:     875663 HIT:     176116 MISS:     699547
cpu0_L2C PREFETCH REQUESTED:          0 ISSUED:          0 USEFUL:          0 USELESS:          0
cpu0_L2C AVERAGE MISS LATENCY: 743.1 cycles
cpu0_L2C TOTAL        ACCESS:          0 HIT:          0 MISS:          0
cpu0_L2C LOAD         ACCESS:          0 HIT:          0 MISS:          0
cpu0_L2C RFO          ACCESS:          0 HIT:          0 MISS:          0
cpu0_L2C PREFETCH     ACCESS:          0 HIT:          0 MISS:          0
cpu0_L2C WRITE        ACCESS:          0 HIT:          0 MISS:          0
cpu0_L2C TRANSLATION  ACCESS:          0 HIT:          0 MISS:          0
cpu0_L2C PREFETCH REQUESTED:          0 ISSUED:          0 USEFUL:          0 USELESS:          0
cpu0_L2C AVERAGE MISS LATENCY: 743.1 cycles
cpu0_L2C TOTAL        ACCESS:          0 HIT:          0 MISS:          0
cpu0_L2C LOAD         ACCESS:          0 HIT:          0 MISS:          0
cpu0_L2C RFO          ACCESS:          0 HIT:          0 MISS:          0
cpu0_L2C PREFETCH     ACCESS:          0 HIT:          0 MISS:          0
cpu0_L2C WRITE        ACCESS:          0 HIT:          0 MISS:          0
cpu0_L2C TRANSLATION  ACCESS:          0 HIT:          0 MISS:          0
cpu0_L2C PREFETCH REQUESTED:          0 ISSUED:          0 USEFUL:          0 USELESS:          0
cpu0_L2C AVERAGE MISS LATENCY: 743.1 cycles
cpu0_L2C TOTAL        ACCESS:          0 HIT:          0 MISS:          0
cpu0_L2C LOAD         ACCESS:          0 HIT:          0 MISS:          0
cpu0_L2C RFO          ACCESS:          0 HIT:          0 MISS:          0
cpu0_L2C PREFETCH     ACCESS:          0 HIT:          0 MISS:          0
cpu0_L2C WRITE        ACCESS:          0 HIT:          0 MISS:          0
cpu0_L2C TRANSLATION  ACCESS:          0 HIT:          0 MISS:          0
cpu0_L2C PREFETCH REQUESTED:          0 ISSUED:          0 USEFUL:          0 USELESS:          0
cpu0_L2C AVERAGE MISS LATENCY: 743.1 cycles
cpu0_STLB TOTAL        ACCESS:    3550561 HIT:    2795445 MISS:     755116
cpu0_STLB LOAD         ACCESS:    3550561 HIT:    2795445 MISS:     755116
cpu0_STLB RFO          ACCESS:          0 HIT:          0 MISS:          0
cpu0_STLB PREFETCH     ACCESS:          0 HIT:          0 MISS:          0
cpu0_STLB WRITE        ACCESS:          0 HIT:          0 MISS:          0
cpu0_STLB TRANSLATION  ACCESS:          0 HIT:          0 MISS:          0
cpu0_STLB PREFETCH REQUESTED:          0 ISSUED:          0 USEFUL:          0 USELESS:          0
cpu0_STLB AVERAGE MISS LATENCY: 802.9 cycles
cpu0_STLB TOTAL        ACCESS:          0 HIT:          0 MISS:          0
cpu0_STLB LOAD         ACCESS:          0 HIT:          0 MISS:          0
cpu0_STLB RFO          ACCESS:          0 HIT:          0 MISS:          0
cpu0_STLB PREFETCH     ACCESS:          0 HIT:          0 MISS:          0
cpu0_STLB WRITE        ACCESS:          0 HIT:          0 MISS:          0
cpu0_STLB TRANSLATION  ACCESS:          0 HIT:          0 MISS:          0
cpu0_STLB PREFETCH REQUESTED:          0 ISSUED:          0 USEFUL:          0 USELESS:          0
cpu0_STLB AVERAGE MISS LATENCY: 802.9 cycles
cpu0_STLB TOTAL        ACCESS:          0 HIT:          0 MISS:          0
cpu0_STLB LOAD         ACCESS:          0 HIT:          0 MISS:          0
cpu0_STLB RFO          ACCESS:          0 HIT:          0 MISS:          0
cpu0_STLB PREFETCH     ACCESS:          0 HIT:          0 MISS:          0
cpu0_STLB WRITE        ACCESS:          0 HIT:          0 MISS:          0
cpu0_STLB TRANSLATION  ACCESS:          0 HIT:          0 MISS:          0
cpu0_STLB PREFETCH REQUESTED:          0 ISSUED:          0 USEFUL:          0 USELESS:          0
cpu0_STLB AVERAGE MISS LATENCY: 802.9 cycles
cpu0_STLB TOTAL        ACCESS:          0 HIT:          0 MISS:          0
cpu0_STLB LOAD         ACCESS:          0 HIT:          0 MISS:          0
cpu0_STLB RFO          ACCESS:          0 HIT:          0 MISS:          0
cpu0_STLB PREFETCH     ACCESS:          0 HIT:          0 MISS:          0
cpu0_STLB WRITE        ACCESS:          0 HIT:          0 MISS:          0
cpu0_STLB TRANSLATION  ACCESS:          0 HIT:          0 MISS:          0
cpu0_STLB PREFETCH REQUESTED:          0 ISSUED:          0 USEFUL:          0 USELESS:          0
cpu0_STLB AVERAGE MISS LATENCY: 802.9 cycles
cpu1_DTLB TOTAL        ACCESS:          0 HIT:          0 MISS:          0
cpu1_DTLB LOAD         ACCESS:          0 HIT:          0 MISS:          0
cpu1_DTLB RFO          ACCESS:          0 HIT:          0 MISS:          0
cpu1_DTLB PREFETCH     ACCESS:          0 HIT:          0 MISS:          0
cpu1_DTLB WRITE        ACCESS:          0 HIT:          0 MISS:          0
cpu1_DTLB TRANSLATION  ACCESS:          0 HIT:          0 MISS:          0
cpu1_DTLB PREFETCH REQUESTED:          0 ISSUED:          0 USEFUL:          0 USELESS:          0
cpu1_DTLB AVERAGE MISS LATENCY: 7.821 cycles
cpu1_DTLB TOTAL        ACCESS:  138922228 HIT:   81864435 MISS:   57057793
cpu1_DTLB LOAD         ACCESS:  138922228 HIT:   81864435 MISS:   57057793
cpu1_DTLB RFO          ACCESS:          0 HIT:          0 MISS:          0
cpu1_DTLB PREFETCH     ACCESS:          0 HIT:          0 MISS:          0
cpu1_DTLB WRITE        ACCESS:          0 HIT:          0 MISS:          0
cpu1_DTLB TRANSLATION  ACCESS:          0 HIT:          0 MISS:          0
cpu1_DTLB PREFETCH REQUESTED:          0 ISSUED:          0 USEFUL:          0 USELESS:          0
cpu1_DTLB AVERAGE MISS LATENCY: 7.821 cycles
cpu1_DTLB TOTAL        ACCESS:          0 HIT:          0 MISS:          0
cpu1_DTLB LOAD         ACCESS:          0 HIT:          0 MISS:          0
cpu1_DTLB RFO          ACCESS:          0 HIT:          0 MISS:          0
cpu1_DTLB PREFETCH     ACCESS:          0 HIT:          0 MISS:          0
cpu1_DTLB WRITE        ACCESS:          0 HIT:          0 MISS:          0
cpu1_DTLB TRANSLATION  ACCESS:          0 HIT:          0 MISS:          0
cpu1_DTLB PREFETCH REQUESTED:          0 ISSUED:          0 USEFUL:          0 USELESS:          0
cpu1_DTLB AVERAGE MISS LATENCY: 7.821 cycles
cpu1_DTLB TOTAL        ACCESS:          0 HIT:          0 MISS:          0
cpu1_DTLB LOAD         ACCESS:          0 HIT:          0 MISS:          0
cpu1_DTLB RFO          ACCESS:          0 HIT:          0 MISS:          0
cpu1_DTLB PREFETCH     ACCESS:          0 HIT:          0 MISS:          0
cpu1_DTLB WRITE        ACCESS:          0 HIT:          0 MISS:          0
cpu1_DTLB TRANSLATION  ACCESS:          0 HIT:          0 MISS:          0
cpu1_DTLB PREFETCH REQUESTED:          0 ISSUED:          0 USEFUL:          0 USELESS:          0
cpu1_DTLB AVERAGE MISS LATENCY: 7.821 cycles
cpu1_ITLB TOTAL        ACCESS:          0 HIT:          0 MISS:          0
cpu1_ITLB LOAD         ACCESS:          0 HIT:          0 MISS:          0
cpu1_ITLB RFO          ACCESS:          0 HIT:          0 MISS:          0
cpu1_ITLB PREFETCH     ACCESS:          0 HIT:          0 MISS:          0
cpu1_ITLB WRITE        ACCESS:          0 HIT:          0 MISS:          0
cpu1_ITLB TRANSLATION  ACCESS:          0 HIT:          0 MISS:          0
cpu1_ITLB PREFETCH REQUESTED:          0 ISSUED:          0 USEFUL:          0 USELESS:          0
cpu1_ITLB AVERAGE MISS LATENCY: -nan cycles
cpu1_ITLB TOTAL        ACCESS:   85508919 HIT:   85508919 MISS:          0
cpu1_ITLB LOAD         ACCESS:   85508919 HIT:   85508919 MISS:          0
cpu1_ITLB RFO          ACCESS:          0 HIT:          0 MISS:          0
cpu1_ITLB PREFETCH     ACCESS:          0 HIT:          0 MISS:          0
cpu1_ITLB WRITE        ACCESS:          0 HIT:          0 MISS:          0
cpu1_ITLB TRANSLATION  ACCESS:          0 HIT:          0 MISS:          0
cpu1_ITLB PREFETCH REQUESTED:          0 ISSUED:          0 USEFUL:          0 USELESS:          0
cpu1_ITLB AVERAGE MISS LATENCY: -nan cycles
cpu1_ITLB TOTAL        ACCESS:          0 HIT:          0 MISS:          0
cpu1_ITLB LOAD         ACCESS:          0 HIT:          0 MISS:          0
cpu1_ITLB RFO          ACCESS:          0 HIT:          0 MISS:          0
cpu1_ITLB PREFETCH     ACCESS:          0 HIT:          0 MISS:          0
cpu1_ITLB WRITE        ACCESS:          0 HIT:          0 MISS:          0
cpu1_ITLB TRANSLATION  ACCESS:          0 HIT:          0 MISS:          0
cpu1_ITLB PREFETCH REQUESTED:          0 ISSUED:          0 USEFUL:          0 USELESS:          0
cpu1_ITLB AVERAGE MISS LATENCY: -nan cycles
cpu1_ITLB TOTAL        ACCESS:          0 HIT:          0 MISS:          0
cpu1_ITLB LOAD         ACCESS:          0 HIT:          0 MISS:          0
cpu1_ITLB RFO          ACCESS:          0 HIT:          0 MISS:          0
cpu1_ITLB PREFETCH     ACCESS:          0 HIT:          0 MISS:          0
cpu1_ITLB WRITE        ACCESS:          0 HIT:          0 MISS:          0
cpu1_ITLB TRANSLATION  ACCESS:          0 HIT:          0 MISS:          0
cpu1_ITLB PREFETCH REQUESTED:          0 ISSUED:          0 USEFUL:          0 USELESS:          0
cpu1_ITLB AVERAGE MISS LATENCY: -nan cycles
cpu1_L1D TOTAL        ACCESS:          0 HIT:          0 MISS:          0
cpu1_L1D LOAD         ACCESS:          0 HIT:          0 MISS:          0
cpu1_L1D RFO          ACCESS:          0 HIT:          0 MISS:          0
cpu1_L1D PREFETCH     ACCESS:          0 HIT:          0 MISS:          0
cpu1_L1D WRITE        ACCESS:          0 HIT:          0 MISS:          0
cpu1_L1D TRANSLATION  ACCESS:          0 HIT:          0 MISS:          0
cpu1_L1D PREFETCH REQUESTED:          0 ISSUED:          0 USEFUL:          0 USELESS:          0
cpu1_L1D AVERAGE MISS LATENCY: 140.6 cycles
cpu1_L1D TOTAL        ACCESS:  171196427 HIT:   94995627 MISS:   76200800
cpu1_L1D LOAD         ACCESS:   96212916 HIT:   24048543 MISS:   72164373
cpu1_L1D RFO          ACCESS:          0 HIT:          0 MISS:          0
cpu1_L1D PREFETCH     ACCESS:          0 HIT:          0 MISS:          0
cpu1_L1D WRITE        ACCESS:   74859358 HIT:   70945990 MISS:    3913368
cpu1_L1D TRANSLATION  ACCESS:     124153 HIT:       1094 MISS:     123059
cpu1_L1D PREFETCH REQUESTED:          0 ISSUED:          0 USEFUL:          0 USELESS:          0
cpu1_L1D AVERAGE MISS LATENCY: 140.6 cycles
cpu1_L1D TOTAL        ACCESS:          0 HIT:          0 MISS:          0
cpu1_L1D LOAD         ACCESS:          0 HIT:          0 MISS:          0
cpu1_L1D RFO          ACCESS:          0 HIT:          0 MISS:          0
cpu1_L1D PREFETCH     ACCESS:          0 HIT:          0 MISS:          0
cpu1_L1D WRITE        ACCESS:          0 HIT:          0 MISS:          0
cpu1_L1D TRANSLATION  ACCESS:          0 HIT:          0 MISS:          0
cpu1_L1D PREFETCH REQUESTED:          0 ISSUED:          0 USEFUL:          0 USELESS:          0
cpu1_L1D AVERAGE MISS LATENCY: 140.6 cycles
cpu1_L1D TOTAL        ACCESS:          0 HIT:          0 MISS:          0
cpu1_L1D LOAD         ACCESS:          0 HIT:          0 MISS:          0
cpu1_L1D RFO          ACCESS:          0 HIT:          0 MISS:          0
cpu1_L1D PREFETCH     ACCESS:          0 HIT:          0 MISS:          0
cpu1_L1D WRITE        ACCESS:          0 HIT:          0 MISS:          0
cpu1_L1D TRANSLATION  ACCESS:          0 HIT:          0 MISS:          0
cpu1_L1D PREFETCH REQUESTED:          0 ISSUED:          0 USEFUL:          0 USELESS:          0
cpu1_L1D AVERAGE MISS LATENCY: 140.6 cycles
cpu1_L1I TOTAL        ACCESS:          0 HIT:          0 MISS:          0
cpu1_L1I LOAD         ACCESS:          0 HIT:          0 MISS:          0
cpu1_L1I RFO          ACCESS:          0 HIT:          0 MISS:          0
cpu1_L1I PREFETCH     ACCESS:          0 HIT:          0 MISS:          0
cpu1_L1I WRITE        ACCESS:          0 HIT:          0 MISS:          0
cpu1_L1I TRANSLATION  ACCESS:          0 HIT:          0 MISS:          0
cpu1_L1I PREFETCH REQUESTED:          0 ISSUED:          0 USEFUL:          0 USELESS:          0
cpu1_L1I AVERAGE MISS LATENCY: -nan cycles
cpu1_L1I TOTAL        ACCESS:  112162136 HIT:  112162136 MISS:          0
cpu1_L1I LOAD         ACCESS:  112162136 HIT:  112162136 MISS:          0
cpu1_L1I RFO          ACCESS:          0 HIT:          0 MISS:          0
cpu1_L1I PREFETCH     ACCESS:          0 HIT:          0 MISS:          0
cpu1_L1I WRITE        ACCESS:          0 HIT:          0 MISS:          0
cpu1_L1I TRANSLATION  ACCESS:          0 HIT:          0 MISS:          0
cpu1_L1I PREFETCH REQUESTED:          0 ISSUED:          0 USEFUL:          0 USELESS:          0
cpu1_L1I AVERAGE MISS LATENCY: -nan cycles
cpu1_L1I TOTAL        ACCESS:          0 HIT:          0 MISS:          0
cpu1_L1I LOAD         ACCESS:          0 HIT:          0 MISS:          0
cpu1_L1I RFO          ACCESS:          0 HIT:          0 MISS:          0
cpu1_L1I PREFETCH     ACCESS:          0 HIT:          0 MISS:          0
cpu1_L1I WRITE        ACCESS:          0 HIT:          0 MISS:          0
cpu1_L1I TRANSLATION  ACCESS:          0 HIT:          0 MISS:          0
cpu1_L1I PREFETCH REQUESTED:          0 ISSUED:          0 USEFUL:          0 USELESS:          0
cpu1_L1I AVERAGE MISS LATENCY: -nan cycles
cpu1_L1I TOTAL        ACCESS:          0 HIT:          0 MISS:          0
cpu1_L1I LOAD         ACCESS:          0 HIT:          0 MISS:          0
cpu1_L1I RFO          ACCESS:          0 HIT:          0 MISS:          0
cpu1_L1I PREFETCH     ACCESS:          0 HIT:          0 MISS:          0
cpu1_L1I WRITE        ACCESS:          0 HIT:          0 MISS:          0
cpu1_L1I TRANSLATION  ACCESS:          0 HIT:          0 MISS:          0
cpu1_L1I PREFETCH REQUESTED:          0 ISSUED:          0 USEFUL:          0 USELESS:          0
cpu1_L1I AVERAGE MISS LATENCY: -nan cycles
cpu1_L2C TOTAL        ACCESS:          0 HIT:          0 MISS:          0
cpu1_L2C LOAD         ACCESS:          0 HIT:          0 MISS:          0
cpu1_L2C RFO          ACCESS:          0 HIT:          0 MISS:          0
cpu1_L2C PREFETCH     ACCESS:          0 HIT:          0 MISS:          0
cpu1_L2C WRITE        ACCESS:          0 HIT:          0 MISS:          0
cpu1_L2C TRANSLATION  ACCESS:          0 HIT:          0 MISS:          0
cpu1_L2C PREFETCH REQUESTED:          0 ISSUED:          0 USEFUL:          0 USELESS:          0
cpu1_L2C AVERAGE MISS LATENCY: 1435 cycles
cpu1_L2C TOTAL        ACCESS:   80075430 HIT:   73139878 MISS:    6935552
cpu1_L2C LOAD         ACCESS:   71385292 HIT:   64562266 MISS:    6823026
cpu1_L2C RFO          ACCESS:    2879960 HIT:    2866279 MISS:      13681
cpu1_L2C PREFETCH     ACCESS:          0 HIT:          0 MISS:          0
cpu1_L2C WRITE        ACCESS:    5687206 HIT:    5687206 MISS:          0
cpu1_L2C TRANSLATION  ACCESS:     122972 HIT:      24127 MISS:      98845
cpu1_L2C PREFETCH REQUESTED:          0 ISSUED:          0 USEFUL:          0 USELESS:          0
cpu1_L2C AVERAGE MISS LATENCY: 1435 cycles
cpu1_L2C TOTAL        ACCESS:          0 HIT:          0 MISS:          0
cpu1_L2C LOAD         ACCESS:          0 HIT:          0 MISS:          0
cpu1_L2C RFO          ACCESS:          0 HIT:          0 MISS:          0
cpu1_L2C PREFETCH     ACCESS:          0 HIT:          0 MISS:          0
cpu1_L2C WRITE        ACCESS:          0 HIT:          0 MISS:          0
cpu1_L2C TRANSLATION  ACCESS:          0 HIT:          0 MISS:          0
cpu1_L2C PREFETCH REQUESTED:          0 ISSUED:          0 USEFUL:          0 USELESS:          0
cpu1_L2C AVERAGE MISS LATENCY: 1435 cycles
cpu1_L2C TOTAL        ACCESS:          0 HIT:          0 MISS:          0
cpu1_L2C LOAD         ACCESS:          0 HIT:          0 MISS:          0
cpu1_L2C RFO          ACCESS:          0 HIT:          0 MISS:          0
cpu1_L2C PREFETCH     ACCESS:          0 HIT:          0 MISS:          0
cpu1_L2C WRITE        ACCESS:          0 HIT:          0 MISS:          0
cpu1_L2C TRANSLATION  ACCESS:          0 HIT:          0 MISS:          0
cpu1_L2C PREFETCH REQUESTED:          0 ISSUED:          0 USEFUL:          0 USELESS:          0
cpu1_L2C AVERAGE MISS LATENCY: 1435 cycles
cpu1_STLB TOTAL        ACCESS:          0 HIT:          0 MISS:          0
cpu1_STLB LOAD         ACCESS:          0 HIT:          0 MISS:          0
cpu1_STLB RFO          ACCESS:          0 HIT:          0 MISS:          0
cpu1_STLB PREFETCH     ACCESS:          0 HIT:          0 MISS:          0
cpu1_STLB WRITE        ACCESS:          0 HIT:          0 MISS:          0
cpu1_STLB TRANSLATION  ACCESS:          0 HIT:          0 MISS:          0
cpu1_STLB PREFETCH REQUESTED:          0 ISSUED:          0 USEFUL:          0 USELESS:          0
cpu1_STLB AVERAGE MISS LATENCY: 1467 cycles
cpu1_STLB TOTAL        ACCESS:   49438986 HIT:   49359136 MISS:      79850
cpu1_STLB LOAD         ACCESS:   49438986 HIT:   49359136 MISS:      79850
cpu1_STLB RFO          ACCESS:          0 HIT:          0 MISS:          0
cpu1_STLB PREFETCH     ACCESS:          0 HIT:          0 MISS:          0
cpu1_STLB WRITE        ACCESS:          0 HIT:          0 MISS:          0
cpu1_STLB TRANSLATION  ACCESS:          0 HIT:          0 MISS:          0
cpu1_STLB PREFETCH REQUESTED:          0 ISSUED:          0 USEFUL:          0 USELESS:          0
cpu1_STLB AVERAGE MISS LATENCY: 1467 cycles
cpu1_STLB TOTAL        ACCESS:          0 HIT:          0 MISS:          0
cpu1_STLB LOAD         ACCESS:          0 HIT:          0 MISS:          0
cpu1_STLB RFO          ACCESS:          0 HIT:          0 MISS:          0
cpu1_STLB PREFETCH     ACCESS:          0 HIT:          0 MISS:          0
cpu1_STLB WRITE        ACCESS:          0 HIT:          0 MISS:          0
cpu1_STLB TRANSLATION  ACCESS:          0 HIT:          0 MISS:          0
cpu1_STLB PREFETCH REQUESTED:          0 ISSUED:          0 USEFUL:          0 USELESS:          0
cpu1_STLB AVERAGE MISS LATENCY: 1467 cycles
cpu1_STLB TOTAL        ACCESS:          0 HIT:          0 MISS:          0
cpu1_STLB LOAD         ACCESS:          0 HIT:          0 MISS:          0
cpu1_STLB RFO          ACCESS:          0 HIT:          0 MISS:          0
cpu1_STLB PREFETCH     ACCESS:          0 HIT:          0 MISS:          0
cpu1_STLB WRITE        ACCESS:          0 HIT:          0 MISS:          0
cpu1_STLB TRANSLATION  ACCESS:          0 HIT:          0 MISS:          0
cpu1_STLB PREFETCH REQUESTED:          0 ISSUED:          0 USEFUL:          0 USELESS:          0
cpu1_STLB AVERAGE MISS LATENCY: 1467 cycles
cpu2_DTLB TOTAL        ACCESS:          0 HIT:          0 MISS:          0
cpu2_DTLB LOAD         ACCESS:          0 HIT:          0 MISS:          0
cpu2_DTLB RFO          ACCESS:          0 HIT:          0 MISS:          0
cpu2_DTLB PREFETCH     ACCESS:          0 HIT:          0 MISS:          0
cpu2_DTLB WRITE        ACCESS:          0 HIT:          0 MISS:          0
cpu2_DTLB TRANSLATION  ACCESS:          0 HIT:          0 MISS:          0
cpu2_DTLB PREFETCH REQUESTED:          0 ISSUED:          0 USEFUL:          0 USELESS:          0
cpu2_DTLB AVERAGE MISS LATENCY: 36.16 cycles
cpu2_DTLB TOTAL        ACCESS:          0 HIT:          0 MISS:          0
cpu2_DTLB LOAD         ACCESS:          0 HIT:          0 MISS:          0
cpu2_DTLB RFO          ACCESS:          0 HIT:          0 MISS:          0
cpu2_DTLB PREFETCH     ACCESS:          0 HIT:          0 MISS:          0
cpu2_DTLB WRITE        ACCESS:          0 HIT:          0 MISS:          0
cpu2_DTLB TRANSLATION  ACCESS:          0 HIT:          0 MISS:          0
cpu2_DTLB PREFETCH REQUESTED:          0 ISSUED:          0 USEFUL:          0 USELESS:          0
cpu2_DTLB AVERAGE MISS LATENCY: 36.16 cycles
cpu2_DTLB TOTAL        ACCESS:  139401174 HIT:  139185196 MISS:     215978
cpu2_DTLB LOAD         ACCESS:  139401174 HIT:  139185196 MISS:     215978
cpu2_DTLB RFO          ACCESS:          0 HIT:          0 MISS:          0
cpu2_DTLB PREFETCH     ACCESS:          0 HIT:          0 MISS:          0
cpu2_DTLB WRITE        ACCESS:          0 HIT:          0 MISS:          0
cpu2_DTLB TRANSLATION  ACCESS:          0 HIT:          0 MISS:          0
cpu2_DTLB PREFETCH REQUESTED:          0 ISSUED:          0 USEFUL:          0 USELESS:          0
cpu2_DTLB AVERAGE MISS LATENCY: 36.16 cycles
cpu2_DTLB TOTAL        ACCESS:          0 HIT:          0 MISS:          0
cpu2_DTLB LOAD         ACCESS:          0 HIT:          0 MISS:          0
cpu2_DTLB RFO          ACCESS:          0 HIT:          0 MISS:          0
cpu2_DTLB PREFETCH     ACCESS:          0 HIT:          0 MISS:          0
cpu2_DTLB WRITE        ACCESS:          0 HIT:          0 MISS:          0
cpu2_DTLB TRANSLATION  ACCESS:          0 HIT:          0 MISS:          0
cpu2_DTLB PREFETCH REQUESTED:          0 ISSUED:          0 USEFUL:          0 USELESS:          0
cpu2_DTLB AVERAGE MISS LATENCY: 36.16 cycles
cpu2_ITLB TOTAL        ACCESS:          0 HIT:          0 MISS:          0
cpu2_ITLB LOAD         ACCESS:          0 HIT:          0 MISS:          0
cpu2_ITLB RFO          ACCESS:          0 HIT:          0 MISS:          0
cpu2_ITLB PREFETCH     ACCESS:          0 HIT:          0 MISS:          0
cpu2_ITLB WRITE        ACCESS:          0 HIT:          0 MISS:          0
cpu2_ITLB TRANSLATION  ACCESS:          0 HIT:          0 MISS:          0
cpu2_ITLB PREFETCH REQUESTED:          0 ISSUED:          0 USEFUL:          0 USELESS:          0
cpu2_ITLB AVERAGE MISS LATENCY: 987.9 cycles
cpu2_ITLB TOTAL        ACCESS:          0 HIT:          0 MISS:          0
cpu2_ITLB LOAD         ACCESS:          0 HIT:          0 MISS:          0
cpu2_ITLB RFO          ACCESS:          0 HIT:          0 MISS:          0
cpu2_ITLB PREFETCH     ACCESS:          0 HIT:          0 MISS:          0
cpu2_ITLB WRITE        ACCESS:          0 HIT:          0 MISS:          0
cpu2_ITLB TRANSLATION  ACCESS:          0 HIT:          0 MISS:          0
cpu2_ITLB PREFETCH REQUESTED:          0 ISSUED:          0 USEFUL:          0 USELESS:          0
cpu2_ITLB AVERAGE MISS LATENCY: 987.9 cycles
cpu2_ITLB TOTAL        ACCESS:    3885408 HIT:    3885400 MISS:          8
cpu2_ITLB LOAD         ACCESS:    3885408 HIT:    3885400 MISS:          8
cpu2_ITLB RFO          ACCESS:          0 HIT:          0 MISS:          0
cpu2_ITLB PREFETCH     ACCESS:          0 HIT:          0 MISS:          0
cpu2_ITLB WRITE        ACCESS:          0 HIT:          0 MISS:          0
cpu2_ITLB TRANSLATION  ACCESS:          0 HIT:          0 MISS:          0
cpu2_ITLB PREFETCH REQUESTED:          0 ISSUED:          0 USEFUL:          0 USELESS:          0
cpu2_ITLB AVERAGE MISS LATENCY: 987.9 cycles
cpu2_ITLB TOTAL        ACCESS:          0 HIT:          0 MISS:          0
cpu2_ITLB LOAD         ACCESS:          0 HIT:          0 MISS:          0
cpu2_ITLB RFO          ACCESS:          0 HIT:          0 MISS:          0
cpu2_ITLB PREFETCH     ACCESS:          0 HIT:          0 MISS:          0
cpu2_ITLB WRITE        ACCESS:          0 HIT:          0 MISS:          0
cpu2_ITLB TRANSLATION  ACCESS:          0 HIT:          0 MISS:          0
cpu2_ITLB PREFETCH REQUESTED:          0 ISSUED:          0 USEFUL:          0 USELESS:          0
cpu2_ITLB AVERAGE MISS LATENCY: 987.9 cycles
cpu2_L1D TOTAL        ACCESS:          0 HIT:          0 MISS:          0
cpu2_L1D LOAD         ACCESS:          0 HIT:          0 MISS:          0
cpu2_L1D RFO          ACCESS:          0 HIT:          0 MISS:          0
cpu2_L1D PREFETCH     ACCESS:          0 HIT:          0 MISS:          0
cpu2_L1D WRITE        ACCESS:          0 HIT:          0 MISS:          0
cpu2_L1D TRANSLATION  ACCESS:          0 HIT:          0 MISS:          0
cpu2_L1D PREFETCH REQUESTED:          0 ISSUED:          0 USEFUL:          0 USELESS:          0
cpu2_L1D AVERAGE MISS LATENCY: 406.1 cycles
cpu2_L1D TOTAL        ACCESS:          0 HIT:          0 MISS:          0
cpu2_L1D LOAD         ACCESS:          0 HIT:          0 MISS:          0
cpu2_L1D RFO          ACCESS:          0 HIT:          0 MISS:          0
cpu2_L1D PREFETCH     ACCESS:          0 HIT:          0 MISS:          0
cpu2_L1D WRITE        ACCESS:          0 HIT:          0 MISS:          0
cpu2_L1D TRANSLATION  ACCESS:          0 HIT:          0 MISS:          0
cpu2_L1D PREFETCH REQUESTED:          0 ISSUED:          0 USEFUL:          0 USELESS:          0
cpu2_L1D AVERAGE MISS LATENCY: 406.1 cycles
cpu2_L1D TOTAL        ACCESS:  183678693 HIT:  176463363 MISS:    7215330
cpu2_L1D LOAD         ACCESS:   98136366 HIT:   95679101 MISS:    2457265
cpu2_L1D RFO          ACCESS:          0 HIT:          0 MISS:          0
cpu2_L1D PREFETCH     ACCESS:          0 HIT:          0 MISS:          0
cpu2_L1D WRITE        ACCESS:   85501359 HIT:   80751665 MISS:    4749694
cpu2_L1D TRANSLATION  ACCESS:      40968 HIT:      32597 MISS:       8371
cpu2_L1D PREFETCH REQUESTED:          0 ISSUED:          0 USEFUL:          0 USELESS:          0
cpu2_L1D AVERAGE MISS LATENCY: 406.1 cycles
cpu2_L1D TOTAL        ACCESS:          0 HIT:          0 MISS:          0
cpu2_L1D LOAD         ACCESS:          0 HIT:          0 MISS:          0
cpu2_L1D RFO          ACCESS:          0 HIT:          0 MISS:          0
cpu2_L1D PREFETCH     ACCESS:          0 HIT:          0 MISS:          0
cpu2_L1D WRITE        ACCESS:          0 HIT:          0 MISS:          0
cpu2_L1D TRANSLATION  ACCESS:          0 HIT:          0 MISS:          0
cpu2_L1D PREFETCH REQUESTED:          0 ISSUED:          0 USEFUL:          0 USELESS:          0
cpu2_L1D AVERAGE MISS LATENCY: 406.1 cycles
cpu2_L1I TOTAL        ACCESS:          0 HIT:          0 MISS:          0
cpu2_L1I LOAD         ACCESS:          0 HIT:          0 MISS:          0
cpu2_L1I RFO          ACCESS:          0 HIT:          0 MISS:          0
cpu2_L1I PREFETCH     ACCESS:          0 HIT:          0 MISS:          0
cpu2_L1I WRITE        ACCESS:          0 HIT:          0 MISS:          0
cpu2_L1I TRANSLATION  ACCESS:          0 HIT:          0 MISS:          0
cpu2_L1I PREFETCH REQUESTED:          0 ISSUED:          0 USEFUL:          0 USELESS:          0
cpu2_L1I AVERAGE MISS LATENCY: 905.5 cycles
cpu2_L1I TOTAL        ACCESS:          0 HIT:          0 MISS:          0
cpu2_L1I LOAD         ACCESS:          0 HIT:          0 MISS:          0
cpu2_L1I RFO          ACCESS:          0 HIT:          0 MISS:          0
cpu2_L1I PREFETCH     ACCESS:          0 HIT:          0 MISS:          0
cpu2_L1I WRITE        ACCESS:          0 HIT:          0 MISS:          0
cpu2_L1I TRANSLATION  ACCESS:          0 HIT:          0 MISS:          0
cpu2_L1I PREFETCH REQUESTED:          0 ISSUED:          0 USEFUL:          0 USELESS:          0
cpu2_L1I AVERAGE MISS LATENCY: 905.5 cycles
cpu2_L1I TOTAL        ACCESS:    4632804 HIT:    4632724 MISS:         80
cpu2_L1I LOAD         ACCESS:    4632804 HIT:    4632724 MISS:         80
cpu2_L1I RFO          ACCESS:          0 HIT:          0 MISS:          0
cpu2_L1I PREFETCH     ACCESS:          0 HIT:          0 MISS:          0
cpu2_L1I WRITE        ACCESS:          0 HIT:          0 MISS:          0
cpu2_L1I TRANSLATION  ACCESS:          0 HIT:          0 MISS:          0
cpu2_L1I PREFETCH REQUESTED:          0 ISSUED:          0 USEFUL:          0 USELESS:          0
cpu2_L1I AVERAGE MISS LATENCY: 905.5 cycles
cpu2_L1I TOTAL        ACCESS:          0 HIT:          0 MISS:          0
cpu2_L1I LOAD         ACCESS:          0 HIT:          0 MISS:          0
cpu2_L1I RFO          ACCESS:          0 HIT:          0 MISS:          0
cpu2_L1I PREFETCH     ACCESS:          0 HIT:          0 MISS:          0
cpu2_L1I WRITE        ACCESS:          0 HIT:          0 MISS:          0
cpu2_L1I TRANSLATION  ACCESS:          0 HIT:          0 MISS:          0
cpu2_L1I PREFETCH REQUESTED:          0 ISSUED:          0 USEFUL:          0 USELESS:          0
cpu2_L1I AVERAGE MISS LATENCY: 905.5 cycles
cpu2_L2C TOTAL        ACCESS:          0 HIT:          0 MISS:          0
cpu2_L2C LOAD         ACCESS:          0 HIT:          0 MISS:          0
cpu2_L2C RFO          ACCESS:          0 HIT:          0 MISS:          0
cpu2_L2C PREFETCH     ACCESS:          0 HIT:          0 MISS:          0
cpu2_L2C WRITE        ACCESS:          0 HIT:          0 MISS:          0
cpu2_L2C TRANSLATION  ACCESS:          0 HIT:          0 MISS:          0
cpu2_L2C PREFETCH REQUESTED:          0 ISSUED:          0 USEFUL:          0 USELESS:          0
cpu2_L2C AVERAGE MISS LATENCY: 1595 cycles
cpu2_L2C TOTAL        ACCESS:          0 HIT:          0 MISS:          0
cpu2_L2C LOAD         ACCESS:          0 HIT:          0 MISS:          0
cpu2_L2C RFO          ACCESS:          0 HIT:          0 MISS:          0
cpu2_L2C PREFETCH     ACCESS:          0 HIT:          0 MISS:          0
cpu2_L2C WRITE        ACCESS:          0 HIT:          0 MISS:          0
cpu2_L2C TRANSLATION  ACCESS:          0 HIT:          0 MISS:          0
cpu2_L2C PREFETCH REQUESTED:          0 ISSUED:          0 USEFUL:          0 USELESS:          0
cpu2_L2C AVERAGE MISS LATENCY: 1595 cycles
cpu2_L2C TOTAL        ACCESS:    2856391 HIT:     814477 MISS:    2041914
cpu2_L2C LOAD         ACCESS:    1220775 HIT:        259 MISS:    1220516
cpu2_L2C RFO          ACCESS:     813572 HIT:       2024 MISS:     811548
cpu2_L2C PREFETCH     ACCESS:          0 HIT:          0 MISS:          0
cpu2_L2C WRITE        ACCESS:     813673 HIT:     812066 MISS:       1607
cpu2_L2C TRANSLATION  ACCESS:       8371 HIT:        128 MISS:       8243
cpu2_L2C PREFETCH REQUESTED:          0 ISSUED:          0 USEFUL:          0 USELESS:          0
cpu2_L2C AVERAGE MISS LATENCY: 1595 cycles
cpu2_L2C TOTAL        ACCESS:          0 HIT:          0 MISS:          0
cpu2_L2C LOAD         ACCESS:          0 HIT:          0 MISS:          0
cpu2_L2C RFO          ACCESS:          0 HIT:          0 MISS:          0
cpu2_L2C PREFETCH     ACCESS:          0 HIT:          0 MISS:          0
cpu2_L2C WRITE        ACCESS:          0 HIT:          0 MISS:          0
cpu2_L2C TRANSLATION  ACCESS:          0 HIT:          0 MISS:          0
cpu2_L2C PREFETCH REQUESTED:          0 ISSUED:          0 USEFUL:          0 USELESS:          0
cpu2_L2C AVERAGE MISS LATENCY: 1595 cycles
cpu2_STLB TOTAL        ACCESS:          0 HIT:          0 MISS:          0
cpu2_STLB LOAD         ACCESS:          0 HIT:          0 MISS:          0
cpu2_STLB RFO          ACCESS:          0 HIT:          0 MISS:          0
cpu2_STLB PREFETCH     ACCESS:          0 HIT:          0 MISS:          0
cpu2_STLB WRITE        ACCESS:          0 HIT:          0 MISS:          0
cpu2_STLB TRANSLATION  ACCESS:          0 HIT:          0 MISS:          0
cpu2_STLB PREFETCH REQUESTED:          0 ISSUED:          0 USEFUL:          0 USELESS:          0
cpu2_STLB AVERAGE MISS LATENCY: 363.8 cycles
cpu2_STLB TOTAL        ACCESS:          0 HIT:          0 MISS:          0
cpu2_STLB LOAD         ACCESS:          0 HIT:          0 MISS:          0
cpu2_STLB RFO          ACCESS:          0 HIT:          0 MISS:          0
cpu2_STLB PREFETCH     ACCESS:          0 HIT:          0 MISS:          0
cpu2_STLB WRITE        ACCESS:          0 HIT:          0 MISS:          0
cpu2_STLB TRANSLATION  ACCESS:          0 HIT:          0 MISS:          0
cpu2_STLB PREFETCH REQUESTED:          0 ISSUED:          0 USEFUL:          0 USELESS:          0
cpu2_STLB AVERAGE MISS LATENCY: 363.8 cycles
cpu2_STLB TOTAL        ACCESS:      44657 HIT:       3749 MISS:      40908
cpu2_STLB LOAD         ACCESS:      44657 HIT:       3749 MISS:      40908
cpu2_STLB RFO          ACCESS:          0 HIT:          0 MISS:          0
cpu2_STLB PREFETCH     ACCESS:          0 HIT:          0 MISS:          0
cpu2_STLB WRITE        ACCESS:          0 HIT:          0 MISS:          0
cpu2_STLB TRANSLATION  ACCESS:          0 HIT:          0 MISS:          0
cpu2_STLB PREFETCH REQUESTED:          0 ISSUED:          0 USEFUL:          0 USELESS:          0
cpu2_STLB AVERAGE MISS LATENCY: 363.8 cycles
cpu2_STLB TOTAL        ACCESS:          0 HIT:          0 MISS:          0
cpu2_STLB LOAD         ACCESS:          0 HIT:          0 MISS:          0
cpu2_STLB RFO          ACCESS:          0 HIT:          0 MISS:          0
cpu2_STLB PREFETCH     ACCESS:          0 HIT:          0 MISS:          0
cpu2_STLB WRITE        ACCESS:          0 HIT:          0 MISS:          0
cpu2_STLB TRANSLATION  ACCESS:          0 HIT:          0 MISS:          0
cpu2_STLB PREFETCH REQUESTED:          0 ISSUED:          0 USEFUL:          0 USELESS:          0
cpu2_STLB AVERAGE MISS LATENCY: 363.8 cycles
cpu3_DTLB TOTAL        ACCESS:          0 HIT:          0 MISS:          0
cpu3_DTLB LOAD         ACCESS:          0 HIT:          0 MISS:          0
cpu3_DTLB RFO          ACCESS:          0 HIT:          0 MISS:          0
cpu3_DTLB PREFETCH     ACCESS:          0 HIT:          0 MISS:          0
[...]
cpu2_L1I WRITE        ACCESS:          0 HIT:          0 MISS:          0
cpu2_L1I TRANSLATION  ACCESS:          0 HIT:          0 MISS:          0
cpu2_L1I PREFETCH REQUESTED:          0 ISSUED:          0 USEFUL:          0 USELESS:          0
cpu2_L1I AVERAGE MISS LATENCY: 905.5 cycles
cpu2_L1I TOTAL        ACCESS:          0 HIT:          0 MISS:          0
cpu2_L1I LOAD         ACCESS:          0 HIT:          0 MISS:          0
cpu2_L1I RFO          ACCESS:          0 HIT:          0 MISS:          0
cpu2_L1I PREFETCH     ACCESS:          0 HIT:          0 MISS:          0
cpu2_L1I WRITE        ACCESS:          0 HIT:          0 MISS:          0
cpu2_L1I TRANSLATION  ACCESS:          0 HIT:          0 MISS:          0
cpu2_L1I PREFETCH REQUESTED:          0 ISSUED:          0 USEFUL:          0 USELESS:          0
cpu2_L1I AVERAGE MISS LATENCY: 905.5 cycles
cpu2_L2C TOTAL        ACCESS:          0 HIT:          0 MISS:          0
cpu2_L2C LOAD         ACCESS:          0 HIT:          0 MISS:          0
cpu2_L2C RFO          ACCESS:          0 HIT:          0 MISS:          0
cpu2_L2C PREFETCH     ACCESS:          0 HIT:          0 MISS:          0
cpu2_L2C WRITE        ACCESS:          0 HIT:          0 MISS:          0
cpu2_L2C TRANSLATION  ACCESS:          0 HIT:          0 MISS:          0
cpu2_L2C PREFETCH REQUESTED:          0 ISSUED:          0 USEFUL:          0 USELESS:          0
cpu2_L2C AVERAGE MISS LATENCY: 1595 cycles
cpu2_L2C TOTAL        ACCESS:          0 HIT:          0 MISS:          0
cpu2_L2C LOAD         ACCESS:          0 HIT:          0 MISS:          0
cpu2_L2C RFO          ACCESS:          0 HIT:          0 MISS:          0
cpu2_L2C PREFETCH     ACCESS:          0 HIT:          0 MISS:          0
cpu2_L2C WRITE        ACCESS:          0 HIT:          0 MISS:          0
cpu2_L2C TRANSLATION  ACCESS:          0 HIT:          0 MISS:          0
cpu2_L2C PREFETCH REQUESTED:          0 ISSUED:          0 USEFUL:          0 USELESS:          0
cpu2_L2C AVERAGE MISS LATENCY: 1595 cycles
cpu2_L2C TOTAL        ACCESS:      30303 HIT:       9271 MISS:      21032
cpu2_L2C LOAD         ACCESS:      12739 HIT:        119 MISS:      12620
cpu2_L2C RFO          ACCESS:       8755 HIT:        392 MISS:       8363
cpu2_L2C PREFETCH     ACCESS:          0 HIT:          0 MISS:          0
cpu2_L2C WRITE        ACCESS:       8760 HIT:       8760 MISS:          0
cpu2_L2C TRANSLATION  ACCESS:         49 HIT:          0 MISS:         49
cpu2_L2C PREFETCH REQUESTED:          0 ISSUED:          0 USEFUL:          0 USELESS:          0
cpu2_L2C AVERAGE MISS LATENCY: 1595 cycles
cpu2_L2C TOTAL        ACCESS:          0 HIT:          0 MISS:          0
cpu2_L2C LOAD         ACCESS:          0 HIT:          0 MISS:          0
cpu2_L2C RFO          ACCESS:          0 HIT:          0 MISS:          0
cpu2_L2C PREFETCH     ACCESS:          0 HIT:          0 MISS:          0
cpu2_L2C WRITE        ACCESS:          0 HIT:          0 MISS:          0
cpu2_L2C TRANSLATION  ACCESS:          0 HIT:          0 MISS:          0
cpu2_L2C PREFETCH REQUESTED:          0 ISSUED:          0 USEFUL:          0 USELESS:          0
cpu2_L2C AVERAGE MISS LATENCY: 1595 cycles
cpu2_STLB TOTAL        ACCESS:          0 HIT:          0 MISS:          0
cpu2_STLB LOAD         ACCESS:          0 HIT:          0 MISS:          0
cpu2_STLB RFO          ACCESS:          0 HIT:          0 MISS:          0
cpu2_STLB PREFETCH     ACCESS:          0 HIT:          0 MISS:          0
cpu2_STLB WRITE        ACCESS:          0 HIT:          0 MISS:          0
cpu2_STLB TRANSLATION  ACCESS:          0 HIT:          0 MISS:          0
cpu2_STLB PREFETCH REQUESTED:          0 ISSUED:          0 USEFUL:          0 USELESS:          0
cpu2_STLB AVERAGE MISS LATENCY: 363.8 cycles
cpu2_STLB TOTAL        ACCESS:          0 HIT:          0 MISS:          0
cpu2_STLB LOAD         ACCESS:          0 HIT:          0 MISS:          0
cpu2_STLB RFO          ACCESS:          0 HIT:          0 MISS:          0
cpu2_STLB PREFETCH     ACCESS:          0 HIT:          0 MISS:          0
cpu2_STLB WRITE        ACCESS:          0 HIT:          0 MISS:          0
cpu2_STLB TRANSLATION  ACCESS:          0 HIT:          0 MISS:          0
cpu2_STLB PREFETCH REQUESTED:          0 ISSUED:          0 USEFUL:          0 USELESS:          0
cpu2_STLB AVERAGE MISS LATENCY: 363.8 cycles
cpu2_STLB TOTAL        ACCESS:        483 HIT:         48 MISS:        435
cpu2_STLB LOAD         ACCESS:        483 HIT:         48 MISS:        435
cpu2_STLB RFO          ACCESS:          0 HIT:          0 MISS:          0
cpu2_STLB PREFETCH     ACCESS:          0 HIT:          0 MISS:          0
cpu2_STLB WRITE        ACCESS:          0 HIT:          0 MISS:          0
cpu2_STLB TRANSLATION  ACCESS:          0 HIT:          0 MISS:          0
cpu2_STLB PREFETCH REQUESTED:          0 ISSUED:          0 USEFUL:          0 USELESS:          0
cpu2_STLB AVERAGE MISS LATENCY: 363.8 cycles
cpu2_STLB TOTAL        ACCESS:          0 HIT:          0 MISS:          0
cpu2_STLB LOAD         ACCESS:          0 HIT:          0 MISS:          0
cpu2_STLB RFO          ACCESS:          0 HIT:          0 MISS:          0
cpu2_STLB PREFETCH     ACCESS:          0 HIT:          0 MISS:          0
cpu2_STLB WRITE        ACCESS:          0 HIT:          0 MISS:          0
cpu2_STLB TRANSLATION  ACCESS:          0 HIT:          0 MISS:          0
cpu2_STLB PREFETCH REQUESTED:          0 ISSUED:          0 USEFUL:          0 USELESS:          0
cpu2_STLB AVERAGE MISS LATENCY: 363.8 cycles
cpu3_DTLB TOTAL        ACCESS:          0 HIT:          0 MISS:          0
cpu3_DTLB LOAD         ACCESS:          0 HIT:          0 MISS:          0
cpu3_DTLB RFO          ACCESS:          0 HIT:          0 MISS:          0
cpu3_DTLB PREFETCH     ACCESS:          0 HIT:          0 MISS:          0
cpu3_DTLB WRITE        ACCESS:          0 HIT:          0 MISS:          0
cpu3_DTLB TRANSLATION  ACCESS:          0 HIT:          0 MISS:          0
cpu3_DTLB PREFETCH REQUESTED:          0 ISSUED:          0 USEFUL:          0 USELESS:          0
cpu3_DTLB AVERAGE MISS LATENCY: 10.75 cycles
cpu3_DTLB TOTAL        ACCESS:          0 HIT:          0 MISS:          0
cpu3_DTLB LOAD         ACCESS:          0 HIT:          0 MISS:          0
cpu3_DTLB RFO          ACCESS:          0 HIT:          0 MISS:          0
cpu3_DTLB PREFETCH     ACCESS:          0 HIT:          0 MISS:          0
cpu3_DTLB WRITE        ACCESS:          0 HIT:          0 MISS:          0
cpu3_DTLB TRANSLATION  ACCESS:          0 HIT:          0 MISS:          0
cpu3_DTLB PREFETCH REQUESTED:          0 ISSUED:          0 USEFUL:          0 USELESS:          0
cpu3_DTLB AVERAGE MISS LATENCY: 10.75 cycles
cpu3_DTLB TOTAL        ACCESS:          0 HIT:          0 MISS:          0
cpu3_DTLB LOAD         ACCESS:          0 HIT:          0 MISS:          0
cpu3_DTLB RFO          ACCESS:          0 HIT:          0 MISS:          0
cpu3_DTLB PREFETCH     ACCESS:          0 HIT:          0 MISS:          0
cpu3_DTLB WRITE        ACCESS:          0 HIT:          0 MISS:          0
cpu3_DTLB TRANSLATION  ACCESS:          0 HIT:          0 MISS:          0
cpu3_DTLB PREFETCH REQUESTED:          0 ISSUED:          0 USEFUL:          0 USELESS:          0
cpu3_DTLB AVERAGE MISS LATENCY: 10.75 cycles
cpu3_DTLB TOTAL        ACCESS:   41034970 HIT:   38466435 MISS:    2568535
cpu3_DTLB LOAD         ACCESS:   41034970 HIT:   38466435 MISS:    2568535
cpu3_DTLB RFO          ACCESS:          0 HIT:          0 MISS:          0
cpu3_DTLB PREFETCH     ACCESS:          0 HIT:          0 MISS:          0
cpu3_DTLB WRITE        ACCESS:          0 HIT:          0 MISS:          0
cpu3_DTLB TRANSLATION  ACCESS:          0 HIT:          0 MISS:          0
cpu3_DTLB PREFETCH REQUESTED:          0 ISSUED:          0 USEFUL:          0 USELESS:          0
cpu3_DTLB AVERAGE MISS LATENCY: 10.75 cycles
cpu3_ITLB TOTAL        ACCESS:          0 HIT:          0 MISS:          0
cpu3_ITLB LOAD         ACCESS:          0 HIT:          0 MISS:          0
cpu3_ITLB RFO          ACCESS:          0 HIT:          0 MISS:          0
cpu3_ITLB PREFETCH     ACCESS:          0 HIT:          0 MISS:          0
cpu3_ITLB WRITE        ACCESS:          0 HIT:          0 MISS:          0
cpu3_ITLB TRANSLATION  ACCESS:          0 HIT:          0 MISS:          0
cpu3_ITLB PREFETCH REQUESTED:          0 ISSUED:          0 USEFUL:          0 USELESS:          0
cpu3_ITLB AVERAGE MISS LATENCY: -nan cycles
cpu3_ITLB TOTAL        ACCESS:          0 HIT:          0 MISS:          0
cpu3_ITLB LOAD         ACCESS:          0 HIT:          0 MISS:          0
cpu3_ITLB RFO          ACCESS:          0 HIT:          0 MISS:          0
cpu3_ITLB PREFETCH     ACCESS:          0 HIT:          0 MISS:          0
cpu3_ITLB WRITE        ACCESS:          0 HIT:          0 MISS:          0
cpu3_ITLB TRANSLATION  ACCESS:          0 HIT:          0 MISS:          0
cpu3_ITLB PREFETCH REQUESTED:          0 ISSUED:          0 USEFUL:          0 USELESS:          0
cpu3_ITLB AVERAGE MISS LATENCY: -nan cycles
cpu3_ITLB TOTAL        ACCESS:          0 HIT:          0 MISS:          0
cpu3_ITLB LOAD         ACCESS:          0 HIT:          0 MISS:          0
cpu3_ITLB RFO          ACCESS:          0 HIT:          0 MISS:          0
cpu3_ITLB PREFETCH     ACCESS:          0 HIT:          0 MISS:          0
cpu3_ITLB WRITE        ACCESS:          0 HIT:          0 MISS:          0
cpu3_ITLB TRANSLATION  ACCESS:          0 HIT:          0 MISS:          0
cpu3_ITLB PREFETCH REQUESTED:          0 ISSUED:          0 USEFUL:          0 USELESS:          0
cpu3_ITLB AVERAGE MISS LATENCY: -nan cycles
cpu3_ITLB TOTAL        ACCESS:      47570 HIT:      47570 MISS:          0
cpu3_ITLB LOAD         ACCESS:      47570 HIT:      47570 MISS:          0
cpu3_ITLB RFO          ACCESS:          0 HIT:          0 MISS:          0
cpu3_ITLB PREFETCH     ACCESS:          0 HIT:          0 MISS:          0
cpu3_ITLB WRITE        ACCESS:          0 HIT:          0 MISS:          0
cpu3_ITLB TRANSLATION  ACCESS:          0 HIT:          0 MISS:          0
cpu3_ITLB PREFETCH REQUESTED:          0 ISSUED:          0 USEFUL:          0 USELESS:          0
cpu3_ITLB AVERAGE MISS LATENCY: -nan cycles
cpu3_L1D TOTAL        ACCESS:          0 HIT:          0 MISS:          0
cpu3_L1D LOAD         ACCESS:          0 HIT:          0 MISS:          0
cpu3_L1D RFO          ACCESS:          0 HIT:          0 MISS:          0
cpu3_L1D PREFETCH     ACCESS:          0 HIT:          0 MISS:          0
cpu3_L1D WRITE        ACCESS:          0 HIT:          0 MISS:          0
cpu3_L1D TRANSLATION  ACCESS:          0 HIT:          0 MISS:          0
cpu3_L1D PREFETCH REQUESTED:          0 ISSUED:          0 USEFUL:          0 USELESS:          0
cpu3_L1D AVERAGE MISS LATENCY: 224.5 cycles
cpu3_L1D TOTAL        ACCESS:          0 HIT:          0 MISS:          0
cpu3_L1D LOAD         ACCESS:          0 HIT:          0 MISS:          0
cpu3_L1D RFO          ACCESS:          0 HIT:          0 MISS:          0
cpu3_L1D PREFETCH     ACCESS:          0 HIT:          0 MISS:          0
cpu3_L1D WRITE        ACCESS:          0 HIT:          0 MISS:          0
cpu3_L1D TRANSLATION  ACCESS:          0 HIT:          0 MISS:          0
cpu3_L1D PREFETCH REQUESTED:          0 ISSUED:          0 USEFUL:          0 USELESS:          0
cpu3_L1D AVERAGE MISS LATENCY: 224.5 cycles
cpu3_L1D TOTAL        ACCESS:          0 HIT:          0 MISS:          0
cpu3_L1D LOAD         ACCESS:          0 HIT:          0 MISS:          0
cpu3_L1D RFO          ACCESS:          0 HIT:          0 MISS:          0
cpu3_L1D PREFETCH     ACCESS:          0 HIT:          0 MISS:          0
cpu3_L1D WRITE        ACCESS:          0 HIT:          0 MISS:          0
cpu3_L1D TRANSLATION  ACCESS:          0 HIT:          0 MISS:          0
cpu3_L1D PREFETCH REQUESTED:          0 ISSUED:          0 USEFUL:          0 USELESS:          0
cpu3_L1D AVERAGE MISS LATENCY: 224.5 cycles
cpu3_L1D TOTAL        ACCESS:   52554677 HIT:   45452732 MISS:    7101945
cpu3_L1D LOAD         ACCESS:   34830724 HIT:   29315344 MISS:    5515380
cpu3_L1D RFO          ACCESS:          0 HIT:          0 MISS:          0
cpu3_L1D PREFETCH     ACCESS:          0 HIT:          0 MISS:          0
cpu3_L1D WRITE        ACCESS:   17692541 HIT:   16122924 MISS:    1569617
cpu3_L1D TRANSLATION  ACCESS:      31412 HIT:      14464 MISS:      16948
cpu3_L1D PREFETCH REQUESTED:          0 ISSUED:          0 USEFUL:          0 USELESS:          0
cpu3_L1D AVERAGE MISS LATENCY: 224.5 cycles
cpu3_L1I TOTAL        ACCESS:          0 HIT:          0 MISS:          0
cpu3_L1I LOAD         ACCESS:          0 HIT:          0 MISS:          0
cpu3_L1I RFO          ACCESS:          0 HIT:          0 MISS:          0
cpu3_L1I PREFETCH     ACCESS:          0 HIT:          0 MISS:          0
cpu3_L1I WRITE        ACCESS:          0 HIT:          0 MISS:          0
cpu3_L1I TRANSLATION  ACCESS:          0 HIT:          0 MISS:          0
cpu3_L1I PREFETCH REQUESTED:          0 ISSUED:          0 USEFUL:          0 USELESS:          0
cpu3_L1I AVERAGE MISS LATENCY: 346 cycles
cpu3_L1I TOTAL        ACCESS:          0 HIT:          0 MISS:          0
cpu3_L1I LOAD         ACCESS:          0 HIT:          0 MISS:          0
cpu3_L1I RFO          ACCESS:          0 HIT:          0 MISS:          0
cpu3_L1I PREFETCH     ACCESS:          0 HIT:          0 MISS:          0
cpu3_L1I WRITE        ACCESS:          0 HIT:          0 MISS:          0
cpu3_L1I TRANSLATION  ACCESS:          0 HIT:          0 MISS:          0
cpu3_L1I PREFETCH REQUESTED:          0 ISSUED:          0 USEFUL:          0 USELESS:          0
cpu3_L1I AVERAGE MISS LATENCY: 346 cycles
cpu3_L1I TOTAL        ACCESS:          0 HIT:          0 MISS:          0
cpu3_L1I LOAD         ACCESS:          0 HIT:          0 MISS:          0
cpu3_L1I RFO          ACCESS:          0 HIT:          0 MISS:          0
cpu3_L1I PREFETCH     ACCESS:          0 HIT:          0 MISS:          0
cpu3_L1I WRITE        ACCESS:          0 HIT:          0 MISS:          0
cpu3_L1I TRANSLATION  ACCESS:          0 HIT:          0 MISS:          0
cpu3_L1I PREFETCH REQUESTED:          0 ISSUED:          0 USEFUL:          0 USELESS:          0
cpu3_L1I AVERAGE MISS LATENCY: 346 cycles
cpu3_L1I TOTAL        ACCESS:      53890 HIT:      53888 MISS:          2
cpu3_L1I LOAD         ACCESS:      53890 HIT:      53888 MISS:          2
cpu3_L1I RFO          ACCESS:          0 HIT:          0 MISS:          0
cpu3_L1I PREFETCH     ACCESS:          0 HIT:          0 MISS:          0
cpu3_L1I WRITE        ACCESS:          0 HIT:          0 MISS:          0
cpu3_L1I TRANSLATION  ACCESS:          0 HIT:          0 MISS:          0
cpu3_L1I PREFETCH REQUESTED:          0 ISSUED:          0 USEFUL:          0 USELESS:          0
cpu3_L1I AVERAGE MISS LATENCY: 346 cycles
cpu3_L2C TOTAL        ACCESS:          0 HIT:          0 MISS:          0
cpu3_L2C LOAD         ACCESS:          0 HIT:          0 MISS:          0
cpu3_L2C RFO          ACCESS:          0 HIT:          0 MISS:          0
cpu3_L2C PREFETCH     ACCESS:          0 HIT:          0 MISS:          0
cpu3_L2C WRITE        ACCESS:          0 HIT:          0 MISS:          0
cpu3_L2C TRANSLATION  ACCESS:          0 HIT:          0 MISS:          0
cpu3_L2C PREFETCH REQUESTED:          0 ISSUED:          0 USEFUL:          0 USELESS:          0
cpu3_L2C AVERAGE MISS LATENCY: 476.4 cycles
cpu3_L2C TOTAL        ACCESS:          0 HIT:          0 MISS:          0
cpu3_L2C LOAD         ACCESS:          0 HIT:          0 MISS:          0
cpu3_L2C RFO          ACCESS:          0 HIT:          0 MISS:          0
cpu3_L2C PREFETCH     ACCESS:          0 HIT:          0 MISS:          0
cpu3_L2C WRITE        ACCESS:          0 HIT:          0 MISS:          0
cpu3_L2C TRANSLATION  ACCESS:          0 HIT:          0 MISS:          0
cpu3_L2C PREFETCH REQUESTED:          0 ISSUED:          0 USEFUL:          0 USELESS:          0
cpu3_L2C AVERAGE MISS LATENCY: 476.4 cycles
cpu3_L2C TOTAL        ACCESS:          0 HIT:          0 MISS:          0
cpu3_L2C LOAD         ACCESS:          0 HIT:          0 MISS:          0
cpu3_L2C RFO          ACCESS:          0 HIT:          0 MISS:          0
cpu3_L2C PREFETCH     ACCESS:          0 HIT:          0 MISS:          0
cpu3_L2C WRITE        ACCESS:          0 HIT:          0 MISS:          0
cpu3_L2C TRANSLATION  ACCESS:          0 HIT:          0 MISS:          0
cpu3_L2C PREFETCH REQUESTED:          0 ISSUED:          0 USEFUL:          0 USELESS:          0
cpu3_L2C AVERAGE MISS LATENCY: 476.4 cycles
cpu3_L2C TOTAL        ACCESS:    5993895 HIT:    2746527 MISS:    3247368
cpu3_L2C LOAD         ACCESS:    4619111 HIT:    1617876 MISS:    3001235
cpu3_L2C RFO          ACCESS:     572938 HIT:     341247 MISS:     231691
cpu3_L2C PREFETCH     ACCESS:          0 HIT:          0 MISS:          0
cpu3_L2C WRITE        ACCESS:     784901 HIT:     784484 MISS:        417
cpu3_L2C TRANSLATION  ACCESS:      16945 HIT:       2920 MISS:      14025
cpu3_L2C PREFETCH REQUESTED:          0 ISSUED:          0 USEFUL:          0 USELESS:          0
cpu3_L2C AVERAGE MISS LATENCY: 476.4 cycles
cpu3_STLB TOTAL        ACCESS:          0 HIT:          0 MISS:          0
cpu3_STLB LOAD         ACCESS:          0 HIT:          0 MISS:          0
cpu3_STLB RFO          ACCESS:          0 HIT:          0 MISS:          0
cpu3_STLB PREFETCH     ACCESS:          0 HIT:          0 MISS:          0
cpu3_STLB WRITE        ACCESS:          0 HIT:          0 MISS:          0
cpu3_STLB TRANSLATION  ACCESS:          0 HIT:          0 MISS:          0
cpu3_STLB PREFETCH REQUESTED:          0 ISSUED:          0 USEFUL:          0 USELESS:          0
cpu3_STLB AVERAGE MISS LATENCY: 358.2 cycles
cpu3_STLB TOTAL        ACCESS:          0 HIT:          0 MISS:          0
cpu3_STLB LOAD         ACCESS:          0 HIT:          0 MISS:          0
cpu3_STLB RFO          ACCESS:          0 HIT:          0 MISS:          0
cpu3_STLB PREFETCH     ACCESS:          0 HIT:          0 MISS:          0
cpu3_STLB WRITE        ACCESS:          0 HIT:          0 MISS:          0
cpu3_STLB TRANSLATION  ACCESS:          0 HIT:          0 MISS:          0
cpu3_STLB PREFETCH REQUESTED:          0 ISSUED:          0 USEFUL:          0 USELESS:          0
cpu3_STLB AVERAGE MISS LATENCY: 358.2 cycles
cpu3_STLB TOTAL        ACCESS:          0 HIT:          0 MISS:          0
cpu3_STLB LOAD         ACCESS:          0 HIT:          0 MISS:          0
cpu3_STLB RFO          ACCESS:          0 HIT:          0 MISS:          0
cpu3_STLB PREFETCH     ACCESS:          0 HIT:          0 MISS:          0
cpu3_STLB WRITE        ACCESS:          0 HIT:          0 MISS:          0
cpu3_STLB TRANSLATION  ACCESS:          0 HIT:          0 MISS:          0
cpu3_STLB PREFETCH REQUESTED:          0 ISSUED:          0 USEFUL:          0 USELESS:          0
cpu3_STLB AVERAGE MISS LATENCY: 358.2 cycles
cpu3_STLB TOTAL        ACCESS:    2225657 HIT:    2194482 MISS:      31175
cpu3_STLB LOAD         ACCESS:    2225657 HIT:    2194482 MISS:      31175
cpu3_STLB RFO          ACCESS:          0 HIT:          0 MISS:          0
cpu3_STLB PREFETCH     ACCESS:          0 HIT:          0 MISS:          0
cpu3_STLB WRITE        ACCESS:          0 HIT:          0 MISS:          0
cpu3_STLB TRANSLATION  ACCESS:          0 HIT:          0 MISS:          0
cpu3_STLB PREFETCH REQUESTED:          0 ISSUED:          0 USEFUL:          0 USELESS:          0
cpu3_STLB AVERAGE MISS LATENCY: 358.2 cycles

DRAM Statistics

Channel 0 RQ ROW_BUFFER_HIT:    1108373
  ROW_BUFFER_MISS:    9996223
 AVG DBUS CONGESTED CYCLE: 3.986
WQ ROW_BUFFER_HIT: Channel 0 
  ROW_BUFFER_MISS:      33925
  FULL:    2281973
