WARNING: physical memory size is smaller than virtual memory size.
WARNING: option --warmup_instructions is deprecated. Use --warmup-instructions instead.
WARNING: option --simulation_instructions is deprecated. Use --simulation-instructions instead.

*** ChampSim Multicore Out-of-Order Simulator ***
Warmup Instructions: 50000000
Simulation Instructions: 150000000
Number of CPUs: 4
Page size: 4096

Off-chip DRAM Size: 4 GiB Channels: 1 Width: 64-bit Data Race: 3200 MT/s
Heartbeat CPU 1 instructions: 10000002 cycles: 2505992 heartbeat IPC: 3.99 cumulative IPC: 3.99 (Simulation time: 00 hr 02 min 08 sec)
Heartbeat CPU 3 instructions: 10000003 cycles: 2711717 heartbeat IPC: 3.688 cumulative IPC: 3.688 (Simulation time: 00 hr 02 min 18 sec)
Heartbeat CPU 2 instructions: 10000004 cycles: 3062994 heartbeat IPC: 3.265 cumulative IPC: 3.265 (Simulation time: 00 hr 02 min 36 sec)
Heartbeat CPU 0 instructions: 10000001 cycles: 4173655 heartbeat IPC: 2.396 cumulative IPC: 2.396 (Simulation time: 00 hr 03 min 31 sec)
Heartbeat CPU 1 instructions: 20000001 cycles: 5014203 heartbeat IPC: 3.987 cumulative IPC: 3.989 (Simulation time: 00 hr 04 min 18 sec)
Heartbeat CPU 3 instructions: 20000002 cycles: 5231357 heartbeat IPC: 3.969 cumulative IPC: 3.823 (Simulation time: 00 hr 04 min 28 sec)
Heartbeat CPU 2 instructions: 20000002 cycles: 5746691 heartbeat IPC: 3.726 cumulative IPC: 3.48 (Simulation time: 00 hr 04 min 54 sec)
Heartbeat CPU 1 instructions: 30000001 cycles: 7517912 heartbeat IPC: 3.994 cumulative IPC: 3.99 (Simulation time: 00 hr 06 min 26 sec)
Heartbeat CPU 3 instructions: 30000000 cycles: 7750724 heartbeat IPC: 3.969 cumulative IPC: 3.871 (Simulation time: 00 hr 06 min 40 sec)
Heartbeat CPU 0 instructions: 20000004 cycles: 8345587 heartbeat IPC: 2.397 cumulative IPC: 2.396 (Simulation time: 00 hr 07 min 10 sec)
Heartbeat CPU 2 instructions: 30000000 cycles: 8965937 heartbeat IPC: 3.106 cumulative IPC: 3.346 (Simulation time: 00 hr 07 min 41 sec)
Heartbeat CPU 1 instructions: 40000000 cycles: 10026788 heartbeat IPC: 3.986 cumulative IPC: 3.989 (Simulation time: 00 hr 08 min 37 sec)
Heartbeat CPU 3 instructions: 40000000 cycles: 10280789 heartbeat IPC: 3.952 cumulative IPC: 3.891 (Simulation time: 00 hr 08 min 50 sec)
Heartbeat CPU 2 instructions: 40000003 cycles: 12219991 heartbeat IPC: 3.073 cumulative IPC: 3.273 (Simulation time: 00 hr 10 min 31 sec)
Heartbeat CPU 0 instructions: 30000001 cycles: 12518473 heartbeat IPC: 2.396 cumulative IPC: 2.396 (Simulation time: 00 hr 10 min 46 sec)
Heartbeat CPU 1 instructions: 50000001 cycles: 12546992 heartbeat IPC: 3.968 cumulative IPC: 3.985 (Simulation time: 00 hr 10 min 48 sec)
Warmup finished CPU 1 instructions: 50000001 cycles: 12546993 cumulative IPC: 3.985 (Simulation time: 00 hr 10 min 48 sec)
Heartbeat CPU 3 instructions: 50000003 cycles: 12883612 heartbeat IPC: 3.842 cumulative IPC: 3.881 (Simulation time: 00 hr 11 min 05 sec)
Warmup finished CPU 3 instructions: 50000003 cycles: 12883613 cumulative IPC: 3.881 (Simulation time: 00 hr 11 min 05 sec)
Heartbeat CPU 1 instructions: 60000001 cycles: 15053776 heartbeat IPC: 3.989 cumulative IPC: 3.986 (Simulation time: 00 hr 12 min 56 sec)
Heartbeat CPU 2 instructions: 50000002 cycles: 15374551 heartbeat IPC: 3.17 cumulative IPC: 3.252 (Simulation time: 00 hr 13 min 13 sec)
Warmup finished CPU 2 instructions: 50000002 cycles: 15374552 cumulative IPC: 3.252 (Simulation time: 00 hr 13 min 13 sec)
Heartbeat CPU 3 instructions: 60000002 cycles: 15502091 heartbeat IPC: 3.819 cumulative IPC: 3.87 (Simulation time: 00 hr 13 min 19 sec)
Heartbeat CPU 0 instructions: 40000000 cycles: 16704397 heartbeat IPC: 2.389 cumulative IPC: 2.395 (Simulation time: 00 hr 14 min 20 sec)
Heartbeat CPU 1 instructions: 70000002 cycles: 17559741 heartbeat IPC: 3.99 cumulative IPC: 3.986 (Simulation time: 00 hr 15 min 06 sec)
Heartbeat CPU 3 instructions: 70000003 cycles: 18080091 heartbeat IPC: 3.879 cumulative IPC: 3.872 (Simulation time: 00 hr 15 min 37 sec)
Heartbeat CPU 2 instructions: 60000002 cycles: 18083240 heartbeat IPC: 3.692 cumulative IPC: 3.318 (Simulation time: 00 hr 15 min 37 sec)
Heartbeat CPU 1 instructions: 80000003 cycles: 20066436 heartbeat IPC: 3.989 cumulative IPC: 3.987 (Simulation time: 00 hr 17 min 22 sec)
Heartbeat CPU 3 instructions: 80000004 cycles: 20640313 heartbeat IPC: 3.906 cumulative IPC: 3.876 (Simulation time: 00 hr 17 min 50 sec)
Heartbeat CPU 2 instructions: 70000001 cycles: 20810726 heartbeat IPC: 3.666 cumulative IPC: 3.364 (Simulation time: 00 hr 17 min 58 sec)
Heartbeat CPU 0 instructions: 50000003 cycles: 20870760 heartbeat IPC: 2.4 cumulative IPC: 2.396 (Simulation time: 00 hr 18 min 02 sec)
Warmup finished CPU 0 instructions: 50000003 cycles: 20870761 cumulative IPC: 2.396 (Simulation time: 00 hr 18 min 02 sec)
Warmup complete CPU 0 instructions: 50000003 cycles: 20870761 cumulative IPC: 2.396 (Simulation time: 00 hr 18 min 02 sec)
Warmup complete CPU 1 instructions: 83217299 cycles: 20870761 cumulative IPC: 3.987 (Simulation time: 00 hr 18 min 02 sec)
Warmup complete CPU 2 instructions: 70204385 cycles: 20870761 cumulative IPC: 3.364 (Simulation time: 00 hr 18 min 02 sec)
Warmup complete CPU 3 instructions: 80839618 cycles: 20870761 cumulative IPC: 3.873 (Simulation time: 00 hr 18 min 02 sec)
Heartbeat CPU 1 instructions: 90000001 cycles: 23362934 heartbeat IPC: 3.034 cumulative IPC: 2.722 (Simulation time: 00 hr 19 min 36 sec)
Heartbeat CPU 3 instructions: 90000003 cycles: 24501510 heartbeat IPC: 2.59 cumulative IPC: 2.523 (Simulation time: 00 hr 20 min 16 sec)
Heartbeat CPU 1 instructions: 100000001 cycles: 26886379 heartbeat IPC: 2.838 cumulative IPC: 2.79 (Simulation time: 00 hr 21 min 37 sec)
Heartbeat CPU 2 instructions: 80000001 cycles: 28498931 heartbeat IPC: 1.301 cumulative IPC: 1.284 (Simulation time: 00 hr 22 min 34 sec)
Heartbeat CPU 1 instructions: 110000001 cycles: 31026076 heartbeat IPC: 2.416 cumulative IPC: 2.637 (Simulation time: 00 hr 23 min 52 sec)
Heartbeat CPU 3 instructions: 100000000 cycles: 33309325 heartbeat IPC: 1.135 cumulative IPC: 1.54 (Simulation time: 00 hr 24 min 59 sec)
Heartbeat CPU 1 instructions: 120000002 cycles: 34973696 heartbeat IPC: 2.533 cumulative IPC: 2.608 (Simulation time: 00 hr 25 min 45 sec)
Heartbeat CPU 2 instructions: 90000001 cycles: 38325224 heartbeat IPC: 1.018 cumulative IPC: 1.134 (Simulation time: 00 hr 27 min 10 sec)
Heartbeat CPU 1 instructions: 130000003 cycles: 38730803 heartbeat IPC: 2.662 cumulative IPC: 2.619 (Simulation time: 00 hr 27 min 21 sec)
Heartbeat CPU 1 instructions: 140000003 cycles: 45118008 heartbeat IPC: 1.566 cumulative IPC: 2.342 (Simulation time: 00 hr 29 min 41 sec)
Heartbeat CPU 1 instructions: 150000002 cycles: 51333306 heartbeat IPC: 1.609 cumulative IPC: 2.192 (Simulation time: 00 hr 32 min 12 sec)
Heartbeat CPU 1 instructions: 160000001 cycles: 55827287 heartbeat IPC: 2.225 cumulative IPC: 2.197 (Simulation time: 00 hr 34 min 07 sec)
Heartbeat CPU 1 instructions: 170000003 cycles: 61400705 heartbeat IPC: 1.794 cumulative IPC: 2.141 (Simulation time: 00 hr 36 min 06 sec)
Heartbeat CPU 2 instructions: 100000002 cycles: 65250840 heartbeat IPC: 0.3714 cumulative IPC: 0.6714 (Simulation time: 00 hr 37 min 40 sec)
Heartbeat CPU 1 instructions: 180000003 cycles: 68848701 heartbeat IPC: 1.343 cumulative IPC: 2.017 (Simulation time: 00 hr 39 min 07 sec)
Heartbeat CPU 3 instructions: 110000001 cycles: 72521393 heartbeat IPC: 0.255 cumulative IPC: 0.5646 (Simulation time: 00 hr 41 min 05 sec)
Heartbeat CPU 1 instructions: 190000001 cycles: 72854115 heartbeat IPC: 2.497 cumulative IPC: 2.054 (Simulation time: 00 hr 41 min 17 sec)
Heartbeat CPU 2 instructions: 110000004 cycles: 75214610 heartbeat IPC: 1.004 cumulative IPC: 0.7323 (Simulation time: 00 hr 42 min 40 sec)
Heartbeat CPU 0 instructions: 60000003 cycles: 76628355 heartbeat IPC: 0.1793 cumulative IPC: 0.1793 (Simulation time: 00 hr 43 min 27 sec)
Heartbeat CPU 1 instructions: 200000004 cycles: 76802728 heartbeat IPC: 2.533 cumulative IPC: 2.088 (Simulation time: 00 hr 43 min 32 sec)
Heartbeat CPU 3 instructions: 120000003 cycles: 76926653 heartbeat IPC: 2.27 cumulative IPC: 0.6986 (Simulation time: 00 hr 43 min 35 sec)
Heartbeat CPU 1 instructions: 210000004 cycles: 80424540 heartbeat IPC: 2.761 cumulative IPC: 2.129 (Simulation time: 00 hr 45 min 35 sec)
Heartbeat CPU 3 instructions: 130000002 cycles: 80506007 heartbeat IPC: 2.794 cumulative IPC: 0.8244 (Simulation time: 00 hr 45 min 38 sec)
Heartbeat CPU 2 instructions: 120000000 cycles: 82286101 heartbeat IPC: 1.414 cumulative IPC: 0.8108 (Simulation time: 00 hr 46 min 41 sec)
Heartbeat CPU 3 instructions: 140000000 cycles: 84048196 heartbeat IPC: 2.823 cumulative IPC: 0.9364 (Simulation time: 00 hr 47 min 46 sec)
Heartbeat CPU 1 instructions: 220000001 cycles: 84216963 heartbeat IPC: 2.637 cumulative IPC: 2.159 (Simulation time: 00 hr 47 min 53 sec)
Heartbeat CPU 1 instructions: 230000000 cycles: 87716642 heartbeat IPC: 2.857 cumulative IPC: 2.196 (Simulation time: 00 hr 50 min 05 sec)
Heartbeat CPU 2 instructions: 130000001 cycles: 87941770 heartbeat IPC: 1.768 cumulative IPC: 0.8915 (Simulation time: 00 hr 50 min 15 sec)
Heartbeat CPU 3 instructions: 150000001 cycles: 88565897 heartbeat IPC: 2.214 cumulative IPC: 1.022 (Simulation time: 00 hr 50 min 40 sec)
Simulation finished CPU 1 instructions: 150000000 cycles: 67959507 cumulative IPC: 2.207 (Simulation time: 00 hr 50 min 49 sec)
Heartbeat CPU 1 instructions: 240000002 cycles: 91374681 heartbeat IPC: 2.734 cumulative IPC: 2.224 (Simulation time: 00 hr 52 min 15 sec)
Heartbeat CPU 3 instructions: 160000000 cycles: 93440164 heartbeat IPC: 2.052 cumulative IPC: 1.091 (Simulation time: 00 hr 53 min 28 sec)
Heartbeat CPU 2 instructions: 140000000 cycles: 93525234 heartbeat IPC: 1.791 cumulative IPC: 0.9607 (Simulation time: 00 hr 53 min 31 sec)
Heartbeat CPU 1 instructions: 250000004 cycles: 95054453 heartbeat IPC: 2.718 cumulative IPC: 2.248 (Simulation time: 00 hr 54 min 21 sec)
Heartbeat CPU 0 instructions: 70000004 cycles: 97962885 heartbeat IPC: 0.4687 cumulative IPC: 0.2594 (Simulation time: 00 hr 56 min 04 sec)
Heartbeat CPU 3 instructions: 170000000 cycles: 98372420 heartbeat IPC: 2.027 cumulative IPC: 1.15 (Simulation time: 00 hr 56 min 18 sec)
Heartbeat CPU 1 instructions: 260000002 cycles: 98614855 heartbeat IPC: 2.809 cumulative IPC: 2.274 (Simulation time: 00 hr 56 min 26 sec)
Heartbeat CPU 2 instructions: 150000004 cycles: 101170025 heartbeat IPC: 1.308 cumulative IPC: 0.9937 (Simulation time: 00 hr 57 min 54 sec)
Heartbeat CPU 1 instructions: 270000004 cycles: 102265077 heartbeat IPC: 2.74 cumulative IPC: 2.295 (Simulation time: 00 hr 58 min 29 sec)
Heartbeat CPU 3 instructions: 180000000 cycles: 102947636 heartbeat IPC: 2.186 cumulative IPC: 1.208 (Simulation time: 00 hr 58 min 54 sec)
Heartbeat CPU 1 instructions: 280000004 cycles: 105776318 heartbeat IPC: 2.848 cumulative IPC: 2.318 (Simulation time: 01 hr 00 min 36 sec)
Heartbeat CPU 3 instructions: 190000002 cycles: 107180607 heartbeat IPC: 2.362 cumulative IPC: 1.265 (Simulation time: 01 hr 01 min 22 sec)
Heartbeat CPU 2 instructions: 160000002 cycles: 107396827 heartbeat IPC: 1.606 cumulative IPC: 1.038 (Simulation time: 01 hr 01 min 30 sec)
Heartbeat CPU 1 instructions: 290000003 cycles: 109247359 heartbeat IPC: 2.881 cumulative IPC: 2.34 (Simulation time: 01 hr 02 min 31 sec)
Heartbeat CPU 1 instructions: 300000000 cycles: 112821037 heartbeat IPC: 2.798 cumulative IPC: 2.358 (Simulation time: 01 hr 04 min 20 sec)
Heartbeat CPU 2 instructions: 170000004 cycles: 114031560 heartbeat IPC: 1.507 cumulative IPC: 1.071 (Simulation time: 01 hr 04 min 59 sec)
Heartbeat CPU 3 instructions: 200000004 cycles: 114184720 heartbeat IPC: 1.428 cumulative IPC: 1.277 (Simulation time: 01 hr 05 min 03 sec)
Heartbeat CPU 1 instructions: 310000004 cycles: 116317521 heartbeat IPC: 2.86 cumulative IPC: 2.376 (Simulation time: 01 hr 06 min 05 sec)
Heartbeat CPU 1 instructions: 320000001 cycles: 119933357 heartbeat IPC: 2.766 cumulative IPC: 2.39 (Simulation time: 01 hr 07 min 46 sec)
Heartbeat CPU 1 instructions: 330000001 cycles: 123622885 heartbeat IPC: 2.71 cumulative IPC: 2.402 (Simulation time: 01 hr 09 min 20 sec)
Heartbeat CPU 2 instructions: 180000002 cycles: 124077509 heartbeat IPC: 0.9954 cumulative IPC: 1.064 (Simulation time: 01 hr 09 min 33 sec)
Heartbeat CPU 1 instructions: 340000002 cycles: 128613095 heartbeat IPC: 2.004 cumulative IPC: 2.383 (Simulation time: 01 hr 11 min 21 sec)
Heartbeat CPU 1 instructions: 350000001 cycles: 132646899 heartbeat IPC: 2.479 cumulative IPC: 2.387 (Simulation time: 01 hr 13 min 00 sec)
Heartbeat CPU 0 instructions: 80000002 cycles: 134323183 heartbeat IPC: 0.275 cumulative IPC: 0.2644 (Simulation time: 01 hr 13 min 44 sec)
Heartbeat CPU 1 instructions: 360000001 cycles: 136987777 heartbeat IPC: 2.304 cumulative IPC: 2.384 (Simulation time: 01 hr 14 min 49 sec)
Heartbeat CPU 2 instructions: 190000001 cycles: 137610190 heartbeat IPC: 0.739 cumulative IPC: 1.026 (Simulation time: 01 hr 15 min 03 sec)
Heartbeat CPU 1 instructions: 370000001 cycles: 141496647 heartbeat IPC: 2.218 cumulative IPC: 2.377 (Simulation time: 01 hr 16 min 41 sec)
Heartbeat CPU 2 instructions: 200000002 cycles: 150091897 heartbeat IPC: 0.8012 cumulative IPC: 1.004 (Simulation time: 01 hr 20 min 06 sec)
Heartbeat CPU 1 instructions: 380000001 cycles: 151934897 heartbeat IPC: 0.958 cumulative IPC: 2.264 (Simulation time: 01 hr 20 min 53 sec)
Heartbeat CPU 3 instructions: 210000003 cycles: 157223391 heartbeat IPC: 0.2323 cumulative IPC: 0.9473 (Simulation time: 01 hr 23 min 18 sec)
Heartbeat CPU 1 instructions: 390000000 cycles: 157721851 heartbeat IPC: 1.728 cumulative IPC: 2.242 (Simulation time: 01 hr 23 min 37 sec)
Heartbeat CPU 2 instructions: 210000001 cycles: 158982329 heartbeat IPC: 1.125 cumulative IPC: 1.012 (Simulation time: 01 hr 24 min 22 sec)
Heartbeat CPU 1 instructions: 400000003 cycles: 161204578 heartbeat IPC: 2.871 cumulative IPC: 2.257 (Simulation time: 01 hr 25 min 38 sec)
Heartbeat CPU 3 instructions: 220000001 cycles: 161378714 heartbeat IPC: 2.407 cumulative IPC: 0.9904 (Simulation time: 01 hr 25 min 44 sec)
Heartbeat CPU 1 instructions: 410000004 cycles: 164808591 heartbeat IPC: 2.775 cumulative IPC: 2.27 (Simulation time: 01 hr 27 min 46 sec)
Heartbeat CPU 3 instructions: 230000001 cycles: 164886148 heartbeat IPC: 2.851 cumulative IPC: 1.036 (Simulation time: 01 hr 27 min 49 sec)
Simulation finished CPU 3 instructions: 150000002 cycles: 144318310 cumulative IPC: 1.039 (Simulation time: 01 hr 28 min 00 sec)
Heartbeat CPU 2 instructions: 220000000 cycles: 167916733 heartbeat IPC: 1.119 cumulative IPC: 1.019 (Simulation time: 01 hr 29 min 37 sec)
Simulation finished CPU 2 instructions: 150000004 cycles: 147201174 cumulative IPC: 1.019 (Simulation time: 01 hr 29 min 42 sec)
Heartbeat CPU 1 instructions: 420000001 cycles: 168314338 heartbeat IPC: 2.852 cumulative IPC: 2.284 (Simulation time: 01 hr 29 min 49 sec)
Heartbeat CPU 3 instructions: 240000000 cycles: 168469223 heartbeat IPC: 2.791 cumulative IPC: 1.078 (Simulation time: 01 hr 29 min 56 sec)
Heartbeat CPU 1 instructions: 430000003 cycles: 172629308 heartbeat IPC: 2.318 cumulative IPC: 2.285 (Simulation time: 01 hr 32 min 16 sec)
Heartbeat CPU 3 instructions: 250000004 cycles: 172682737 heartbeat IPC: 2.373 cumulative IPC: 1.114 (Simulation time: 01 hr 32 min 17 sec)
Heartbeat CPU 2 instructions: 230000000 cycles: 174793017 heartbeat IPC: 1.454 cumulative IPC: 1.038 (Simulation time: 01 hr 33 min 36 sec)
Heartbeat CPU 1 instructions: 440000000 cycles: 176652570 heartbeat IPC: 2.486 cumulative IPC: 2.29 (Simulation time: 01 hr 34 min 38 sec)
Heartbeat CPU 0 instructions: 90000001 cycles: 177602452 heartbeat IPC: 0.2311 cumulative IPC: 0.2552 (Simulation time: 01 hr 35 min 06 sec)
Heartbeat CPU 3 instructions: 260000000 cycles: 177631600 heartbeat IPC: 2.021 cumulative IPC: 1.143 (Simulation time: 01 hr 35 min 07 sec)
Heartbeat CPU 2 instructions: 240000001 cycles: 181688637 heartbeat IPC: 1.45 cumulative IPC: 1.056 (Simulation time: 01 hr 37 min 13 sec)
Heartbeat CPU 1 instructions: 450000003 cycles: 182241330 heartbeat IPC: 1.789 cumulative IPC: 2.273 (Simulation time: 01 hr 37 min 34 sec)
Heartbeat CPU 3 instructions: 270000000 cycles: 182723540 heartbeat IPC: 1.964 cumulative IPC: 1.169 (Simulation time: 01 hr 37 min 50 sec)
Heartbeat CPU 1 instructions: 460000000 cycles: 185692981 heartbeat IPC: 2.897 cumulative IPC: 2.286 (Simulation time: 01 hr 39 min 36 sec)
Heartbeat CPU 3 instructions: 280000001 cycles: 187512238 heartbeat IPC: 2.088 cumulative IPC: 1.195 (Simulation time: 01 hr 40 min 35 sec)
Heartbeat CPU 2 instructions: 250000001 cycles: 188514322 heartbeat IPC: 1.465 cumulative IPC: 1.072 (Simulation time: 01 hr 41 min 04 sec)
Heartbeat CPU 1 instructions: 470000002 cycles: 189213643 heartbeat IPC: 2.84 cumulative IPC: 2.298 (Simulation time: 01 hr 41 min 28 sec)
Heartbeat CPU 3 instructions: 290000003 cycles: 192448252 heartbeat IPC: 2.026 cumulative IPC: 1.219 (Simulation time: 01 hr 43 min 20 sec)
Heartbeat CPU 1 instructions: 480000001 cycles: 192778502 heartbeat IPC: 2.805 cumulative IPC: 2.308 (Simulation time: 01 hr 43 min 32 sec)
Heartbeat CPU 2 instructions: 260000002 cycles: 194928717 heartbeat IPC: 1.559 cumulative IPC: 1.09 (Simulation time: 01 hr 44 min 49 sec)
Heartbeat CPU 3 instructions: 300000002 cycles: 201363823 heartbeat IPC: 1.122 cumulative IPC: 1.214 (Simulation time: 01 hr 47 min 16 sec)
Heartbeat CPU 2 instructions: 270000000 cycles: 202674063 heartbeat IPC: 1.291 cumulative IPC: 1.099 (Simulation time: 01 hr 47 min 50 sec)
Heartbeat CPU 2 instructions: 280000000 cycles: 210835678 heartbeat IPC: 1.225 cumulative IPC: 1.104 (Simulation time: 01 hr 51 min 31 sec)
Heartbeat CPU 1 instructions: 490000001 cycles: 217054987 heartbeat IPC: 0.4119 cumulative IPC: 2.073 (Simulation time: 01 hr 54 min 01 sec)
Heartbeat CPU 0 instructions: 100000000 cycles: 219523446 heartbeat IPC: 0.2385 cumulative IPC: 0.2517 (Simulation time: 01 hr 54 min 59 sec)
Heartbeat CPU 2 instructions: 290000003 cycles: 223117924 heartbeat IPC: 0.8142 cumulative IPC: 1.087 (Simulation time: 01 hr 56 min 26 sec)
Heartbeat CPU 1 instructions: 500000002 cycles: 238061278 heartbeat IPC: 0.476 cumulative IPC: 1.919 (Simulation time: 02 hr 01 min 46 sec)
Heartbeat CPU 3 instructions: 310000000 cycles: 249464472 heartbeat IPC: 0.2079 cumulative IPC: 1.002 (Simulation time: 02 hr 05 min 54 sec)
Heartbeat CPU 2 instructions: 300000004 cycles: 251015904 heartbeat IPC: 0.3584 cumulative IPC: 0.9985 (Simulation time: 02 hr 06 min 34 sec)
Heartbeat CPU 1 instructions: 510000001 cycles: 253100218 heartbeat IPC: 0.6649 cumulative IPC: 1.838 (Simulation time: 02 hr 07 min 42 sec)
Heartbeat CPU 3 instructions: 320000004 cycles: 255015887 heartbeat IPC: 1.801 cumulative IPC: 1.021 (Simulation time: 02 hr 08 min 40 sec)
Heartbeat CPU 3 instructions: 330000002 cycles: 258583659 heartbeat IPC: 2.803 cumulative IPC: 1.048 (Simulation time: 02 hr 10 min 39 sec)
Heartbeat CPU 2 instructions: 310000001 cycles: 258756264 heartbeat IPC: 1.292 cumulative IPC: 1.008 (Simulation time: 02 hr 10 min 44 sec)
Heartbeat CPU 1 instructions: 520000001 cycles: 259635064 heartbeat IPC: 1.53 cumulative IPC: 1.829 (Simulation time: 02 hr 11 min 15 sec)
Heartbeat CPU 3 instructions: 340000004 cycles: 262068043 heartbeat IPC: 2.87 cumulative IPC: 1.074 (Simulation time: 02 hr 12 min 49 sec)
Heartbeat CPU 1 instructions: 530000000 cycles: 265914341 heartbeat IPC: 1.593 cumulative IPC: 1.823 (Simulation time: 02 hr 14 min 51 sec)
Heartbeat CPU 3 instructions: 350000004 cycles: 265967919 heartbeat IPC: 2.564 cumulative IPC: 1.098 (Simulation time: 02 hr 14 min 53 sec)
Heartbeat CPU 2 instructions: 320000001 cycles: 266172304 heartbeat IPC: 1.348 cumulative IPC: 1.018 (Simulation time: 02 hr 15 min 01 sec)
Heartbeat CPU 3 instructions: 360000001 cycles: 270499146 heartbeat IPC: 2.207 cumulative IPC: 1.118 (Simulation time: 02 hr 17 min 27 sec)
Heartbeat CPU 1 instructions: 540000004 cycles: 271940989 heartbeat IPC: 1.659 cumulative IPC: 1.819 (Simulation time: 02 hr 18 min 15 sec)
Heartbeat CPU 0 instructions: 110000004 cycles: 272970700 heartbeat IPC: 0.1871 cumulative IPC: 0.238 (Simulation time: 02 hr 18 min 48 sec)
Heartbeat CPU 2 instructions: 330000000 cycles: 273493759 heartbeat IPC: 1.366 cumulative IPC: 1.028 (Simulation time: 02 hr 19 min 03 sec)
Heartbeat CPU 3 instructions: 370000000 cycles: 275582725 heartbeat IPC: 1.967 cumulative IPC: 1.135 (Simulation time: 02 hr 20 min 09 sec)
Heartbeat CPU 1 instructions: 550000001 cycles: 278538704 heartbeat IPC: 1.516 cumulative IPC: 1.812 (Simulation time: 02 hr 21 min 42 sec)
Heartbeat CPU 3 instructions: 380000002 cycles: 280556217 heartbeat IPC: 2.011 cumulative IPC: 1.152 (Simulation time: 02 hr 22 min 52 sec)
Heartbeat CPU 2 instructions: 340000000 cycles: 280709926 heartbeat IPC: 1.386 cumulative IPC: 1.038 (Simulation time: 02 hr 22 min 59 sec)
Heartbeat CPU 3 instructions: 390000000 cycles: 285928119 heartbeat IPC: 1.862 cumulative IPC: 1.166 (Simulation time: 02 hr 25 min 45 sec)
Heartbeat CPU 1 instructions: 560000000 cycles: 288283377 heartbeat IPC: 1.026 cumulative IPC: 1.783 (Simulation time: 02 hr 26 min 44 sec)
Heartbeat CPU 2 instructions: 350000003 cycles: 288541698 heartbeat IPC: 1.277 cumulative IPC: 1.045 (Simulation time: 02 hr 26 min 52 sec)
Heartbeat CPU 3 instructions: 400000001 cycles: 290918364 heartbeat IPC: 2.004 cumulative IPC: 1.182 (Simulation time: 02 hr 27 min 53 sec)
Heartbeat CPU 2 instructions: 360000001 cycles: 298181278 heartbeat IPC: 1.037 cumulative IPC: 1.045 (Simulation time: 02 hr 30 min 43 sec)
Heartbeat CPU 2 instructions: 370000000 cycles: 308065825 heartbeat IPC: 1.012 cumulative IPC: 1.044 (Simulation time: 02 hr 34 min 53 sec)
Heartbeat CPU 3 instructions: 410000000 cycles: 312356579 heartbeat IPC: 0.4665 cumulative IPC: 1.129 (Simulation time: 02 hr 36 min 37 sec)
Heartbeat CPU 2 instructions: 380000003 cycles: 318305523 heartbeat IPC: 0.9766 cumulative IPC: 1.042 (Simulation time: 02 hr 38 min 59 sec)
Heartbeat CPU 1 instructions: 570000001 cycles: 318981041 heartbeat IPC: 0.3258 cumulative IPC: 1.633 (Simulation time: 02 hr 39 min 14 sec)
Heartbeat CPU 2 instructions: 390000000 cycles: 328333517 heartbeat IPC: 0.9972 cumulative IPC: 1.04 (Simulation time: 02 hr 42 min 45 sec)
Heartbeat CPU 2 instructions: 400000000 cycles: 339611058 heartbeat IPC: 0.8867 cumulative IPC: 1.035 (Simulation time: 02 hr 47 min 07 sec)
Heartbeat CPU 1 instructions: 580000000 cycles: 340216514 heartbeat IPC: 0.4709 cumulative IPC: 1.556 (Simulation time: 02 hr 47 min 23 sec)
Heartbeat CPU 0 instructions: 120000004 cycles: 348394952 heartbeat IPC: 0.1326 cumulative IPC: 0.2137 (Simulation time: 02 hr 50 min 52 sec)
Heartbeat CPU 3 instructions: 420000002 cycles: 348761294 heartbeat IPC: 0.2747 cumulative IPC: 1.034 (Simulation time: 02 hr 51 min 04 sec)
Heartbeat CPU 2 instructions: 410000001 cycles: 349267944 heartbeat IPC: 1.036 cumulative IPC: 1.035 (Simulation time: 02 hr 51 min 20 sec)
Heartbeat CPU 1 instructions: 590000004 cycles: 350698739 heartbeat IPC: 0.954 cumulative IPC: 1.537 (Simulation time: 02 hr 52 min 03 sec)
Heartbeat CPU 3 instructions: 430000000 cycles: 352943777 heartbeat IPC: 2.391 cumulative IPC: 1.051 (Simulation time: 02 hr 53 min 18 sec)
Heartbeat CPU 3 instructions: 440000003 cycles: 356557414 heartbeat IPC: 2.767 cumulative IPC: 1.07 (Simulation time: 02 hr 55 min 18 sec)
Heartbeat CPU 1 instructions: 600000004 cycles: 356863261 heartbeat IPC: 1.622 cumulative IPC: 1.538 (Simulation time: 02 hr 55 min 26 sec)
Heartbeat CPU 2 instructions: 420000002 cycles: 358683845 heartbeat IPC: 1.062 cumulative IPC: 1.035 (Simulation time: 02 hr 56 min 20 sec)
Heartbeat CPU 3 instructions: 450000002 cycles: 360292280 heartbeat IPC: 2.677 cumulative IPC: 1.088 (Simulation time: 02 hr 57 min 09 sec)
Heartbeat CPU 1 instructions: 610000000 cycles: 363318311 heartbeat IPC: 1.549 cumulative IPC: 1.538 (Simulation time: 02 hr 58 min 50 sec)
Heartbeat CPU 3 instructions: 460000001 cycles: 364718049 heartbeat IPC: 2.259 cumulative IPC: 1.103 (Simulation time: 02 hr 59 min 38 sec)
Heartbeat CPU 2 instructions: 430000002 cycles: 365919948 heartbeat IPC: 1.382 cumulative IPC: 1.043 (Simulation time: 03 hr 00 min 16 sec)
Heartbeat CPU 1 instructions: 620000002 cycles: 369126085 heartbeat IPC: 1.722 cumulative IPC: 1.541 (Simulation time: 03 hr 02 min 05 sec)
Heartbeat CPU 3 instructions: 470000000 cycles: 369631407 heartbeat IPC: 2.035 cumulative IPC: 1.116 (Simulation time: 03 hr 02 min 21 sec)
Heartbeat CPU 2 instructions: 440000000 cycles: 372725471 heartbeat IPC: 1.469 cumulative IPC: 1.051 (Simulation time: 03 hr 04 min 08 sec)
Heartbeat CPU 3 instructions: 480000000 cycles: 374638153 heartbeat IPC: 1.997 cumulative IPC: 1.128 (Simulation time: 03 hr 05 min 14 sec)
Heartbeat CPU 0 instructions: 130000002 cycles: 375159944 heartbeat IPC: 0.3736 cumulative IPC: 0.2258 (Simulation time: 03 hr 05 min 32 sec)
Heartbeat CPU 1 instructions: 630000004 cycles: 375176645 heartbeat IPC: 1.653 cumulative IPC: 1.543 (Simulation time: 03 hr 05 min 32 sec)
Heartbeat CPU 3 instructions: 490000001 cycles: 380472806 heartbeat IPC: 1.714 cumulative IPC: 1.138 (Simulation time: 03 hr 07 min 55 sec)
Heartbeat CPU 2 instructions: 450000001 cycles: 380882897 heartbeat IPC: 1.226 cumulative IPC: 1.055 (Simulation time: 03 hr 08 min 08 sec)
Heartbeat CPU 3 instructions: 500000000 cycles: 385090330 heartbeat IPC: 2.166 cumulative IPC: 1.151 (Simulation time: 03 hr 10 min 16 sec)
Heartbeat CPU 2 instructions: 460000002 cycles: 388212987 heartbeat IPC: 1.364 cumulative IPC: 1.061 (Simulation time: 03 hr 11 min 42 sec)
Heartbeat CPU 1 instructions: 640000002 cycles: 397706492 heartbeat IPC: 0.4439 cumulative IPC: 1.478 (Simulation time: 03 hr 15 min 41 sec)
Heartbeat CPU 3 instructions: 510000000 cycles: 399607926 heartbeat IPC: 0.6888 cumulative IPC: 1.133 (Simulation time: 03 hr 16 min 26 sec)
Heartbeat CPU 2 instructions: 470000003 cycles: 401051910 heartbeat IPC: 0.7789 cumulative IPC: 1.052 (Simulation time: 03 hr 17 min 04 sec)
Heartbeat CPU 1 instructions: 650000003 cycles: 413605543 heartbeat IPC: 0.629 cumulative IPC: 1.443 (Simulation time: 03 hr 21 min 47 sec)
Heartbeat CPU 2 instructions: 480000000 cycles: 413850291 heartbeat IPC: 0.7813 cumulative IPC: 1.043 (Simulation time: 03 hr 21 min 52 sec)
Heartbeat CPU 2 instructions: 490000002 cycles: 428209926 heartbeat IPC: 0.6964 cumulative IPC: 1.031 (Simulation time: 03 hr 27 min 08 sec)
Heartbeat CPU 1 instructions: 660000003 cycles: 435849935 heartbeat IPC: 0.4496 cumulative IPC: 1.39 (Simulation time: 03 hr 30 min 03 sec)
Heartbeat CPU 3 instructions: 520000003 cycles: 441513400 heartbeat IPC: 0.2386 cumulative IPC: 1.044 (Simulation time: 03 hr 32 min 23 sec)
Heartbeat CPU 2 instructions: 500000000 cycles: 444248060 heartbeat IPC: 0.6235 cumulative IPC: 1.015 (Simulation time: 03 hr 33 min 44 sec)
Heartbeat CPU 1 instructions: 670000002 cycles: 445280243 heartbeat IPC: 1.06 cumulative IPC: 1.383 (Simulation time: 03 hr 34 min 18 sec)
Heartbeat CPU 3 instructions: 530000003 cycles: 445901184 heartbeat IPC: 2.279 cumulative IPC: 1.057 (Simulation time: 03 hr 34 min 36 sec)
Heartbeat CPU 3 instructions: 540000003 cycles: 449571314 heartbeat IPC: 2.725 cumulative IPC: 1.071 (Simulation time: 03 hr 36 min 40 sec)
Heartbeat CPU 0 instructions: 140000001 cycles: 450636709 heartbeat IPC: 0.1325 cumulative IPC: 0.2094 (Simulation time: 03 hr 37 min 15 sec)
Heartbeat CPU 1 instructions: 680000002 cycles: 452766369 heartbeat IPC: 1.336 cumulative IPC: 1.382 (Simulation time: 03 hr 38 min 24 sec)
Heartbeat CPU 2 instructions: 510000001 cycles: 453061778 heartbeat IPC: 1.135 cumulative IPC: 1.018 (Simulation time: 03 hr 38 min 34 sec)
Heartbeat CPU 3 instructions: 550000001 cycles: 453392924 heartbeat IPC: 2.617 cumulative IPC: 1.085 (Simulation time: 03 hr 38 min 44 sec)
Heartbeat CPU 3 instructions: 560000000 cycles: 457851766 heartbeat IPC: 2.243 cumulative IPC: 1.097 (Simulation time: 03 hr 41 min 08 sec)
Heartbeat CPU 1 instructions: 690000000 cycles: 459737075 heartbeat IPC: 1.435 cumulative IPC: 1.383 (Simulation time: 03 hr 42 min 10 sec)
Heartbeat CPU 2 instructions: 520000000 cycles: 460684989 heartbeat IPC: 1.312 cumulative IPC: 1.023 (Simulation time: 03 hr 42 min 39 sec)
Heartbeat CPU 3 instructions: 570000002 cycles: 462982594 heartbeat IPC: 1.949 cumulative IPC: 1.106 (Simulation time: 03 hr 43 min 54 sec)
Heartbeat CPU 1 instructions: 700000000 cycles: 466718857 heartbeat IPC: 1.432 cumulative IPC: 1.383 (Simulation time: 03 hr 45 min 54 sec)
Heartbeat CPU 2 instructions: 530000001 cycles: 467933373 heartbeat IPC: 1.38 cumulative IPC: 1.028 (Simulation time: 03 hr 46 min 34 sec)
Heartbeat CPU 3 instructions: 580000003 cycles: 468189427 heartbeat IPC: 1.921 cumulative IPC: 1.116 (Simulation time: 03 hr 46 min 41 sec)
Heartbeat CPU 3 instructions: 590000000 cycles: 473653848 heartbeat IPC: 1.83 cumulative IPC: 1.125 (Simulation time: 03 hr 49 min 35 sec)
Heartbeat CPU 2 instructions: 540000000 cycles: 475841493 heartbeat IPC: 1.265 cumulative IPC: 1.033 (Simulation time: 03 hr 50 min 35 sec)
Heartbeat CPU 3 instructions: 600000000 cycles: 478590980 heartbeat IPC: 2.025 cumulative IPC: 1.134 (Simulation time: 03 hr 51 min 53 sec)
Heartbeat CPU 2 instructions: 550000004 cycles: 485789098 heartbeat IPC: 1.005 cumulative IPC: 1.032 (Simulation time: 03 hr 54 min 43 sec)
Heartbeat CPU 1 instructions: 710000002 cycles: 489754358 heartbeat IPC: 0.4341 cumulative IPC: 1.337 (Simulation time: 03 hr 56 min 16 sec)
Heartbeat CPU 2 instructions: 560000001 cycles: 496399081 heartbeat IPC: 0.9425 cumulative IPC: 1.03 (Simulation time: 03 hr 59 min 05 sec)
Heartbeat CPU 3 instructions: 610000003 cycles: 497956731 heartbeat IPC: 0.5164 cumulative IPC: 1.109 (Simulation time: 03 hr 59 min 51 sec)
Heartbeat CPU 0 instructions: 150000003 cycles: 498713628 heartbeat IPC: 0.208 cumulative IPC: 0.2093 (Simulation time: 04 hr 00 min 15 sec)
Heartbeat CPU 2 instructions: 570000004 cycles: 502952720 heartbeat IPC: 1.526 cumulative IPC: 1.037 (Simulation time: 04 hr 02 min 00 sec)
Heartbeat CPU 1 instructions: 720000000 cycles: 508672860 heartbeat IPC: 0.5286 cumulative IPC: 1.305 (Simulation time: 04 hr 04 min 14 sec)
Heartbeat CPU 2 instructions: 580000000 cycles: 511750777 heartbeat IPC: 1.137 cumulative IPC: 1.039 (Simulation time: 04 hr 05 min 29 sec)
Heartbeat CPU 2 instructions: 590000001 cycles: 522043014 heartbeat IPC: 0.9716 cumulative IPC: 1.037 (Simulation time: 04 hr 09 min 32 sec)
Heartbeat CPU 1 instructions: 730000001 cycles: 530023954 heartbeat IPC: 0.4684 cumulative IPC: 1.27 (Simulation time: 04 hr 12 min 44 sec)
Heartbeat CPU 2 instructions: 600000000 cycles: 533315920 heartbeat IPC: 0.8871 cumulative IPC: 1.034 (Simulation time: 04 hr 13 min 58 sec)
Heartbeat CPU 3 instructions: 620000001 cycles: 538539641 heartbeat IPC: 0.2464 cumulative IPC: 1.042 (Simulation time: 04 hr 16 min 17 sec)
Heartbeat CPU 1 instructions: 740000001 cycles: 540880639 heartbeat IPC: 0.9211 cumulative IPC: 1.263 (Simulation time: 04 hr 17 min 31 sec)
Heartbeat CPU 2 instructions: 610000000 cycles: 541687548 heartbeat IPC: 1.195 cumulative IPC: 1.036 (Simulation time: 04 hr 18 min 00 sec)
Heartbeat CPU 3 instructions: 630000002 cycles: 542770932 heartbeat IPC: 2.363 cumulative IPC: 1.052 (Simulation time: 04 hr 18 min 40 sec)
Heartbeat CPU 3 instructions: 640000004 cycles: 546372349 heartbeat IPC: 2.777 cumulative IPC: 1.064 (Simulation time: 04 hr 20 min 43 sec)
Heartbeat CPU 1 instructions: 750000000 cycles: 547062587 heartbeat IPC: 1.618 cumulative IPC: 1.267 (Simulation time: 04 hr 21 min 07 sec)
Heartbeat CPU 3 instructions: 650000000 cycles: 550347363 heartbeat IPC: 2.516 cumulative IPC: 1.075 (Simulation time: 04 hr 22 min 54 sec)
Heartbeat CPU 2 instructions: 620000000 cycles: 550963764 heartbeat IPC: 1.078 cumulative IPC: 1.037 (Simulation time: 04 hr 23 min 15 sec)
Heartbeat CPU 1 instructions: 760000000 cycles: 552915448 heartbeat IPC: 1.709 cumulative IPC: 1.272 (Simulation time: 04 hr 24 min 23 sec)
Heartbeat CPU 3 instructions: 660000001 cycles: 555162753 heartbeat IPC: 2.077 cumulative IPC: 1.084 (Simulation time: 04 hr 25 min 38 sec)
Heartbeat CPU 0 instructions: 160000002 cycles: 556694819 heartbeat IPC: 0.1725 cumulative IPC: 0.2053 (Simulation time: 04 hr 26 min 24 sec)
Heartbeat CPU 2 instructions: 630000000 cycles: 557400082 heartbeat IPC: 1.554 cumulative IPC: 1.043 (Simulation time: 04 hr 26 min 49 sec)
Heartbeat CPU 1 instructions: 770000004 cycles: 558276329 heartbeat IPC: 1.865 cumulative IPC: 1.278 (Simulation time: 04 hr 27 min 18 sec)
Heartbeat CPU 3 instructions: 670000000 cycles: 560039517 heartbeat IPC: 2.051 cumulative IPC: 1.093 (Simulation time: 04 hr 28 min 25 sec)
Heartbeat CPU 1 instructions: 780000003 cycles: 563859049 heartbeat IPC: 1.791 cumulative IPC: 1.283 (Simulation time: 04 hr 30 min 38 sec)
Heartbeat CPU 2 instructions: 640000002 cycles: 564351936 heartbeat IPC: 1.438 cumulative IPC: 1.048 (Simulation time: 04 hr 30 min 53 sec)
Heartbeat CPU 3 instructions: 680000001 cycles: 564660637 heartbeat IPC: 2.164 cumulative IPC: 1.102 (Simulation time: 04 hr 31 min 02 sec)
Heartbeat CPU 3 instructions: 690000001 cycles: 569856491 heartbeat IPC: 1.925 cumulative IPC: 1.11 (Simulation time: 04 hr 33 min 26 sec)
Heartbeat CPU 2 instructions: 650000000 cycles: 573852488 heartbeat IPC: 1.053 cumulative IPC: 1.048 (Simulation time: 04 hr 35 min 09 sec)
Heartbeat CPU 2 instructions: 660000000 cycles: 583419488 heartbeat IPC: 1.045 cumulative IPC: 1.048 (Simulation time: 04 hr 39 min 06 sec)
Heartbeat CPU 3 instructions: 700000000 cycles: 585184869 heartbeat IPC: 0.6524 cumulative IPC: 1.097 (Simulation time: 04 hr 39 min 49 sec)
Heartbeat CPU 1 instructions: 790000003 cycles: 590938918 heartbeat IPC: 0.3693 cumulative IPC: 1.24 (Simulation time: 04 hr 42 min 18 sec)
Heartbeat CPU 2 instructions: 670000000 cycles: 593144126 heartbeat IPC: 1.028 cumulative IPC: 1.048 (Simulation time: 04 hr 43 min 07 sec)
Heartbeat CPU 2 instructions: 680000004 cycles: 609325937 heartbeat IPC: 0.618 cumulative IPC: 1.036 (Simulation time: 04 hr 49 min 03 sec)
Heartbeat CPU 1 instructions: 800000003 cycles: 612537889 heartbeat IPC: 0.463 cumulative IPC: 1.211 (Simulation time: 04 hr 50 min 16 sec)
Heartbeat CPU 2 instructions: 690000000 cycles: 619069937 heartbeat IPC: 1.026 cumulative IPC: 1.036 (Simulation time: 04 hr 52 min 49 sec)
Heartbeat CPU 0 instructions: 170000001 cycles: 629115624 heartbeat IPC: 0.1381 cumulative IPC: 0.1973 (Simulation time: 04 hr 56 min 56 sec)
Heartbeat CPU 2 instructions: 700000000 cycles: 629287708 heartbeat IPC: 0.9787 cumulative IPC: 1.035 (Simulation time: 04 hr 57 min 01 sec)
Heartbeat CPU 3 instructions: 710000000 cycles: 629354928 heartbeat IPC: 0.2264 cumulative IPC: 1.034 (Simulation time: 04 hr 57 min 03 sec)
Heartbeat CPU 1 instructions: 810000004 cycles: 629583441 heartbeat IPC: 0.5867 cumulative IPC: 1.194 (Simulation time: 04 hr 57 min 10 sec)
Heartbeat CPU 3 instructions: 720000002 cycles: 633685675 heartbeat IPC: 2.309 cumulative IPC: 1.043 (Simulation time: 04 hr 59 min 41 sec)
Heartbeat CPU 1 instructions: 820000004 cycles: 635716882 heartbeat IPC: 1.63 cumulative IPC: 1.198 (Simulation time: 05 hr 00 min 55 sec)
Heartbeat CPU 2 instructions: 710000002 cycles: 635895700 heartbeat IPC: 1.513 cumulative IPC: 1.04 (Simulation time: 05 hr 01 min 01 sec)
Heartbeat CPU 3 instructions: 730000003 cycles: 637247952 heartbeat IPC: 2.807 cumulative IPC: 1.053 (Simulation time: 05 hr 01 min 47 sec)
Heartbeat CPU 3 instructions: 740000002 cycles: 641345782 heartbeat IPC: 2.44 cumulative IPC: 1.062 (Simulation time: 05 hr 04 min 05 sec)
Heartbeat CPU 1 instructions: 830000003 cycles: 641879916 heartbeat IPC: 1.623 cumulative IPC: 1.203 (Simulation time: 05 hr 04 min 24 sec)
Heartbeat CPU 2 instructions: 720000001 cycles: 644394488 heartbeat IPC: 1.177 cumulative IPC: 1.042 (Simulation time: 05 hr 05 min 51 sec)
Heartbeat CPU 3 instructions: 750000003 cycles: 645976274 heartbeat IPC: 2.16 cumulative IPC: 1.07 (Simulation time: 05 hr 06 min 49 sec)
Heartbeat CPU 1 instructions: 840000003 cycles: 647365298 heartbeat IPC: 1.823 cumulative IPC: 1.208 (Simulation time: 05 hr 07 min 36 sec)
Heartbeat CPU 2 instructions: 730000000 cycles: 650705710 heartbeat IPC: 1.584 cumulative IPC: 1.048 (Simulation time: 05 hr 09 min 40 sec)
Heartbeat CPU 3 instructions: 760000000 cycles: 650819742 heartbeat IPC: 2.065 cumulative IPC: 1.078 (Simulation time: 05 hr 09 min 44 sec)
Heartbeat CPU 1 instructions: 850000002 cycles: 652583321 heartbeat IPC: 1.916 cumulative IPC: 1.214 (Simulation time: 05 hr 10 min 47 sec)
Heartbeat CPU 0 instructions: 180000001 cycles: 653456796 heartbeat IPC: 0.4108 cumulative IPC: 0.2055 (Simulation time: 05 hr 11 min 19 sec)
Heartbeat CPU 3 instructions: 770000003 cycles: 655431901 heartbeat IPC: 2.168 cumulative IPC: 1.086 (Simulation time: 05 hr 12 min 23 sec)
Heartbeat CPU 2 instructions: 740000000 cycles: 657767506 heartbeat IPC: 1.416 cumulative IPC: 1.052 (Simulation time: 05 hr 13 min 34 sec)
Heartbeat CPU 3 instructions: 780000001 cycles: 660345603 heartbeat IPC: 2.035 cumulative IPC: 1.093 (Simulation time: 05 hr 14 min 42 sec)
Heartbeat CPU 2 instructions: 750000002 cycles: 667685957 heartbeat IPC: 1.008 cumulative IPC: 1.051 (Simulation time: 05 hr 17 min 45 sec)
Heartbeat CPU 1 instructions: 860000002 cycles: 672217644 heartbeat IPC: 0.5093 cumulative IPC: 1.193 (Simulation time: 05 hr 19 min 34 sec)
Heartbeat CPU 3 instructions: 790000004 cycles: 672261708 heartbeat IPC: 0.8392 cumulative IPC: 1.089 (Simulation time: 05 hr 19 min 36 sec)
Heartbeat CPU 2 instructions: 760000000 cycles: 676805866 heartbeat IPC: 1.097 cumulative IPC: 1.052 (Simulation time: 05 hr 21 min 43 sec)
Heartbeat CPU 1 instructions: 870000001 cycles: 685239030 heartbeat IPC: 0.768 cumulative IPC: 1.184 (Simulation time: 05 hr 24 min 48 sec)
Heartbeat CPU 2 instructions: 770000004 cycles: 690348653 heartbeat IPC: 0.7384 cumulative IPC: 1.045 (Simulation time: 05 hr 26 min 43 sec)
Heartbeat CPU 2 instructions: 780000000 cycles: 704752873 heartbeat IPC: 0.6942 cumulative IPC: 1.038 (Simulation time: 05 hr 32 min 14 sec)
Heartbeat CPU 1 instructions: 880000000 cycles: 708831387 heartbeat IPC: 0.4239 cumulative IPC: 1.158 (Simulation time: 05 hr 33 min 49 sec)
Heartbeat CPU 2 instructions: 790000000 cycles: 718027588 heartbeat IPC: 0.7533 cumulative IPC: 1.032 (Simulation time: 05 hr 37 min 23 sec)
Heartbeat CPU 3 instructions: 800000000 cycles: 718799608 heartbeat IPC: 0.2149 cumulative IPC: 1.03 (Simulation time: 05 hr 37 min 43 sec)
Heartbeat CPU 1 instructions: 890000001 cycles: 721659599 heartbeat IPC: 0.7795 cumulative IPC: 1.151 (Simulation time: 05 hr 39 min 24 sec)
Heartbeat CPU 3 instructions: 810000002 cycles: 723015151 heartbeat IPC: 2.372 cumulative IPC: 1.038 (Simulation time: 05 hr 40 min 08 sec)
Heartbeat CPU 2 instructions: 800000002 cycles: 723852663 heartbeat IPC: 1.717 cumulative IPC: 1.038 (Simulation time: 05 hr 40 min 39 sec)
Heartbeat CPU 3 instructions: 820000003 cycles: 726527429 heartbeat IPC: 2.847 cumulative IPC: 1.047 (Simulation time: 05 hr 42 min 27 sec)
Heartbeat CPU 0 instructions: 190000001 cycles: 727036924 heartbeat IPC: 0.1359 cumulative IPC: 0.1983 (Simulation time: 05 hr 42 min 46 sec)
Heartbeat CPU 1 instructions: 900000002 cycles: 727661836 heartbeat IPC: 1.666 cumulative IPC: 1.156 (Simulation time: 05 hr 43 min 08 sec)
Heartbeat CPU 2 instructions: 810000002 cycles: 729893410 heartbeat IPC: 1.655 cumulative IPC: 1.043 (Simulation time: 05 hr 44 min 34 sec)
Heartbeat CPU 3 instructions: 830000001 cycles: 730686168 heartbeat IPC: 2.405 cumulative IPC: 1.055 (Simulation time: 05 hr 45 min 01 sec)
Heartbeat CPU 1 instructions: 910000001 cycles: 733529584 heartbeat IPC: 1.704 cumulative IPC: 1.16 (Simulation time: 05 hr 46 min 40 sec)
Heartbeat CPU 3 instructions: 840000002 cycles: 735072743 heartbeat IPC: 2.28 cumulative IPC: 1.063 (Simulation time: 05 hr 47 min 31 sec)
Heartbeat CPU 2 instructions: 820000000 cycles: 737927012 heartbeat IPC: 1.245 cumulative IPC: 1.046 (Simulation time: 05 hr 49 min 09 sec)
Heartbeat CPU 1 instructions: 920000003 cycles: 738980303 heartbeat IPC: 1.835 cumulative IPC: 1.165 (Simulation time: 05 hr 49 min 41 sec)
Heartbeat CPU 3 instructions: 850000003 cycles: 739897078 heartbeat IPC: 2.073 cumulative IPC: 1.07 (Simulation time: 05 hr 50 min 13 sec)
Heartbeat CPU 2 instructions: 830000000 cycles: 744076351 heartbeat IPC: 1.626 cumulative IPC: 1.051 (Simulation time: 05 hr 52 min 33 sec)
Heartbeat CPU 3 instructions: 860000001 cycles: 744380511 heartbeat IPC: 2.23 cumulative IPC: 1.077 (Simulation time: 05 hr 52 min 41 sec)
Heartbeat CPU 1 instructions: 930000000 cycles: 744432941 heartbeat IPC: 1.834 cumulative IPC: 1.17 (Simulation time: 05 hr 52 min 42 sec)
Heartbeat CPU 3 instructions: 870000000 cycles: 749944605 heartbeat IPC: 1.797 cumulative IPC: 1.082 (Simulation time: 05 hr 55 min 07 sec)
Heartbeat CPU 2 instructions: 840000004 cycles: 752995809 heartbeat IPC: 1.121 cumulative IPC: 1.051 (Simulation time: 05 hr 56 min 39 sec)
Heartbeat CPU 0 instructions: 200000001 cycles: 759202191 heartbeat IPC: 0.3109 cumulative IPC: 0.2032 (Simulation time: 05 hr 59 min 06 sec)
Simulation finished CPU 0 instructions: 150000002 cycles: 738331432 cumulative IPC: 0.2032 (Simulation time: 05 hr 59 min 06 sec)
Simulation complete CPU 0 instructions: 150000002 cycles: 738331432 cumulative IPC: 0.2032 (Simulation time: 05 hr 59 min 06 sec)
Simulation complete CPU 1 instructions: 849764477 cycles: 738331432 cumulative IPC: 1.151 (Simulation time: 05 hr 59 min 06 sec)
Simulation complete CPU 2 instructions: 776131434 cycles: 738331432 cumulative IPC: 1.051 (Simulation time: 05 hr 59 min 06 sec)
Simulation complete CPU 3 instructions: 797580345 cycles: 738331432 cumulative IPC: 1.08 (Simulation time: 05 hr 59 min 06 sec)

ChampSim completed all CPUs

=== Simulation ===
CPU 0 runs /home/das/dpc3_traces/620.omnetpp_s-874B.champsimtrace.xzCPU 1 runs /home/das/dpc3_traces/654.roms_s-842B.champsimtrace.xzCPU 2 runs /home/das/dpc3_traces/623.xalancbmk_s-700B.champsimtrace.xzCPU 3 runs /home/das/dpc3_traces/627.cam4_s-573B.champsimtrace.xz
Total Simulation Statistics (not including warmup)

CPU 0 cumulative IPC: 0.2032 instructions: 150000002 cycles: 738331432
CPU 0 Branch Prediction Accuracy: 94.9% MPKI: 10.6 Average ROB Occupancy at Mispredict: 82.33
Branch type MPKI
BRANCH_DIRECT_JUMP: 0.923
BRANCH_INDIRECT: 0.128
BRANCH_CONDITIONAL: 8.42
BRANCH_DIRECT_CALL: 0.00016
BRANCH_INDIRECT_CALL: 0.734
BRANCH_RETURN: 0.399


CPU 1 cumulative IPC: 1.151 instructions: 849764477 cycles: 738331432
CPU 1 Branch Prediction Accuracy: 91.44% MPKI: 11.28 Average ROB Occupancy at Mispredict: 120.6
Branch type MPKI
BRANCH_DIRECT_JUMP: 0.0734
BRANCH_INDIRECT: 0
BRANCH_CONDITIONAL: 6.94
BRANCH_DIRECT_CALL: 9.41e-06
BRANCH_INDIRECT_CALL: 0
BRANCH_RETURN: 4.27


CPU 2 cumulative IPC: 1.051 instructions: 776131434 cycles: 738331432
CPU 2 Branch Prediction Accuracy: 97.26% MPKI: 7.854 Average ROB Occupancy at Mispredict: 41.77
Branch type MPKI
BRANCH_DIRECT_JUMP: 0.108
BRANCH_INDIRECT: 0.335
BRANCH_CONDITIONAL: 5.62
BRANCH_DIRECT_CALL: 0.000334
BRANCH_INDIRECT_CALL: 0.368
BRANCH_RETURN: 1.42


CPU 3 cumulative IPC: 1.08 instructions: 797580345 cycles: 738331432
CPU 3 Branch Prediction Accuracy: 94.72% MPKI: 7.105 Average ROB Occupancy at Mispredict: 66.16
Branch type MPKI
BRANCH_DIRECT_JUMP: 0.00541
BRANCH_INDIRECT: 0.00154
BRANCH_CONDITIONAL: 6.45
BRANCH_DIRECT_CALL: 0.0184
BRANCH_INDIRECT_CALL: 0
BRANCH_RETURN: 0.629

LLC TOTAL        ACCESS:    3513385 HIT:    1562452 MISS:    1950933
LLC LOAD         ACCESS:    1689076 HIT:     436491 MISS:    1252585
LLC RFO          ACCESS:     257706 HIT:     125029 MISS:     132677
LLC PREFETCH     ACCESS:          0 HIT:          0 MISS:          0
LLC WRITE        ACCESS:     970428 HIT:     921642 MISS:      48786
LLC TRANSLATION  ACCESS:     596175 HIT:      79290 MISS:     516885
LLC PREFETCH REQUESTED:          0 ISSUED:          0 USEFUL:          0 USELESS:          0
LLC AVERAGE MISS LATENCY: 1889 cycles
LLC TOTAL        ACCESS:    2384732 HIT:     628379 MISS:    1756353
LLC LOAD         ACCESS:    1018117 HIT:      17546 MISS:    1000571
LLC RFO          ACCESS:     679472 HIT:         44 MISS:     679428
LLC PREFETCH     ACCESS:          0 HIT:          0 MISS:          0
LLC WRITE        ACCESS:     680289 HIT:     609206 MISS:      71083
LLC TRANSLATION  ACCESS:       6854 HIT:       1583 MISS:       5271
LLC PREFETCH REQUESTED:          0 ISSUED:          0 USEFUL:          0 USELESS:          0
LLC AVERAGE MISS LATENCY: 1889 cycles
LLC TOTAL        ACCESS:    3781848 HIT:    2512791 MISS:    1269057
LLC LOAD         ACCESS:    1476626 HIT:    1209904 MISS:     266722
LLC RFO          ACCESS:     986926 HIT:      74375 MISS:     912551
LLC PREFETCH     ACCESS:          0 HIT:          0 MISS:          0
LLC WRITE        ACCESS:    1182047 HIT:    1146341 MISS:      35706
LLC TRANSLATION  ACCESS:     136249 HIT:      82171 MISS:      54078
LLC PREFETCH REQUESTED:          0 ISSUED:          0 USEFUL:          0 USELESS:          0
LLC AVERAGE MISS LATENCY: 1889 cycles
LLC TOTAL        ACCESS:    8467830 HIT:    4196267 MISS:    4271563
LLC LOAD         ACCESS:     565501 HIT:     155359 MISS:     410142
LLC RFO          ACCESS:    3911338 HIT:      92899 MISS:    3818439
LLC PREFETCH     ACCESS:          0 HIT:          0 MISS:          0
LLC WRITE        ACCESS:    3977621 HIT:    3946771 MISS:      30850
LLC TRANSLATION  ACCESS:      13370 HIT:       1238 MISS:      12132
LLC PREFETCH REQUESTED:          0 ISSUED:          0 USEFUL:          0 USELESS:          0
LLC AVERAGE MISS LATENCY: 1889 cycles
cpu0_DTLB TOTAL        ACCESS:   38307632 HIT:   35011871 MISS:    3295761
cpu0_DTLB LOAD         ACCESS:   38307632 HIT:   35011871 MISS:    3295761
cpu0_DTLB RFO          ACCESS:          0 HIT:          0 MISS:          0
cpu0_DTLB PREFETCH     ACCESS:          0 HIT:          0 MISS:          0
cpu0_DTLB WRITE        ACCESS:          0 HIT:          0 MISS:          0
cpu0_DTLB TRANSLATION  ACCESS:          0 HIT:          0 MISS:          0
cpu0_DTLB PREFETCH REQUESTED:          0 ISSUED:          0 USEFUL:          0 USELESS:          0
cpu0_DTLB AVERAGE MISS LATENCY: 153.6 cycles
cpu0_DTLB TOTAL        ACCESS:          0 HIT:          0 MISS:          0
cpu0_DTLB LOAD         ACCESS:          0 HIT:          0 MISS:          0
cpu0_DTLB RFO          ACCESS:          0 HIT:          0 MISS:          0
cpu0_DTLB PREFETCH     ACCESS:          0 HIT:          0 MISS:          0
cpu0_DTLB WRITE        ACCESS:          0 HIT:          0 MISS:          0
cpu0_DTLB TRANSLATION  ACCESS:          0 HIT:          0 MISS:          0
cpu0_DTLB PREFETCH REQUESTED:          0 ISSUED:          0 USEFUL:          0 USELESS:          0
cpu0_DTLB AVERAGE MISS LATENCY: 153.6 cycles
cpu0_DTLB TOTAL        ACCESS:          0 HIT:          0 MISS:          0
cpu0_DTLB LOAD         ACCESS:          0 HIT:          0 MISS:          0
cpu0_DTLB RFO          ACCESS:          0 HIT:          0 MISS:          0
cpu0_DTLB PREFETCH     ACCESS:          0 HIT:          0 MISS:          0
cpu0_DTLB WRITE        ACCESS:          0 HIT:          0 MISS:          0
cpu0_DTLB TRANSLATION  ACCESS:          0 HIT:          0 MISS:          0
cpu0_DTLB PREFETCH REQUESTED:          0 ISSUED:          0 USEFUL:          0 USELESS:          0
cpu0_DTLB AVERAGE MISS LATENCY: 153.6 cycles
cpu0_DTLB TOTAL        ACCESS:          0 HIT:          0 MISS:          0
cpu0_DTLB LOAD         ACCESS:          0 HIT:          0 MISS:          0
cpu0_DTLB RFO          ACCESS:          0 HIT:          0 MISS:          0
cpu0_DTLB PREFETCH     ACCESS:          0 HIT:          0 MISS:          0
cpu0_DTLB WRITE        ACCESS:          0 HIT:          0 MISS:          0
cpu0_DTLB TRANSLATION  ACCESS:          0 HIT:          0 MISS:          0
cpu0_DTLB PREFETCH REQUESTED:          0 ISSUED:          0 USEFUL:          0 USELESS:          0
cpu0_DTLB AVERAGE MISS LATENCY: 153.6 cycles
cpu0_ITLB TOTAL        ACCESS:   10787308 HIT:   10514746 MISS:     272562
cpu0_ITLB LOAD         ACCESS:   10787308 HIT:   10514746 MISS:     272562
cpu0_ITLB RFO          ACCESS:          0 HIT:          0 MISS:          0
cpu0_ITLB PREFETCH     ACCESS:          0 HIT:          0 MISS:          0
cpu0_ITLB WRITE        ACCESS:          0 HIT:          0 MISS:          0
cpu0_ITLB TRANSLATION  ACCESS:          0 HIT:          0 MISS:          0
cpu0_ITLB PREFETCH REQUESTED:          0 ISSUED:          0 USEFUL:          0 USELESS:          0
cpu0_ITLB AVERAGE MISS LATENCY: 11.15 cycles
cpu0_ITLB TOTAL        ACCESS:          0 HIT:          0 MISS:          0
cpu0_ITLB LOAD         ACCESS:          0 HIT:          0 MISS:          0
cpu0_ITLB RFO          ACCESS:          0 HIT:          0 MISS:          0
cpu0_ITLB PREFETCH     ACCESS:          0 HIT:          0 MISS:          0
cpu0_ITLB WRITE        ACCESS:          0 HIT:          0 MISS:          0
cpu0_ITLB TRANSLATION  ACCESS:          0 HIT:          0 MISS:          0
cpu0_ITLB PREFETCH REQUESTED:          0 ISSUED:          0 USEFUL:          0 USELESS:          0
cpu0_ITLB AVERAGE MISS LATENCY: 11.15 cycles
cpu0_ITLB TOTAL        ACCESS:          0 HIT:          0 MISS:          0
cpu0_ITLB LOAD         ACCESS:          0 HIT:          0 MISS:          0
cpu0_ITLB RFO          ACCESS:          0 HIT:          0 MISS:          0
cpu0_ITLB PREFETCH     ACCESS:          0 HIT:          0 MISS:          0
cpu0_ITLB WRITE        ACCESS:          0 HIT:          0 MISS:          0
cpu0_ITLB TRANSLATION  ACCESS:          0 HIT:          0 MISS:          0
cpu0_ITLB PREFETCH REQUESTED:          0 ISSUED:          0 USEFUL:          0 USELESS:          0
cpu0_ITLB AVERAGE MISS LATENCY: 11.15 cycles
cpu0_ITLB TOTAL        ACCESS:          0 HIT:          0 MISS:          0
cpu0_ITLB LOAD         ACCESS:          0 HIT:          0 MISS:          0
cpu0_ITLB RFO          ACCESS:          0 HIT:          0 MISS:          0
cpu0_ITLB PREFETCH     ACCESS:          0 HIT:          0 MISS:          0
cpu0_ITLB WRITE        ACCESS:          0 HIT:          0 MISS:          0
cpu0_ITLB TRANSLATION  ACCESS:          0 HIT:          0 MISS:          0
cpu0_ITLB PREFETCH REQUESTED:          0 ISSUED:          0 USEFUL:          0 USELESS:          0
cpu0_ITLB AVERAGE MISS LATENCY: 11.15 cycles
cpu0_L1D TOTAL        ACCESS:   49834656 HIT:   44936785 MISS:    4897871
cpu0_L1D LOAD         ACCESS:   22966710 HIT:   19904365 MISS:    3062345
cpu0_L1D RFO          ACCESS:          0 HIT:          0 MISS:          0
cpu0_L1D PREFETCH     ACCESS:          0 HIT:          0 MISS:          0
cpu0_L1D WRITE        ACCESS:   25976784 HIT:   24887243 MISS:    1089541
cpu0_L1D TRANSLATION  ACCESS:     891162 HIT:     145177 MISS:     745985
cpu0_L1D PREFETCH REQUESTED:          0 ISSUED:          0 USEFUL:          0 USELESS:          0
cpu0_L1D AVERAGE MISS LATENCY: 384.9 cycles
cpu0_L1D TOTAL        ACCESS:          0 HIT:          0 MISS:          0
cpu0_L1D LOAD         ACCESS:          0 HIT:          0 MISS:          0
cpu0_L1D RFO          ACCESS:          0 HIT:          0 MISS:          0
cpu0_L1D PREFETCH     ACCESS:          0 HIT:          0 MISS:          0
cpu0_L1D WRITE        ACCESS:          0 HIT:          0 MISS:          0
cpu0_L1D TRANSLATION  ACCESS:          0 HIT:          0 MISS:          0
cpu0_L1D PREFETCH REQUESTED:          0 ISSUED:          0 USEFUL:          0 USELESS:          0
cpu0_L1D AVERAGE MISS LATENCY: 384.9 cycles
cpu0_L1D TOTAL        ACCESS:          0 HIT:          0 MISS:          0
cpu0_L1D LOAD         ACCESS:          0 HIT:          0 MISS:          0
cpu0_L1D RFO          ACCESS:          0 HIT:          0 MISS:          0
cpu0_L1D PREFETCH     ACCESS:          0 HIT:          0 MISS:          0
cpu0_L1D WRITE        ACCESS:          0 HIT:          0 MISS:          0
cpu0_L1D TRANSLATION  ACCESS:          0 HIT:          0 MISS:          0
cpu0_L1D PREFETCH REQUESTED:          0 ISSUED:          0 USEFUL:          0 USELESS:          0
cpu0_L1D AVERAGE MISS LATENCY: 384.9 cycles
cpu0_L1D TOTAL        ACCESS:          0 HIT:          0 MISS:          0
cpu0_L1D LOAD         ACCESS:          0 HIT:          0 MISS:          0
cpu0_L1D RFO          ACCESS:          0 HIT:          0 MISS:          0
cpu0_L1D PREFETCH     ACCESS:          0 HIT:          0 MISS:          0
cpu0_L1D WRITE        ACCESS:          0 HIT:          0 MISS:          0
cpu0_L1D TRANSLATION  ACCESS:          0 HIT:          0 MISS:          0
cpu0_L1D PREFETCH REQUESTED:          0 ISSUED:          0 USEFUL:          0 USELESS:          0
cpu0_L1D AVERAGE MISS LATENCY: 384.9 cycles
cpu0_L1I TOTAL        ACCESS:   12870421 HIT:   12796385 MISS:      74036
cpu0_L1I LOAD         ACCESS:   12870421 HIT:   12796385 MISS:      74036
cpu0_L1I RFO          ACCESS:          0 HIT:          0 MISS:          0
cpu0_L1I PREFETCH     ACCESS:          0 HIT:          0 MISS:          0
cpu0_L1I WRITE        ACCESS:          0 HIT:          0 MISS:          0
cpu0_L1I TRANSLATION  ACCESS:          0 HIT:          0 MISS:          0
cpu0_L1I PREFETCH REQUESTED:          0 ISSUED:          0 USEFUL:          0 USELESS:          0
cpu0_L1I AVERAGE MISS LATENCY: 63.21 cycles
cpu0_L1I TOTAL        ACCESS:          0 HIT:          0 MISS:          0
cpu0_L1I LOAD         ACCESS:          0 HIT:          0 MISS:          0
cpu0_L1I RFO          ACCESS:          0 HIT:          0 MISS:          0
cpu0_L1I PREFETCH     ACCESS:          0 HIT:          0 MISS:          0
cpu0_L1I WRITE        ACCESS:          0 HIT:          0 MISS:          0
cpu0_L1I TRANSLATION  ACCESS:          0 HIT:          0 MISS:          0
cpu0_L1I PREFETCH REQUESTED:          0 ISSUED:          0 USEFUL:          0 USELESS:          0
cpu0_L1I AVERAGE MISS LATENCY: 63.21 cycles
cpu0_L1I TOTAL        ACCESS:          0 HIT:          0 MISS:          0
cpu0_L1I LOAD         ACCESS:          0 HIT:          0 MISS:          0
cpu0_L1I RFO          ACCESS:          0 HIT:          0 MISS:          0
cpu0_L1I PREFETCH     ACCESS:          0 HIT:          0 MISS:          0
cpu0_L1I WRITE        ACCESS:          0 HIT:          0 MISS:          0
cpu0_L1I TRANSLATION  ACCESS:          0 HIT:          0 MISS:          0
cpu0_L1I PREFETCH REQUESTED:          0 ISSUED:          0 USEFUL:          0 USELESS:          0
cpu0_L1I AVERAGE MISS LATENCY: 63.21 cycles
cpu0_L1I TOTAL        ACCESS:          0 HIT:          0 MISS:          0
cpu0_L1I LOAD         ACCESS:          0 HIT:          0 MISS:          0
cpu0_L1I RFO          ACCESS:          0 HIT:          0 MISS:          0
cpu0_L1I PREFETCH     ACCESS:          0 HIT:          0 MISS:          0
cpu0_L1I WRITE        ACCESS:          0 HIT:          0 MISS:          0
cpu0_L1I TRANSLATION  ACCESS:          0 HIT:          0 MISS:          0
cpu0_L1I PREFETCH REQUESTED:          0 ISSUED:          0 USEFUL:          0 USELESS:          0
cpu0_L1I AVERAGE MISS LATENCY: 63.21 cycles
cpu0_L2C TOTAL        ACCESS:    5050342 HIT:    2504932 MISS:    2545410
cpu0_L2C LOAD         ACCESS:    2539624 HIT:     850548 MISS:    1689076
cpu0_L2C RFO          ACCESS:     365291 HIT:     107585 MISS:     257706
cpu0_L2C PREFETCH     ACCESS:          0 HIT:          0 MISS:          0
cpu0_L2C WRITE        ACCESS:    1400236 HIT:    1397783 MISS:       2453
cpu0_L2C TRANSLATION  ACCESS:     745191 HIT:     149016 MISS:     596175
cpu0_L2C PREFETCH REQUESTED:          0 ISSUED:          0 USEFUL:          0 USELESS:          0
cpu0_L2C AVERAGE MISS LATENCY: 743.3 cycles
cpu0_L2C TOTAL        ACCESS:          0 HIT:          0 MISS:          0
cpu0_L2C LOAD         ACCESS:          0 HIT:          0 MISS:          0
cpu0_L2C RFO          ACCESS:          0 HIT:          0 MISS:          0
cpu0_L2C PREFETCH     ACCESS:          0 HIT:          0 MISS:          0
cpu0_L2C WRITE        ACCESS:          0 HIT:          0 MISS:          0
cpu0_L2C TRANSLATION  ACCESS:          0 HIT:          0 MISS:          0
cpu0_L2C PREFETCH REQUESTED:          0 ISSUED:          0 USEFUL:          0 USELESS:          0
cpu0_L2C AVERAGE MISS LATENCY: 743.3 cycles
cpu0_L2C TOTAL        ACCESS:          0 HIT:          0 MISS:          0
cpu0_L2C LOAD         ACCESS:          0 HIT:          0 MISS:          0
cpu0_L2C RFO          ACCESS:          0 HIT:          0 MISS:          0
cpu0_L2C PREFETCH     ACCESS:          0 HIT:          0 MISS:          0
cpu0_L2C WRITE        ACCESS:          0 HIT:          0 MISS:          0
cpu0_L2C TRANSLATION  ACCESS:          0 HIT:          0 MISS:          0
cpu0_L2C PREFETCH REQUESTED:          0 ISSUED:          0 USEFUL:          0 USELESS:          0
cpu0_L2C AVERAGE MISS LATENCY: 743.3 cycles
cpu0_L2C TOTAL        ACCESS:          0 HIT:          0 MISS:          0
cpu0_L2C LOAD         ACCESS:          0 HIT:          0 MISS:          0
cpu0_L2C RFO          ACCESS:          0 HIT:          0 MISS:          0
cpu0_L2C PREFETCH     ACCESS:          0 HIT:          0 MISS:          0
cpu0_L2C WRITE        ACCESS:          0 HIT:          0 MISS:          0
cpu0_L2C TRANSLATION  ACCESS:          0 HIT:          0 MISS:          0
cpu0_L2C PREFETCH REQUESTED:          0 ISSUED:          0 USEFUL:          0 USELESS:          0
cpu0_L2C AVERAGE MISS LATENCY: 743.3 cycles
cpu0_STLB TOTAL        ACCESS:    3014466 HIT:    2372036 MISS:     642430
cpu0_STLB LOAD         ACCESS:    3014466 HIT:    2372036 MISS:     642430
cpu0_STLB RFO          ACCESS:          0 HIT:          0 MISS:          0
cpu0_STLB PREFETCH     ACCESS:          0 HIT:          0 MISS:          0
cpu0_STLB WRITE        ACCESS:          0 HIT:          0 MISS:          0
cpu0_STLB TRANSLATION  ACCESS:          0 HIT:          0 MISS:          0
cpu0_STLB PREFETCH REQUESTED:          0 ISSUED:          0 USEFUL:          0 USELESS:          0
cpu0_STLB AVERAGE MISS LATENCY: 775.4 cycles
cpu0_STLB TOTAL        ACCESS:          0 HIT:          0 MISS:          0
cpu0_STLB LOAD         ACCESS:          0 HIT:          0 MISS:          0
cpu0_STLB RFO          ACCESS:          0 HIT:          0 MISS:          0
cpu0_STLB PREFETCH     ACCESS:          0 HIT:          0 MISS:          0
cpu0_STLB WRITE        ACCESS:          0 HIT:          0 MISS:          0
cpu0_STLB TRANSLATION  ACCESS:          0 HIT:          0 MISS:          0
cpu0_STLB PREFETCH REQUESTED:          0 ISSUED:          0 USEFUL:          0 USELESS:          0
cpu0_STLB AVERAGE MISS LATENCY: 775.4 cycles
cpu0_STLB TOTAL        ACCESS:          0 HIT:          0 MISS:          0
cpu0_STLB LOAD         ACCESS:          0 HIT:          0 MISS:          0
cpu0_STLB RFO          ACCESS:          0 HIT:          0 MISS:          0
cpu0_STLB PREFETCH     ACCESS:          0 HIT:          0 MISS:          0
cpu0_STLB WRITE        ACCESS:          0 HIT:          0 MISS:          0
cpu0_STLB TRANSLATION  ACCESS:          0 HIT:          0 MISS:          0
cpu0_STLB PREFETCH REQUESTED:          0 ISSUED:          0 USEFUL:          0 USELESS:          0
cpu0_STLB AVERAGE MISS LATENCY: 775.4 cycles
cpu0_STLB TOTAL        ACCESS:          0 HIT:          0 MISS:          0
cpu0_STLB LOAD         ACCESS:          0 HIT:          0 MISS:          0
cpu0_STLB RFO          ACCESS:          0 HIT:          0 MISS:          0
cpu0_STLB PREFETCH     ACCESS:          0 HIT:          0 MISS:          0
cpu0_STLB WRITE        ACCESS:          0 HIT:          0 MISS:          0
cpu0_STLB TRANSLATION  ACCESS:          0 HIT:          0 MISS:          0
cpu0_STLB PREFETCH REQUESTED:          0 ISSUED:          0 USEFUL:          0 USELESS:          0
cpu0_STLB AVERAGE MISS LATENCY: 775.4 cycles
cpu1_DTLB TOTAL        ACCESS:          0 HIT:          0 MISS:          0
cpu1_DTLB LOAD         ACCESS:          0 HIT:          0 MISS:          0
cpu1_DTLB RFO          ACCESS:          0 HIT:          0 MISS:          0
cpu1_DTLB PREFETCH     ACCESS:          0 HIT:          0 MISS:          0
cpu1_DTLB WRITE        ACCESS:          0 HIT:          0 MISS:          0
cpu1_DTLB TRANSLATION  ACCESS:          0 HIT:          0 MISS:          0
cpu1_DTLB PREFETCH REQUESTED:          0 ISSUED:          0 USEFUL:          0 USELESS:          0
cpu1_DTLB AVERAGE MISS LATENCY: 36.17 cycles
cpu1_DTLB TOTAL        ACCESS:  119053992 HIT:  118869104 MISS:     184888
cpu1_DTLB LOAD         ACCESS:  119053992 HIT:  118869104 MISS:     184888
cpu1_DTLB RFO          ACCESS:          0 HIT:          0 MISS:          0
cpu1_DTLB PREFETCH     ACCESS:          0 HIT:          0 MISS:          0
cpu1_DTLB WRITE        ACCESS:          0 HIT:          0 MISS:          0
cpu1_DTLB TRANSLATION  ACCESS:          0 HIT:          0 MISS:          0
cpu1_DTLB PREFETCH REQUESTED:          0 ISSUED:          0 USEFUL:          0 USELESS:          0
cpu1_DTLB AVERAGE MISS LATENCY: 36.17 cycles
cpu1_DTLB TOTAL        ACCESS:          0 HIT:          0 MISS:          0
cpu1_DTLB LOAD         ACCESS:          0 HIT:          0 MISS:          0
cpu1_DTLB RFO          ACCESS:          0 HIT:          0 MISS:          0
cpu1_DTLB PREFETCH     ACCESS:          0 HIT:          0 MISS:          0
cpu1_DTLB WRITE        ACCESS:          0 HIT:          0 MISS:          0
cpu1_DTLB TRANSLATION  ACCESS:          0 HIT:          0 MISS:          0
cpu1_DTLB PREFETCH REQUESTED:          0 ISSUED:          0 USEFUL:          0 USELESS:          0
cpu1_DTLB AVERAGE MISS LATENCY: 36.17 cycles
cpu1_DTLB TOTAL        ACCESS:          0 HIT:          0 MISS:          0
cpu1_DTLB LOAD         ACCESS:          0 HIT:          0 MISS:          0
cpu1_DTLB RFO          ACCESS:          0 HIT:          0 MISS:          0
cpu1_DTLB PREFETCH     ACCESS:          0 HIT:          0 MISS:          0
cpu1_DTLB WRITE        ACCESS:          0 HIT:          0 MISS:          0
cpu1_DTLB TRANSLATION  ACCESS:          0 HIT:          0 MISS:          0
cpu1_DTLB PREFETCH REQUESTED:          0 ISSUED:          0 USEFUL:          0 USELESS:          0
cpu1_DTLB AVERAGE MISS LATENCY: 36.17 cycles
cpu1_ITLB TOTAL        ACCESS:          0 HIT:          0 MISS:          0
cpu1_ITLB LOAD         ACCESS:          0 HIT:          0 MISS:          0
cpu1_ITLB RFO          ACCESS:          0 HIT:          0 MISS:          0
cpu1_ITLB PREFETCH     ACCESS:          0 HIT:          0 MISS:          0
cpu1_ITLB WRITE        ACCESS:          0 HIT:          0 MISS:          0
cpu1_ITLB TRANSLATION  ACCESS:          0 HIT:          0 MISS:          0
cpu1_ITLB PREFETCH REQUESTED:          0 ISSUED:          0 USEFUL:          0 USELESS:          0
cpu1_ITLB AVERAGE MISS LATENCY: 1115 cycles
cpu1_ITLB TOTAL        ACCESS:    3788163 HIT:    3788154 MISS:          9
cpu1_ITLB LOAD         ACCESS:    3788163 HIT:    3788154 MISS:          9
cpu1_ITLB RFO          ACCESS:          0 HIT:          0 MISS:          0
cpu1_ITLB PREFETCH     ACCESS:          0 HIT:          0 MISS:          0
cpu1_ITLB WRITE        ACCESS:          0 HIT:          0 MISS:          0
cpu1_ITLB TRANSLATION  ACCESS:          0 HIT:          0 MISS:          0
cpu1_ITLB PREFETCH REQUESTED:          0 ISSUED:          0 USEFUL:          0 USELESS:          0
cpu1_ITLB AVERAGE MISS LATENCY: 1115 cycles
cpu1_ITLB TOTAL        ACCESS:          0 HIT:          0 MISS:          0
cpu1_ITLB LOAD         ACCESS:          0 HIT:          0 MISS:          0
cpu1_ITLB RFO          ACCESS:          0 HIT:          0 MISS:          0
cpu1_ITLB PREFETCH     ACCESS:          0 HIT:          0 MISS:          0
cpu1_ITLB WRITE        ACCESS:          0 HIT:          0 MISS:          0
cpu1_ITLB TRANSLATION  ACCESS:          0 HIT:          0 MISS:          0
cpu1_ITLB PREFETCH REQUESTED:          0 ISSUED:          0 USEFUL:          0 USELESS:          0
cpu1_ITLB AVERAGE MISS LATENCY: 1115 cycles
cpu1_ITLB TOTAL        ACCESS:          0 HIT:          0 MISS:          0
cpu1_ITLB LOAD         ACCESS:          0 HIT:          0 MISS:          0
cpu1_ITLB RFO          ACCESS:          0 HIT:          0 MISS:          0
cpu1_ITLB PREFETCH     ACCESS:          0 HIT:          0 MISS:          0
cpu1_ITLB WRITE        ACCESS:          0 HIT:          0 MISS:          0
cpu1_ITLB TRANSLATION  ACCESS:          0 HIT:          0 MISS:          0
cpu1_ITLB PREFETCH REQUESTED:          0 ISSUED:          0 USEFUL:          0 USELESS:          0
cpu1_ITLB AVERAGE MISS LATENCY: 1115 cycles
cpu1_L1D TOTAL        ACCESS:          0 HIT:          0 MISS:          0
cpu1_L1D LOAD         ACCESS:          0 HIT:          0 MISS:          0
cpu1_L1D RFO          ACCESS:          0 HIT:          0 MISS:          0
cpu1_L1D PREFETCH     ACCESS:          0 HIT:          0 MISS:          0
cpu1_L1D WRITE        ACCESS:          0 HIT:          0 MISS:          0
cpu1_L1D TRANSLATION  ACCESS:          0 HIT:          0 MISS:          0
cpu1_L1D PREFETCH REQUESTED:          0 ISSUED:          0 USEFUL:          0 USELESS:          0
cpu1_L1D AVERAGE MISS LATENCY: 361.4 cycles
cpu1_L1D TOTAL        ACCESS:  158919015 HIT:  152929522 MISS:    5989493
cpu1_L1D LOAD         ACCESS:   85152484 HIT:   83240324 MISS:    1912160
cpu1_L1D RFO          ACCESS:          0 HIT:          0 MISS:          0
cpu1_L1D PREFETCH     ACCESS:          0 HIT:          0 MISS:          0
cpu1_L1D WRITE        ACCESS:   73732544 HIT:   69662173 MISS:    4070371
cpu1_L1D TRANSLATION  ACCESS:      33987 HIT:      27025 MISS:       6962
cpu1_L1D PREFETCH REQUESTED:          0 ISSUED:          0 USEFUL:          0 USELESS:          0
cpu1_L1D AVERAGE MISS LATENCY: 361.4 cycles
cpu1_L1D TOTAL        ACCESS:          0 HIT:          0 MISS:          0
cpu1_L1D LOAD         ACCESS:          0 HIT:          0 MISS:          0
cpu1_L1D RFO          ACCESS:          0 HIT:          0 MISS:          0
cpu1_L1D PREFETCH     ACCESS:          0 HIT:          0 MISS:          0
cpu1_L1D WRITE        ACCESS:          0 HIT:          0 MISS:          0
cpu1_L1D TRANSLATION  ACCESS:          0 HIT:          0 MISS:          0
cpu1_L1D PREFETCH REQUESTED:          0 ISSUED:          0 USEFUL:          0 USELESS:          0
cpu1_L1D AVERAGE MISS LATENCY: 361.4 cycles
cpu1_L1D TOTAL        ACCESS:          0 HIT:          0 MISS:          0
cpu1_L1D LOAD         ACCESS:          0 HIT:          0 MISS:          0
cpu1_L1D RFO          ACCESS:          0 HIT:          0 MISS:          0
cpu1_L1D PREFETCH     ACCESS:          0 HIT:          0 MISS:          0
cpu1_L1D WRITE        ACCESS:          0 HIT:          0 MISS:          0
cpu1_L1D TRANSLATION  ACCESS:          0 HIT:          0 MISS:          0
cpu1_L1D PREFETCH REQUESTED:          0 ISSUED:          0 USEFUL:          0 USELESS:          0
cpu1_L1D AVERAGE MISS LATENCY: 361.4 cycles
cpu1_L1I TOTAL        ACCESS:          0 HIT:          0 MISS:          0
cpu1_L1I LOAD         ACCESS:          0 HIT:          0 MISS:          0
cpu1_L1I RFO          ACCESS:          0 HIT:          0 MISS:          0
cpu1_L1I PREFETCH     ACCESS:          0 HIT:          0 MISS:          0
cpu1_L1I WRITE        ACCESS:          0 HIT:          0 MISS:          0
cpu1_L1I TRANSLATION  ACCESS:          0 HIT:          0 MISS:          0
cpu1_L1I PREFETCH REQUESTED:          0 ISSUED:          0 USEFUL:          0 USELESS:          0
cpu1_L1I AVERAGE MISS LATENCY: 1324 cycles
cpu1_L1I TOTAL        ACCESS:    4626856 HIT:    4626776 MISS:         80
cpu1_L1I LOAD         ACCESS:    4626856 HIT:    4626776 MISS:         80
cpu1_L1I RFO          ACCESS:          0 HIT:          0 MISS:          0
cpu1_L1I PREFETCH     ACCESS:          0 HIT:          0 MISS:          0
cpu1_L1I WRITE        ACCESS:          0 HIT:          0 MISS:          0
cpu1_L1I TRANSLATION  ACCESS:          0 HIT:          0 MISS:          0
cpu1_L1I PREFETCH REQUESTED:          0 ISSUED:          0 USEFUL:          0 USELESS:          0
cpu1_L1I AVERAGE MISS LATENCY: 1324 cycles
cpu1_L1I TOTAL        ACCESS:          0 HIT:          0 MISS:          0
cpu1_L1I LOAD         ACCESS:          0 HIT:          0 MISS:          0
cpu1_L1I RFO          ACCESS:          0 HIT:          0 MISS:          0
cpu1_L1I PREFETCH     ACCESS:          0 HIT:          0 MISS:          0
cpu1_L1I WRITE        ACCESS:          0 HIT:          0 MISS:          0
cpu1_L1I TRANSLATION  ACCESS:          0 HIT:          0 MISS:          0
cpu1_L1I PREFETCH REQUESTED:          0 ISSUED:          0 USEFUL:          0 USELESS:          0
cpu1_L1I AVERAGE MISS LATENCY: 1324 cycles
cpu1_L1I TOTAL        ACCESS:          0 HIT:          0 MISS:          0
cpu1_L1I LOAD         ACCESS:          0 HIT:          0 MISS:          0
cpu1_L1I RFO          ACCESS:          0 HIT:          0 MISS:          0
cpu1_L1I PREFETCH     ACCESS:          0 HIT:          0 MISS:          0
cpu1_L1I WRITE        ACCESS:          0 HIT:          0 MISS:          0
cpu1_L1I TRANSLATION  ACCESS:          0 HIT:          0 MISS:          0
cpu1_L1I PREFETCH REQUESTED:          0 ISSUED:          0 USEFUL:          0 USELESS:          0
cpu1_L1I AVERAGE MISS LATENCY: 1324 cycles
cpu1_L2C TOTAL        ACCESS:          0 HIT:          0 MISS:          0
cpu1_L2C LOAD         ACCESS:          0 HIT:          0 MISS:          0
cpu1_L2C RFO          ACCESS:          0 HIT:          0 MISS:          0
cpu1_L2C PREFETCH     ACCESS:          0 HIT:          0 MISS:          0
cpu1_L2C WRITE        ACCESS:          0 HIT:          0 MISS:          0
cpu1_L2C TRANSLATION  ACCESS:          0 HIT:          0 MISS:          0
cpu1_L2C PREFETCH REQUESTED:          0 ISSUED:          0 USEFUL:          0 USELESS:          0
cpu1_L2C AVERAGE MISS LATENCY: 1409 cycles
cpu1_L2C TOTAL        ACCESS:    2388040 HIT:     682192 MISS:    1705848
cpu1_L2C LOAD         ACCESS:    1018372 HIT:        255 MISS:    1018117
cpu1_L2C RFO          ACCESS:     681217 HIT:       1745 MISS:     679472
cpu1_L2C PREFETCH     ACCESS:          0 HIT:          0 MISS:          0
cpu1_L2C WRITE        ACCESS:     681489 HIT:     680084 MISS:       1405
cpu1_L2C TRANSLATION  ACCESS:       6962 HIT:        108 MISS:       6854
cpu1_L2C PREFETCH REQUESTED:          0 ISSUED:          0 USEFUL:          0 USELESS:          0
cpu1_L2C AVERAGE MISS LATENCY: 1409 cycles
cpu1_L2C TOTAL        ACCESS:          0 HIT:          0 MISS:          0
cpu1_L2C LOAD         ACCESS:          0 HIT:          0 MISS:          0
cpu1_L2C RFO          ACCESS:          0 HIT:          0 MISS:          0
cpu1_L2C PREFETCH     ACCESS:          0 HIT:          0 MISS:          0
cpu1_L2C WRITE        ACCESS:          0 HIT:          0 MISS:          0
cpu1_L2C TRANSLATION  ACCESS:          0 HIT:          0 MISS:          0
cpu1_L2C PREFETCH REQUESTED:          0 ISSUED:          0 USEFUL:          0 USELESS:          0
cpu1_L2C AVERAGE MISS LATENCY: 1409 cycles
cpu1_L2C TOTAL        ACCESS:          0 HIT:          0 MISS:          0
cpu1_L2C LOAD         ACCESS:          0 HIT:          0 MISS:          0
cpu1_L2C RFO          ACCESS:          0 HIT:          0 MISS:          0
cpu1_L2C PREFETCH     ACCESS:          0 HIT:          0 MISS:          0
cpu1_L2C WRITE        ACCESS:          0 HIT:          0 MISS:          0
cpu1_L2C TRANSLATION  ACCESS:          0 HIT:          0 MISS:          0
cpu1_L2C PREFETCH REQUESTED:          0 ISSUED:          0 USEFUL:          0 USELESS:          0
cpu1_L2C AVERAGE MISS LATENCY: 1409 cycles
cpu1_STLB TOTAL        ACCESS:          0 HIT:          0 MISS:          0
cpu1_STLB LOAD         ACCESS:          0 HIT:          0 MISS:          0
cpu1_STLB RFO          ACCESS:          0 HIT:          0 MISS:          0
cpu1_STLB PREFETCH     ACCESS:          0 HIT:          0 MISS:          0
cpu1_STLB WRITE        ACCESS:          0 HIT:          0 MISS:          0
cpu1_STLB TRANSLATION  ACCESS:          0 HIT:          0 MISS:          0
cpu1_STLB PREFETCH REQUESTED:          0 ISSUED:          0 USEFUL:          0 USELESS:          0
cpu1_STLB AVERAGE MISS LATENCY: 336.1 cycles
cpu1_STLB TOTAL        ACCESS:      37244 HIT:       3305 MISS:      33939
cpu1_STLB LOAD         ACCESS:      37244 HIT:       3305 MISS:      33939
cpu1_STLB RFO          ACCESS:          0 HIT:          0 MISS:          0
cpu1_STLB PREFETCH     ACCESS:          0 HIT:          0 MISS:          0
cpu1_STLB WRITE        ACCESS:          0 HIT:          0 MISS:          0
cpu1_STLB TRANSLATION  ACCESS:          0 HIT:          0 MISS:          0
cpu1_STLB PREFETCH REQUESTED:          0 ISSUED:          0 USEFUL:          0 USELESS:          0
cpu1_STLB AVERAGE MISS LATENCY: 336.1 cycles
cpu1_STLB TOTAL        ACCESS:          0 HIT:          0 MISS:          0
cpu1_STLB LOAD         ACCESS:          0 HIT:          0 MISS:          0
cpu1_STLB RFO          ACCESS:          0 HIT:          0 MISS:          0
cpu1_STLB PREFETCH     ACCESS:          0 HIT:          0 MISS:          0
cpu1_STLB WRITE        ACCESS:          0 HIT:          0 MISS:          0
cpu1_STLB TRANSLATION  ACCESS:          0 HIT:          0 MISS:          0
cpu1_STLB PREFETCH REQUESTED:          0 ISSUED:          0 USEFUL:          0 USELESS:          0
cpu1_STLB AVERAGE MISS LATENCY: 336.1 cycles
cpu1_STLB TOTAL        ACCESS:          0 HIT:          0 MISS:          0
cpu1_STLB LOAD         ACCESS:          0 HIT:          0 MISS:          0
cpu1_STLB RFO          ACCESS:          0 HIT:          0 MISS:          0
cpu1_STLB PREFETCH     ACCESS:          0 HIT:          0 MISS:          0
cpu1_STLB WRITE        ACCESS:          0 HIT:          0 MISS:          0
cpu1_STLB TRANSLATION  ACCESS:          0 HIT:          0 MISS:          0
cpu1_STLB PREFETCH REQUESTED:          0 ISSUED:          0 USEFUL:          0 USELESS:          0
cpu1_STLB AVERAGE MISS LATENCY: 336.1 cycles
cpu2_DTLB TOTAL        ACCESS:          0 HIT:          0 MISS:          0
cpu2_DTLB LOAD         ACCESS:          0 HIT:          0 MISS:          0
cpu2_DTLB RFO          ACCESS:          0 HIT:          0 MISS:          0
cpu2_DTLB PREFETCH     ACCESS:          0 HIT:          0 MISS:          0
cpu2_DTLB WRITE        ACCESS:          0 HIT:          0 MISS:          0
cpu2_DTLB TRANSLATION  ACCESS:          0 HIT:          0 MISS:          0
cpu2_DTLB PREFETCH REQUESTED:          0 ISSUED:          0 USEFUL:          0 USELESS:          0
cpu2_DTLB AVERAGE MISS LATENCY: 8.405 cycles
cpu2_DTLB TOTAL        ACCESS:          0 HIT:          0 MISS:          0
cpu2_DTLB LOAD         ACCESS:          0 HIT:          0 MISS:          0
cpu2_DTLB RFO          ACCESS:          0 HIT:          0 MISS:          0
cpu2_DTLB PREFETCH     ACCESS:          0 HIT:          0 MISS:          0
cpu2_DTLB WRITE        ACCESS:          0 HIT:          0 MISS:          0
cpu2_DTLB TRANSLATION  ACCESS:          0 HIT:          0 MISS:          0
cpu2_DTLB PREFETCH REQUESTED:          0 ISSUED:          0 USEFUL:          0 USELESS:          0
cpu2_DTLB AVERAGE MISS LATENCY: 8.405 cycles
cpu2_DTLB TOTAL        ACCESS:  154465483 HIT:  126031252 MISS:   28434231
cpu2_DTLB LOAD         ACCESS:  154465483 HIT:  126031252 MISS:   28434231
cpu2_DTLB RFO          ACCESS:          0 HIT:          0 MISS:          0
cpu2_DTLB PREFETCH     ACCESS:          0 HIT:          0 MISS:          0
cpu2_DTLB WRITE        ACCESS:          0 HIT:          0 MISS:          0
cpu2_DTLB TRANSLATION  ACCESS:          0 HIT:          0 MISS:          0
cpu2_DTLB PREFETCH REQUESTED:          0 ISSUED:          0 USEFUL:          0 USELESS:          0
cpu2_DTLB AVERAGE MISS LATENCY: 8.405 cycles
cpu2_DTLB TOTAL        ACCESS:          0 HIT:          0 MISS:          0
cpu2_DTLB LOAD         ACCESS:          0 HIT:          0 MISS:          0
cpu2_DTLB RFO          ACCESS:          0 HIT:          0 MISS:          0
cpu2_DTLB PREFETCH     ACCESS:          0 HIT:          0 MISS:          0
cpu2_DTLB WRITE        ACCESS:          0 HIT:          0 MISS:          0
cpu2_DTLB TRANSLATION  ACCESS:          0 HIT:          0 MISS:          0
cpu2_DTLB PREFETCH REQUESTED:          0 ISSUED:          0 USEFUL:          0 USELESS:          0
cpu2_DTLB AVERAGE MISS LATENCY: 8.405 cycles
cpu2_ITLB TOTAL        ACCESS:          0 HIT:          0 MISS:          0
cpu2_ITLB LOAD         ACCESS:          0 HIT:          0 MISS:          0
cpu2_ITLB RFO          ACCESS:          0 HIT:          0 MISS:          0
cpu2_ITLB PREFETCH     ACCESS:          0 HIT:          0 MISS:          0
cpu2_ITLB WRITE        ACCESS:          0 HIT:          0 MISS:          0
cpu2_ITLB TRANSLATION  ACCESS:          0 HIT:          0 MISS:          0
cpu2_ITLB PREFETCH REQUESTED:          0 ISSUED:          0 USEFUL:          0 USELESS:          0
cpu2_ITLB AVERAGE MISS LATENCY: 6.907 cycles
cpu2_ITLB TOTAL        ACCESS:          0 HIT:          0 MISS:          0
cpu2_ITLB LOAD         ACCESS:          0 HIT:          0 MISS:          0
cpu2_ITLB RFO          ACCESS:          0 HIT:          0 MISS:          0
cpu2_ITLB PREFETCH     ACCESS:          0 HIT:          0 MISS:          0
cpu2_ITLB WRITE        ACCESS:          0 HIT:          0 MISS:          0
cpu2_ITLB TRANSLATION  ACCESS:          0 HIT:          0 MISS:          0
cpu2_ITLB PREFETCH REQUESTED:          0 ISSUED:          0 USEFUL:          0 USELESS:          0
cpu2_ITLB AVERAGE MISS LATENCY: 6.907 cycles
cpu2_ITLB TOTAL        ACCESS:   24412926 HIT:   23859131 MISS:     553795
cpu2_ITLB LOAD         ACCESS:   24412926 HIT:   23859131 MISS:     553795
cpu2_ITLB RFO          ACCESS:          0 HIT:          0 MISS:          0
cpu2_ITLB PREFETCH     ACCESS:          0 HIT:          0 MISS:          0
cpu2_ITLB WRITE        ACCESS:          0 HIT:          0 MISS:          0
cpu2_ITLB TRANSLATION  ACCESS:          0 HIT:          0 MISS:          0
cpu2_ITLB PREFETCH REQUESTED:          0 ISSUED:          0 USEFUL:          0 USELESS:          0
cpu2_ITLB AVERAGE MISS LATENCY: 6.907 cycles
cpu2_ITLB TOTAL        ACCESS:          0 HIT:          0 MISS:          0
cpu2_ITLB LOAD         ACCESS:          0 HIT:          0 MISS:          0
cpu2_ITLB RFO          ACCESS:          0 HIT:          0 MISS:          0
cpu2_ITLB PREFETCH     ACCESS:          0 HIT:          0 MISS:          0
cpu2_ITLB WRITE        ACCESS:          0 HIT:          0 MISS:          0
cpu2_ITLB TRANSLATION  ACCESS:          0 HIT:          0 MISS:          0
cpu2_ITLB PREFETCH REQUESTED:          0 ISSUED:          0 USEFUL:          0 USELESS:          0
cpu2_ITLB AVERAGE MISS LATENCY: 6.907 cycles
cpu2_L1D TOTAL        ACCESS:          0 HIT:          0 MISS:          0
cpu2_L1D LOAD         ACCESS:          0 HIT:          0 MISS:          0
cpu2_L1D RFO          ACCESS:          0 HIT:          0 MISS:          0
cpu2_L1D PREFETCH     ACCESS:          0 HIT:          0 MISS:          0
cpu2_L1D WRITE        ACCESS:          0 HIT:          0 MISS:          0
cpu2_L1D TRANSLATION  ACCESS:          0 HIT:          0 MISS:          0
cpu2_L1D PREFETCH REQUESTED:          0 ISSUED:          0 USEFUL:          0 USELESS:          0
cpu2_L1D AVERAGE MISS LATENCY: 52.53 cycles
cpu2_L1D TOTAL        ACCESS:          0 HIT:          0 MISS:          0
cpu2_L1D LOAD         ACCESS:          0 HIT:          0 MISS:          0
cpu2_L1D RFO          ACCESS:          0 HIT:          0 MISS:          0
[...]
cpu2_L1I WRITE        ACCESS:          0 HIT:          0 MISS:          0
cpu2_L1I TRANSLATION  ACCESS:          0 HIT:          0 MISS:          0
cpu2_L1I PREFETCH REQUESTED:          0 ISSUED:          0 USEFUL:          0 USELESS:          0
cpu2_L1I AVERAGE MISS LATENCY: 15.95 cycles
cpu2_L1I TOTAL        ACCESS:          0 HIT:          0 MISS:          0
cpu2_L1I LOAD         ACCESS:          0 HIT:          0 MISS:          0
cpu2_L1I RFO          ACCESS:          0 HIT:          0 MISS:          0
cpu2_L1I PREFETCH     ACCESS:          0 HIT:          0 MISS:          0
cpu2_L1I WRITE        ACCESS:          0 HIT:          0 MISS:          0
cpu2_L1I TRANSLATION  ACCESS:          0 HIT:          0 MISS:          0
cpu2_L1I PREFETCH REQUESTED:          0 ISSUED:          0 USEFUL:          0 USELESS:          0
cpu2_L1I AVERAGE MISS LATENCY: 15.95 cycles
cpu2_L2C TOTAL        ACCESS:          0 HIT:          0 MISS:          0
cpu2_L2C LOAD         ACCESS:          0 HIT:          0 MISS:          0
cpu2_L2C RFO          ACCESS:          0 HIT:          0 MISS:          0
cpu2_L2C PREFETCH     ACCESS:          0 HIT:          0 MISS:          0
cpu2_L2C WRITE        ACCESS:          0 HIT:          0 MISS:          0
cpu2_L2C TRANSLATION  ACCESS:          0 HIT:          0 MISS:          0
cpu2_L2C PREFETCH REQUESTED:          0 ISSUED:          0 USEFUL:          0 USELESS:          0
cpu2_L2C AVERAGE MISS LATENCY: 918.8 cycles
cpu2_L2C TOTAL        ACCESS:          0 HIT:          0 MISS:          0
cpu2_L2C LOAD         ACCESS:          0 HIT:          0 MISS:          0
cpu2_L2C RFO          ACCESS:          0 HIT:          0 MISS:          0
cpu2_L2C PREFETCH     ACCESS:          0 HIT:          0 MISS:          0
cpu2_L2C WRITE        ACCESS:          0 HIT:          0 MISS:          0
cpu2_L2C TRANSLATION  ACCESS:          0 HIT:          0 MISS:          0
cpu2_L2C PREFETCH REQUESTED:          0 ISSUED:          0 USEFUL:          0 USELESS:          0
cpu2_L2C AVERAGE MISS LATENCY: 918.8 cycles
cpu2_L2C TOTAL        ACCESS:    8579574 HIT:    8079435 MISS:     500139
cpu2_L2C LOAD         ACCESS:    7781485 HIT:    7475819 MISS:     305666
cpu2_L2C RFO          ACCESS:     204257 HIT:      39937 MISS:     164320
cpu2_L2C PREFETCH     ACCESS:          0 HIT:          0 MISS:          0
cpu2_L2C WRITE        ACCESS:     336230 HIT:     336220 MISS:         10
cpu2_L2C TRANSLATION  ACCESS:     257602 HIT:     227459 MISS:      30143
cpu2_L2C PREFETCH REQUESTED:          0 ISSUED:          0 USEFUL:          0 USELESS:          0
cpu2_L2C AVERAGE MISS LATENCY: 918.8 cycles
cpu2_L2C TOTAL        ACCESS:          0 HIT:          0 MISS:          0
cpu2_L2C LOAD         ACCESS:          0 HIT:          0 MISS:          0
cpu2_L2C RFO          ACCESS:          0 HIT:          0 MISS:          0
cpu2_L2C PREFETCH     ACCESS:          0 HIT:          0 MISS:          0
cpu2_L2C WRITE        ACCESS:          0 HIT:          0 MISS:          0
cpu2_L2C TRANSLATION  ACCESS:          0 HIT:          0 MISS:          0
cpu2_L2C PREFETCH REQUESTED:          0 ISSUED:          0 USEFUL:          0 USELESS:          0
cpu2_L2C AVERAGE MISS LATENCY: 918.8 cycles
cpu2_STLB TOTAL        ACCESS:          0 HIT:          0 MISS:          0
cpu2_STLB LOAD         ACCESS:          0 HIT:          0 MISS:          0
cpu2_STLB RFO          ACCESS:          0 HIT:          0 MISS:          0
cpu2_STLB PREFETCH     ACCESS:          0 HIT:          0 MISS:          0
cpu2_STLB WRITE        ACCESS:          0 HIT:          0 MISS:          0
cpu2_STLB TRANSLATION  ACCESS:          0 HIT:          0 MISS:          0
cpu2_STLB PREFETCH REQUESTED:          0 ISSUED:          0 USEFUL:          0 USELESS:          0
cpu2_STLB AVERAGE MISS LATENCY: 91.34 cycles
cpu2_STLB TOTAL        ACCESS:          0 HIT:          0 MISS:          0
cpu2_STLB LOAD         ACCESS:          0 HIT:          0 MISS:          0
cpu2_STLB RFO          ACCESS:          0 HIT:          0 MISS:          0
cpu2_STLB PREFETCH     ACCESS:          0 HIT:          0 MISS:          0
cpu2_STLB WRITE        ACCESS:          0 HIT:          0 MISS:          0
cpu2_STLB TRANSLATION  ACCESS:          0 HIT:          0 MISS:          0
cpu2_STLB PREFETCH REQUESTED:          0 ISSUED:          0 USEFUL:          0 USELESS:          0
cpu2_STLB AVERAGE MISS LATENCY: 91.34 cycles
cpu2_STLB TOTAL        ACCESS:    4511706 HIT:    4242748 MISS:     268958
cpu2_STLB LOAD         ACCESS:    4511706 HIT:    4242748 MISS:     268958
cpu2_STLB RFO          ACCESS:          0 HIT:          0 MISS:          0
cpu2_STLB PREFETCH     ACCESS:          0 HIT:          0 MISS:          0
cpu2_STLB WRITE        ACCESS:          0 HIT:          0 MISS:          0
cpu2_STLB TRANSLATION  ACCESS:          0 HIT:          0 MISS:          0
cpu2_STLB PREFETCH REQUESTED:          0 ISSUED:          0 USEFUL:          0 USELESS:          0
cpu2_STLB AVERAGE MISS LATENCY: 91.34 cycles
cpu2_STLB TOTAL        ACCESS:          0 HIT:          0 MISS:          0
cpu2_STLB LOAD         ACCESS:          0 HIT:          0 MISS:          0
cpu2_STLB RFO          ACCESS:          0 HIT:          0 MISS:          0
cpu2_STLB PREFETCH     ACCESS:          0 HIT:          0 MISS:          0
cpu2_STLB WRITE        ACCESS:          0 HIT:          0 MISS:          0
cpu2_STLB TRANSLATION  ACCESS:          0 HIT:          0 MISS:          0
cpu2_STLB PREFETCH REQUESTED:          0 ISSUED:          0 USEFUL:          0 USELESS:          0
cpu2_STLB AVERAGE MISS LATENCY: 91.34 cycles
cpu3_DTLB TOTAL        ACCESS:          0 HIT:          0 MISS:          0
cpu3_DTLB LOAD         ACCESS:          0 HIT:          0 MISS:          0
cpu3_DTLB RFO          ACCESS:          0 HIT:          0 MISS:          0
cpu3_DTLB PREFETCH     ACCESS:          0 HIT:          0 MISS:          0
cpu3_DTLB WRITE        ACCESS:          0 HIT:          0 MISS:          0
cpu3_DTLB TRANSLATION  ACCESS:          0 HIT:          0 MISS:          0
cpu3_DTLB PREFETCH REQUESTED:          0 ISSUED:          0 USEFUL:          0 USELESS:          0
cpu3_DTLB AVERAGE MISS LATENCY: 12.66 cycles
cpu3_DTLB TOTAL        ACCESS:          0 HIT:          0 MISS:          0
cpu3_DTLB LOAD         ACCESS:          0 HIT:          0 MISS:          0
cpu3_DTLB RFO          ACCESS:          0 HIT:          0 MISS:          0
cpu3_DTLB PREFETCH     ACCESS:          0 HIT:          0 MISS:          0
cpu3_DTLB WRITE        ACCESS:          0 HIT:          0 MISS:          0
cpu3_DTLB TRANSLATION  ACCESS:          0 HIT:          0 MISS:          0
cpu3_DTLB PREFETCH REQUESTED:          0 ISSUED:          0 USEFUL:          0 USELESS:          0
cpu3_DTLB AVERAGE MISS LATENCY: 12.66 cycles
cpu3_DTLB TOTAL        ACCESS:          0 HIT:          0 MISS:          0
cpu3_DTLB LOAD         ACCESS:          0 HIT:          0 MISS:          0
cpu3_DTLB RFO          ACCESS:          0 HIT:          0 MISS:          0
cpu3_DTLB PREFETCH     ACCESS:          0 HIT:          0 MISS:          0
cpu3_DTLB WRITE        ACCESS:          0 HIT:          0 MISS:          0
cpu3_DTLB TRANSLATION  ACCESS:          0 HIT:          0 MISS:          0
cpu3_DTLB PREFETCH REQUESTED:          0 ISSUED:          0 USEFUL:          0 USELESS:          0
cpu3_DTLB AVERAGE MISS LATENCY: 12.66 cycles
cpu3_DTLB TOTAL        ACCESS:   21990335 HIT:   21716785 MISS:     273550
cpu3_DTLB LOAD         ACCESS:   21990335 HIT:   21716785 MISS:     273550
cpu3_DTLB RFO          ACCESS:          0 HIT:          0 MISS:          0
cpu3_DTLB PREFETCH     ACCESS:          0 HIT:          0 MISS:          0
cpu3_DTLB WRITE        ACCESS:          0 HIT:          0 MISS:          0
cpu3_DTLB TRANSLATION  ACCESS:          0 HIT:          0 MISS:          0
cpu3_DTLB PREFETCH REQUESTED:          0 ISSUED:          0 USEFUL:          0 USELESS:          0
cpu3_DTLB AVERAGE MISS LATENCY: 12.66 cycles
cpu3_ITLB TOTAL        ACCESS:          0 HIT:          0 MISS:          0
cpu3_ITLB LOAD         ACCESS:          0 HIT:          0 MISS:          0
cpu3_ITLB RFO          ACCESS:          0 HIT:          0 MISS:          0
cpu3_ITLB PREFETCH     ACCESS:          0 HIT:          0 MISS:          0
cpu3_ITLB WRITE        ACCESS:          0 HIT:          0 MISS:          0
cpu3_ITLB TRANSLATION  ACCESS:          0 HIT:          0 MISS:          0
cpu3_ITLB PREFETCH REQUESTED:          0 ISSUED:          0 USEFUL:          0 USELESS:          0
cpu3_ITLB AVERAGE MISS LATENCY: 83.88 cycles
cpu3_ITLB TOTAL        ACCESS:          0 HIT:          0 MISS:          0
cpu3_ITLB LOAD         ACCESS:          0 HIT:          0 MISS:          0
cpu3_ITLB RFO          ACCESS:          0 HIT:          0 MISS:          0
cpu3_ITLB PREFETCH     ACCESS:          0 HIT:          0 MISS:          0
cpu3_ITLB WRITE        ACCESS:          0 HIT:          0 MISS:          0
cpu3_ITLB TRANSLATION  ACCESS:          0 HIT:          0 MISS:          0
cpu3_ITLB PREFETCH REQUESTED:          0 ISSUED:          0 USEFUL:          0 USELESS:          0
cpu3_ITLB AVERAGE MISS LATENCY: 83.88 cycles
cpu3_ITLB TOTAL        ACCESS:          0 HIT:          0 MISS:          0
cpu3_ITLB LOAD         ACCESS:          0 HIT:          0 MISS:          0
cpu3_ITLB RFO          ACCESS:          0 HIT:          0 MISS:          0
cpu3_ITLB PREFETCH     ACCESS:          0 HIT:          0 MISS:          0
cpu3_ITLB WRITE        ACCESS:          0 HIT:          0 MISS:          0
cpu3_ITLB TRANSLATION  ACCESS:          0 HIT:          0 MISS:          0
cpu3_ITLB PREFETCH REQUESTED:          0 ISSUED:          0 USEFUL:          0 USELESS:          0
cpu3_ITLB AVERAGE MISS LATENCY: 83.88 cycles
cpu3_ITLB TOTAL        ACCESS:    2872714 HIT:    2868668 MISS:       4046
cpu3_ITLB LOAD         ACCESS:    2872714 HIT:    2868668 MISS:       4046
cpu3_ITLB RFO          ACCESS:          0 HIT:          0 MISS:          0
cpu3_ITLB PREFETCH     ACCESS:          0 HIT:          0 MISS:          0
cpu3_ITLB WRITE        ACCESS:          0 HIT:          0 MISS:          0
cpu3_ITLB TRANSLATION  ACCESS:          0 HIT:          0 MISS:          0
cpu3_ITLB PREFETCH REQUESTED:          0 ISSUED:          0 USEFUL:          0 USELESS:          0
cpu3_ITLB AVERAGE MISS LATENCY: 83.88 cycles
cpu3_L1D TOTAL        ACCESS:          0 HIT:          0 MISS:          0
cpu3_L1D LOAD         ACCESS:          0 HIT:          0 MISS:          0
cpu3_L1D RFO          ACCESS:          0 HIT:          0 MISS:          0
cpu3_L1D PREFETCH     ACCESS:          0 HIT:          0 MISS:          0
cpu3_L1D WRITE        ACCESS:          0 HIT:          0 MISS:          0
cpu3_L1D TRANSLATION  ACCESS:          0 HIT:          0 MISS:          0
cpu3_L1D PREFETCH REQUESTED:          0 ISSUED:          0 USEFUL:          0 USELESS:          0
cpu3_L1D AVERAGE MISS LATENCY: 469.3 cycles
cpu3_L1D TOTAL        ACCESS:          0 HIT:          0 MISS:          0
cpu3_L1D LOAD         ACCESS:          0 HIT:          0 MISS:          0
cpu3_L1D RFO          ACCESS:          0 HIT:          0 MISS:          0
cpu3_L1D PREFETCH     ACCESS:          0 HIT:          0 MISS:          0
cpu3_L1D WRITE        ACCESS:          0 HIT:          0 MISS:          0
cpu3_L1D TRANSLATION  ACCESS:          0 HIT:          0 MISS:          0
cpu3_L1D PREFETCH REQUESTED:          0 ISSUED:          0 USEFUL:          0 USELESS:          0
cpu3_L1D AVERAGE MISS LATENCY: 469.3 cycles
cpu3_L1D TOTAL        ACCESS:          0 HIT:          0 MISS:          0
cpu3_L1D LOAD         ACCESS:          0 HIT:          0 MISS:          0
cpu3_L1D RFO          ACCESS:          0 HIT:          0 MISS:          0
cpu3_L1D PREFETCH     ACCESS:          0 HIT:          0 MISS:          0
cpu3_L1D WRITE        ACCESS:          0 HIT:          0 MISS:          0
cpu3_L1D TRANSLATION  ACCESS:          0 HIT:          0 MISS:          0
cpu3_L1D PREFETCH REQUESTED:          0 ISSUED:          0 USEFUL:          0 USELESS:          0
cpu3_L1D AVERAGE MISS LATENCY: 469.3 cycles
cpu3_L1D TOTAL        ACCESS:   29220783 HIT:   23962102 MISS:    5258681
cpu3_L1D LOAD         ACCESS:   13917661 HIT:   13224046 MISS:     693615
cpu3_L1D RFO          ACCESS:          0 HIT:          0 MISS:          0
cpu3_L1D PREFETCH     ACCESS:          0 HIT:          0 MISS:          0
cpu3_L1D WRITE        ACCESS:   15283674 HIT:   10722908 MISS:    4560766
cpu3_L1D TRANSLATION  ACCESS:      19448 HIT:      15148 MISS:       4300
cpu3_L1D PREFETCH REQUESTED:          0 ISSUED:          0 USEFUL:          0 USELESS:          0
cpu3_L1D AVERAGE MISS LATENCY: 469.3 cycles
cpu3_L1I TOTAL        ACCESS:          0 HIT:          0 MISS:          0
cpu3_L1I LOAD         ACCESS:          0 HIT:          0 MISS:          0
cpu3_L1I RFO          ACCESS:          0 HIT:          0 MISS:          0
cpu3_L1I PREFETCH     ACCESS:          0 HIT:          0 MISS:          0
cpu3_L1I WRITE        ACCESS:          0 HIT:          0 MISS:          0
cpu3_L1I TRANSLATION  ACCESS:          0 HIT:          0 MISS:          0
cpu3_L1I PREFETCH REQUESTED:          0 ISSUED:          0 USEFUL:          0 USELESS:          0
cpu3_L1I AVERAGE MISS LATENCY: 208.3 cycles
cpu3_L1I TOTAL        ACCESS:          0 HIT:          0 MISS:          0
cpu3_L1I LOAD         ACCESS:          0 HIT:          0 MISS:          0
cpu3_L1I RFO          ACCESS:          0 HIT:          0 MISS:          0
cpu3_L1I PREFETCH     ACCESS:          0 HIT:          0 MISS:          0
cpu3_L1I WRITE        ACCESS:          0 HIT:          0 MISS:          0
cpu3_L1I TRANSLATION  ACCESS:          0 HIT:          0 MISS:          0
cpu3_L1I PREFETCH REQUESTED:          0 ISSUED:          0 USEFUL:          0 USELESS:          0
cpu3_L1I AVERAGE MISS LATENCY: 208.3 cycles
cpu3_L1I TOTAL        ACCESS:          0 HIT:          0 MISS:          0
cpu3_L1I LOAD         ACCESS:          0 HIT:          0 MISS:          0
cpu3_L1I RFO          ACCESS:          0 HIT:          0 MISS:          0
cpu3_L1I PREFETCH     ACCESS:          0 HIT:          0 MISS:          0
cpu3_L1I WRITE        ACCESS:          0 HIT:          0 MISS:          0
cpu3_L1I TRANSLATION  ACCESS:          0 HIT:          0 MISS:          0
cpu3_L1I PREFETCH REQUESTED:          0 ISSUED:          0 USEFUL:          0 USELESS:          0
cpu3_L1I AVERAGE MISS LATENCY: 208.3 cycles
cpu3_L1I TOTAL        ACCESS:    3640091 HIT:    3550040 MISS:      90051
cpu3_L1I LOAD         ACCESS:    3640091 HIT:    3550040 MISS:      90051
cpu3_L1I RFO          ACCESS:          0 HIT:          0 MISS:          0
cpu3_L1I PREFETCH     ACCESS:          0 HIT:          0 MISS:          0
cpu3_L1I WRITE        ACCESS:          0 HIT:          0 MISS:          0
cpu3_L1I TRANSLATION  ACCESS:          0 HIT:          0 MISS:          0
cpu3_L1I PREFETCH REQUESTED:          0 ISSUED:          0 USEFUL:          0 USELESS:          0
cpu3_L1I AVERAGE MISS LATENCY: 208.3 cycles
cpu3_L2C TOTAL        ACCESS:          0 HIT:          0 MISS:          0
cpu3_L2C LOAD         ACCESS:          0 HIT:          0 MISS:          0
cpu3_L2C RFO          ACCESS:          0 HIT:          0 MISS:          0
cpu3_L2C PREFETCH     ACCESS:          0 HIT:          0 MISS:          0
cpu3_L2C WRITE        ACCESS:          0 HIT:          0 MISS:          0
cpu3_L2C TRANSLATION  ACCESS:          0 HIT:          0 MISS:          0
cpu3_L2C PREFETCH REQUESTED:          0 ISSUED:          0 USEFUL:          0 USELESS:          0
cpu3_L2C AVERAGE MISS LATENCY: 2453 cycles
cpu3_L2C TOTAL        ACCESS:          0 HIT:          0 MISS:          0
cpu3_L2C LOAD         ACCESS:          0 HIT:          0 MISS:          0
cpu3_L2C RFO          ACCESS:          0 HIT:          0 MISS:          0
cpu3_L2C PREFETCH     ACCESS:          0 HIT:          0 MISS:          0
cpu3_L2C WRITE        ACCESS:          0 HIT:          0 MISS:          0
cpu3_L2C TRANSLATION  ACCESS:          0 HIT:          0 MISS:          0
cpu3_L2C PREFETCH REQUESTED:          0 ISSUED:          0 USEFUL:          0 USELESS:          0
cpu3_L2C AVERAGE MISS LATENCY: 2453 cycles
cpu3_L2C TOTAL        ACCESS:          0 HIT:          0 MISS:          0
cpu3_L2C LOAD         ACCESS:          0 HIT:          0 MISS:          0
cpu3_L2C RFO          ACCESS:          0 HIT:          0 MISS:          0
cpu3_L2C PREFETCH     ACCESS:          0 HIT:          0 MISS:          0
cpu3_L2C WRITE        ACCESS:          0 HIT:          0 MISS:          0
cpu3_L2C TRANSLATION  ACCESS:          0 HIT:          0 MISS:          0
cpu3_L2C PREFETCH REQUESTED:          0 ISSUED:          0 USEFUL:          0 USELESS:          0
cpu3_L2C AVERAGE MISS LATENCY: 2453 cycles
cpu3_L2C TOTAL        ACCESS:    2923204 HIT:    1841950 MISS:    1081254
cpu3_L2C LOAD         ACCESS:     532270 HIT:     419350 MISS:     112920
cpu3_L2C RFO          ACCESS:    1155660 HIT:     190421 MISS:     965239
cpu3_L2C PREFETCH     ACCESS:          0 HIT:          0 MISS:          0
cpu3_L2C WRITE        ACCESS:    1231010 HIT:    1230969 MISS:         41
cpu3_L2C TRANSLATION  ACCESS:       4264 HIT:       1210 MISS:       3054
cpu3_L2C PREFETCH REQUESTED:          0 ISSUED:          0 USEFUL:          0 USELESS:          0
cpu3_L2C AVERAGE MISS LATENCY: 2453 cycles
cpu3_STLB TOTAL        ACCESS:          0 HIT:          0 MISS:          0
cpu3_STLB LOAD         ACCESS:          0 HIT:          0 MISS:          0
cpu3_STLB RFO          ACCESS:          0 HIT:          0 MISS:          0
cpu3_STLB PREFETCH     ACCESS:          0 HIT:          0 MISS:          0
cpu3_STLB WRITE        ACCESS:          0 HIT:          0 MISS:          0
cpu3_STLB TRANSLATION  ACCESS:          0 HIT:          0 MISS:          0
cpu3_STLB PREFETCH REQUESTED:          0 ISSUED:          0 USEFUL:          0 USELESS:          0
cpu3_STLB AVERAGE MISS LATENCY: 208.3 cycles
cpu3_STLB TOTAL        ACCESS:          0 HIT:          0 MISS:          0
cpu3_STLB LOAD         ACCESS:          0 HIT:          0 MISS:          0
cpu3_STLB RFO          ACCESS:          0 HIT:          0 MISS:          0
cpu3_STLB PREFETCH     ACCESS:          0 HIT:          0 MISS:          0
cpu3_STLB WRITE        ACCESS:          0 HIT:          0 MISS:          0
cpu3_STLB TRANSLATION  ACCESS:          0 HIT:          0 MISS:          0
cpu3_STLB PREFETCH REQUESTED:          0 ISSUED:          0 USEFUL:          0 USELESS:          0
cpu3_STLB AVERAGE MISS LATENCY: 208.3 cycles
cpu3_STLB TOTAL        ACCESS:          0 HIT:          0 MISS:          0
cpu3_STLB LOAD         ACCESS:          0 HIT:          0 MISS:          0
cpu3_STLB RFO          ACCESS:          0 HIT:          0 MISS:          0
cpu3_STLB PREFETCH     ACCESS:          0 HIT:          0 MISS:          0
cpu3_STLB WRITE        ACCESS:          0 HIT:          0 MISS:          0
cpu3_STLB TRANSLATION  ACCESS:          0 HIT:          0 MISS:          0
cpu3_STLB PREFETCH REQUESTED:          0 ISSUED:          0 USEFUL:          0 USELESS:          0
cpu3_STLB AVERAGE MISS LATENCY: 208.3 cycles
cpu3_STLB TOTAL        ACCESS:      95505 HIT:      76427 MISS:      19078
cpu3_STLB LOAD         ACCESS:      95505 HIT:      76427 MISS:      19078
cpu3_STLB RFO          ACCESS:          0 HIT:          0 MISS:          0
cpu3_STLB PREFETCH     ACCESS:          0 HIT:          0 MISS:          0
cpu3_STLB WRITE        ACCESS:          0 HIT:          0 MISS:          0
cpu3_STLB TRANSLATION  ACCESS:          0 HIT:          0 MISS:          0
cpu3_STLB PREFETCH REQUESTED:          0 ISSUED:          0 USEFUL:          0 USELESS:          0
cpu3_STLB AVERAGE MISS LATENCY: 208.3 cycles

DRAM Statistics

Channel 0 RQ ROW_BUFFER_HIT:    1851463
  ROW_BUFFER_MISS:    7209645
 AVG DBUS CONGESTED CYCLE: 3.988
WQ ROW_BUFFER_HIT: Channel 0 
  ROW_BUFFER_MISS:     189572
  FULL:    6062504
