WARNING: physical memory size is smaller than virtual memory size.
WARNING: option --warmup_instructions is deprecated. Use --warmup-instructions instead.
WARNING: option --simulation_instructions is deprecated. Use --simulation-instructions instead.

*** ChampSim Multicore Out-of-Order Simulator ***
Warmup Instructions: 50000000
Simulation Instructions: 150000000
Number of CPUs: 4
Page size: 4096

Off-chip DRAM Size: 4 GiB Channels: 1 Width: 64-bit Data Race: 3200 MT/s
Heartbeat CPU 2 instructions: 10000001 cycles: 2521924 heartbeat IPC: 3.965 cumulative IPC: 3.965 (Simulation time: 00 hr 01 min 54 sec)
Heartbeat CPU 3 instructions: 10000003 cycles: 2711645 heartbeat IPC: 3.688 cumulative IPC: 3.688 (Simulation time: 00 hr 02 min 03 sec)
Heartbeat CPU 1 instructions: 10000004 cycles: 3049072 heartbeat IPC: 3.28 cumulative IPC: 3.28 (Simulation time: 00 hr 02 min 18 sec)
Heartbeat CPU 0 instructions: 10000001 cycles: 3454440 heartbeat IPC: 2.895 cumulative IPC: 2.895 (Simulation time: 00 hr 02 min 37 sec)
Heartbeat CPU 2 instructions: 20000000 cycles: 5038320 heartbeat IPC: 3.974 cumulative IPC: 3.97 (Simulation time: 00 hr 03 min 55 sec)
Heartbeat CPU 3 instructions: 20000003 cycles: 5231397 heartbeat IPC: 3.969 cumulative IPC: 3.823 (Simulation time: 00 hr 04 min 06 sec)
Heartbeat CPU 1 instructions: 20000003 cycles: 6092086 heartbeat IPC: 3.286 cumulative IPC: 3.283 (Simulation time: 00 hr 04 min 49 sec)
Heartbeat CPU 0 instructions: 20000001 cycles: 6909711 heartbeat IPC: 2.894 cumulative IPC: 2.894 (Simulation time: 00 hr 05 min 28 sec)
Heartbeat CPU 2 instructions: 30000003 cycles: 7553376 heartbeat IPC: 3.976 cumulative IPC: 3.972 (Simulation time: 00 hr 05 min 58 sec)
Heartbeat CPU 3 instructions: 30000000 cycles: 7750798 heartbeat IPC: 3.969 cumulative IPC: 3.871 (Simulation time: 00 hr 06 min 10 sec)
Heartbeat CPU 1 instructions: 30000002 cycles: 9124901 heartbeat IPC: 3.297 cumulative IPC: 3.288 (Simulation time: 00 hr 07 min 15 sec)
Heartbeat CPU 2 instructions: 40000003 cycles: 10077430 heartbeat IPC: 3.962 cumulative IPC: 3.969 (Simulation time: 00 hr 07 min 59 sec)
Heartbeat CPU 3 instructions: 40000000 cycles: 10280889 heartbeat IPC: 3.952 cumulative IPC: 3.891 (Simulation time: 00 hr 08 min 09 sec)
Heartbeat CPU 0 instructions: 30000001 cycles: 10366712 heartbeat IPC: 2.893 cumulative IPC: 2.894 (Simulation time: 00 hr 08 min 13 sec)
Heartbeat CPU 1 instructions: 40000003 cycles: 12182304 heartbeat IPC: 3.271 cumulative IPC: 3.283 (Simulation time: 00 hr 09 min 37 sec)
Heartbeat CPU 2 instructions: 50000001 cycles: 12599284 heartbeat IPC: 3.965 cumulative IPC: 3.968 (Simulation time: 00 hr 10 min 01 sec)
Warmup finished CPU 2 instructions: 50000001 cycles: 12599285 cumulative IPC: 3.968 (Simulation time: 00 hr 10 min 01 sec)
Heartbeat CPU 3 instructions: 50000003 cycles: 12883912 heartbeat IPC: 3.842 cumulative IPC: 3.881 (Simulation time: 00 hr 10 min 14 sec)
Warmup finished CPU 3 instructions: 50000003 cycles: 12883913 cumulative IPC: 3.881 (Simulation time: 00 hr 10 min 14 sec)
Heartbeat CPU 0 instructions: 40000004 cycles: 13788357 heartbeat IPC: 2.923 cumulative IPC: 2.901 (Simulation time: 00 hr 10 min 58 sec)
Heartbeat CPU 2 instructions: 60000002 cycles: 15124319 heartbeat IPC: 3.96 cumulative IPC: 3.967 (Simulation time: 00 hr 11 min 57 sec)
Heartbeat CPU 1 instructions: 50000004 cycles: 15243177 heartbeat IPC: 3.267 cumulative IPC: 3.28 (Simulation time: 00 hr 12 min 02 sec)
Warmup finished CPU 1 instructions: 50000004 cycles: 15243178 cumulative IPC: 3.28 (Simulation time: 00 hr 12 min 02 sec)
Heartbeat CPU 3 instructions: 60000002 cycles: 15502391 heartbeat IPC: 3.819 cumulative IPC: 3.87 (Simulation time: 00 hr 12 min 14 sec)
Heartbeat CPU 0 instructions: 50000002 cycles: 17216443 heartbeat IPC: 2.917 cumulative IPC: 2.904 (Simulation time: 00 hr 13 min 39 sec)
Warmup finished CPU 0 instructions: 50000002 cycles: 17216444 cumulative IPC: 2.904 (Simulation time: 00 hr 13 min 39 sec)
Warmup complete CPU 0 instructions: 50000002 cycles: 17216444 cumulative IPC: 2.904 (Simulation time: 00 hr 13 min 39 sec)
Warmup complete CPU 1 instructions: 56387740 cycles: 17216444 cumulative IPC: 3.275 (Simulation time: 00 hr 13 min 39 sec)
Warmup complete CPU 2 instructions: 68287436 cycles: 17216444 cumulative IPC: 3.966 (Simulation time: 00 hr 13 min 39 sec)
Warmup complete CPU 3 instructions: 66575961 cycles: 17216444 cumulative IPC: 3.867 (Simulation time: 00 hr 13 min 39 sec)
Heartbeat CPU 2 instructions: 70000004 cycles: 17950316 heartbeat IPC: 3.539 cumulative IPC: 2.334 (Simulation time: 00 hr 14 min 01 sec)
Heartbeat CPU 3 instructions: 70000000 cycles: 18919997 heartbeat IPC: 2.926 cumulative IPC: 2.01 (Simulation time: 00 hr 14 min 30 sec)
Heartbeat CPU 2 instructions: 80000000 cycles: 22270337 heartbeat IPC: 2.315 cumulative IPC: 2.318 (Simulation time: 00 hr 16 min 13 sec)
Heartbeat CPU 0 instructions: 60000001 cycles: 24244277 heartbeat IPC: 1.423 cumulative IPC: 1.423 (Simulation time: 00 hr 17 min 14 sec)
Heartbeat CPU 3 instructions: 80000003 cycles: 26724773 heartbeat IPC: 1.281 cumulative IPC: 1.412 (Simulation time: 00 hr 18 min 27 sec)
Heartbeat CPU 2 instructions: 90000002 cycles: 26764662 heartbeat IPC: 2.225 cumulative IPC: 2.274 (Simulation time: 00 hr 18 min 29 sec)
Heartbeat CPU 0 instructions: 70000003 cycles: 30972081 heartbeat IPC: 1.486 cumulative IPC: 1.454 (Simulation time: 00 hr 20 min 37 sec)
Heartbeat CPU 2 instructions: 100000000 cycles: 31169346 heartbeat IPC: 2.27 cumulative IPC: 2.273 (Simulation time: 00 hr 20 min 44 sec)
Heartbeat CPU 3 instructions: 90000003 cycles: 31688583 heartbeat IPC: 2.015 cumulative IPC: 1.619 (Simulation time: 00 hr 20 min 58 sec)
Heartbeat CPU 2 instructions: 110000003 cycles: 36002706 heartbeat IPC: 2.069 cumulative IPC: 2.22 (Simulation time: 00 hr 22 min 59 sec)
Heartbeat CPU 1 instructions: 60000004 cycles: 36826659 heartbeat IPC: 0.4633 cumulative IPC: 0.1842 (Simulation time: 00 hr 23 min 23 sec)
Heartbeat CPU 0 instructions: 80000003 cycles: 38996600 heartbeat IPC: 1.246 cumulative IPC: 1.377 (Simulation time: 00 hr 24 min 25 sec)
Heartbeat CPU 2 instructions: 120000001 cycles: 40412356 heartbeat IPC: 2.268 cumulative IPC: 2.229 (Simulation time: 00 hr 25 min 02 sec)
Heartbeat CPU 2 instructions: 130000000 cycles: 45371886 heartbeat IPC: 2.016 cumulative IPC: 2.192 (Simulation time: 00 hr 27 min 15 sec)
Heartbeat CPU 0 instructions: 90000001 cycles: 47558022 heartbeat IPC: 1.168 cumulative IPC: 1.318 (Simulation time: 00 hr 28 min 23 sec)
Heartbeat CPU 2 instructions: 140000000 cycles: 50435776 heartbeat IPC: 1.975 cumulative IPC: 2.159 (Simulation time: 00 hr 29 min 46 sec)
Heartbeat CPU 3 instructions: 100000000 cycles: 53728299 heartbeat IPC: 0.4537 cumulative IPC: 0.9154 (Simulation time: 00 hr 31 min 15 sec)
Heartbeat CPU 2 instructions: 150000002 cycles: 55304833 heartbeat IPC: 2.054 cumulative IPC: 2.145 (Simulation time: 00 hr 32 min 05 sec)
Heartbeat CPU 0 instructions: 100000000 cycles: 58012092 heartbeat IPC: 0.9566 cumulative IPC: 1.226 (Simulation time: 00 hr 33 min 08 sec)
Heartbeat CPU 2 instructions: 160000001 cycles: 60593104 heartbeat IPC: 1.891 cumulative IPC: 2.114 (Simulation time: 00 hr 34 min 15 sec)
Heartbeat CPU 2 instructions: 170000000 cycles: 65700113 heartbeat IPC: 1.958 cumulative IPC: 2.098 (Simulation time: 00 hr 36 min 23 sec)
Heartbeat CPU 0 instructions: 110000003 cycles: 70691295 heartbeat IPC: 0.7887 cumulative IPC: 1.122 (Simulation time: 00 hr 38 min 24 sec)
Heartbeat CPU 2 instructions: 180000000 cycles: 71405015 heartbeat IPC: 1.753 cumulative IPC: 2.062 (Simulation time: 00 hr 38 min 39 sec)
Heartbeat CPU 2 instructions: 190000000 cycles: 76749589 heartbeat IPC: 1.871 cumulative IPC: 2.044 (Simulation time: 00 hr 40 min 46 sec)
Heartbeat CPU 2 instructions: 200000004 cycles: 81779068 heartbeat IPC: 1.988 cumulative IPC: 2.04 (Simulation time: 00 hr 42 min 48 sec)
Heartbeat CPU 0 instructions: 120000000 cycles: 82944767 heartbeat IPC: 0.8161 cumulative IPC: 1.065 (Simulation time: 00 hr 43 min 22 sec)
Heartbeat CPU 2 instructions: 210000001 cycles: 87598637 heartbeat IPC: 1.718 cumulative IPC: 2.013 (Simulation time: 00 hr 45 min 17 sec)
Simulation finished CPU 2 instructions: 150000003 cycles: 76092438 cumulative IPC: 1.971 (Simulation time: 00 hr 47 min 38 sec)
Heartbeat CPU 2 instructions: 220000002 cycles: 94058505 heartbeat IPC: 1.548 cumulative IPC: 1.974 (Simulation time: 00 hr 47 min 59 sec)
Heartbeat CPU 0 instructions: 130000001 cycles: 95528538 heartbeat IPC: 0.7947 cumulative IPC: 1.022 (Simulation time: 00 hr 48 min 33 sec)
Heartbeat CPU 2 instructions: 230000000 cycles: 99652475 heartbeat IPC: 1.788 cumulative IPC: 1.962 (Simulation time: 00 hr 50 min 21 sec)
Heartbeat CPU 2 instructions: 240000001 cycles: 105447316 heartbeat IPC: 1.726 cumulative IPC: 1.946 (Simulation time: 00 hr 52 min 43 sec)
Heartbeat CPU 0 instructions: 140000000 cycles: 107276037 heartbeat IPC: 0.8512 cumulative IPC: 0.9993 (Simulation time: 00 hr 53 min 29 sec)
Heartbeat CPU 2 instructions: 250000001 cycles: 110450377 heartbeat IPC: 1.999 cumulative IPC: 1.949 (Simulation time: 00 hr 54 min 54 sec)
Heartbeat CPU 3 instructions: 110000001 cycles: 111242810 heartbeat IPC: 0.1739 cumulative IPC: 0.4618 (Simulation time: 00 hr 55 min 20 sec)
Heartbeat CPU 2 instructions: 260000000 cycles: 115325833 heartbeat IPC: 2.051 cumulative IPC: 1.954 (Simulation time: 00 hr 57 min 24 sec)
Heartbeat CPU 0 instructions: 150000003 cycles: 116109178 heartbeat IPC: 1.132 cumulative IPC: 1.011 (Simulation time: 00 hr 57 min 48 sec)
Heartbeat CPU 3 instructions: 120000003 cycles: 117193054 heartbeat IPC: 1.681 cumulative IPC: 0.5344 (Simulation time: 00 hr 58 min 23 sec)
Heartbeat CPU 2 instructions: 270000003 cycles: 120327900 heartbeat IPC: 1.999 cumulative IPC: 1.956 (Simulation time: 01 hr 00 min 06 sec)
Heartbeat CPU 3 instructions: 130000001 cycles: 121055315 heartbeat IPC: 2.589 cumulative IPC: 0.6108 (Simulation time: 01 hr 00 min 31 sec)
Heartbeat CPU 0 instructions: 160000000 cycles: 124278441 heartbeat IPC: 1.224 cumulative IPC: 1.027 (Simulation time: 01 hr 02 min 14 sec)
Heartbeat CPU 1 instructions: 70000000 cycles: 124428107 heartbeat IPC: 0.1142 cumulative IPC: 0.127 (Simulation time: 01 hr 02 min 19 sec)
Heartbeat CPU 3 instructions: 140000000 cycles: 124896234 heartbeat IPC: 2.604 cumulative IPC: 0.6819 (Simulation time: 01 hr 02 min 34 sec)
Heartbeat CPU 2 instructions: 280000003 cycles: 125186609 heartbeat IPC: 2.058 cumulative IPC: 1.961 (Simulation time: 01 hr 02 min 45 sec)
Heartbeat CPU 2 instructions: 290000001 cycles: 129931392 heartbeat IPC: 2.108 cumulative IPC: 1.967 (Simulation time: 01 hr 05 min 10 sec)
Heartbeat CPU 3 instructions: 150000000 cycles: 130502366 heartbeat IPC: 1.784 cumulative IPC: 0.7364 (Simulation time: 01 hr 05 min 29 sec)
Heartbeat CPU 0 instructions: 170000003 cycles: 132143711 heartbeat IPC: 1.271 cumulative IPC: 1.044 (Simulation time: 01 hr 06 min 16 sec)
Heartbeat CPU 2 instructions: 300000002 cycles: 134845360 heartbeat IPC: 2.035 cumulative IPC: 1.97 (Simulation time: 01 hr 07 min 37 sec)
Heartbeat CPU 3 instructions: 160000000 cycles: 136489181 heartbeat IPC: 1.67 cumulative IPC: 0.7833 (Simulation time: 01 hr 08 min 26 sec)
Heartbeat CPU 2 instructions: 310000000 cycles: 139617654 heartbeat IPC: 2.095 cumulative IPC: 1.975 (Simulation time: 01 hr 09 min 59 sec)
Heartbeat CPU 0 instructions: 180000002 cycles: 140152677 heartbeat IPC: 1.249 cumulative IPC: 1.057 (Simulation time: 01 hr 10 min 14 sec)
Heartbeat CPU 3 instructions: 170000000 cycles: 143251751 heartbeat IPC: 1.479 cumulative IPC: 0.8206 (Simulation time: 01 hr 11 min 42 sec)
Heartbeat CPU 2 instructions: 320000002 cycles: 144454699 heartbeat IPC: 2.067 cumulative IPC: 1.978 (Simulation time: 01 hr 12 min 17 sec)
Heartbeat CPU 0 instructions: 190000000 cycles: 148073538 heartbeat IPC: 1.262 cumulative IPC: 1.07 (Simulation time: 01 hr 13 min 58 sec)
Heartbeat CPU 2 instructions: 330000004 cycles: 149452882 heartbeat IPC: 2.001 cumulative IPC: 1.979 (Simulation time: 01 hr 14 min 35 sec)
Heartbeat CPU 3 instructions: 180000003 cycles: 150047943 heartbeat IPC: 1.471 cumulative IPC: 0.8539 (Simulation time: 01 hr 14 min 52 sec)
Heartbeat CPU 2 instructions: 340000001 cycles: 154413126 heartbeat IPC: 2.016 cumulative IPC: 1.98 (Simulation time: 01 hr 16 min 50 sec)
Heartbeat CPU 3 instructions: 190000002 cycles: 155578073 heartbeat IPC: 1.808 cumulative IPC: 0.892 (Simulation time: 01 hr 17 min 23 sec)
Heartbeat CPU 0 instructions: 200000004 cycles: 155954211 heartbeat IPC: 1.269 cumulative IPC: 1.081 (Simulation time: 01 hr 17 min 34 sec)
Simulation finished CPU 0 instructions: 150000002 cycles: 138737768 cumulative IPC: 1.081 (Simulation time: 01 hr 17 min 34 sec)
Heartbeat CPU 2 instructions: 350000001 cycles: 159543740 heartbeat IPC: 1.949 cumulative IPC: 1.979 (Simulation time: 01 hr 19 min 09 sec)
Heartbeat CPU 0 instructions: 210000002 cycles: 164271253 heartbeat IPC: 1.202 cumulative IPC: 1.088 (Simulation time: 01 hr 21 min 05 sec)
Heartbeat CPU 2 instructions: 360000004 cycles: 164972468 heartbeat IPC: 1.842 cumulative IPC: 1.974 (Simulation time: 01 hr 21 min 23 sec)
Heartbeat CPU 2 instructions: 370000000 cycles: 169986761 heartbeat IPC: 1.994 cumulative IPC: 1.975 (Simulation time: 01 hr 23 min 31 sec)
Heartbeat CPU 3 instructions: 200000004 cycles: 172330066 heartbeat IPC: 0.5969 cumulative IPC: 0.8602 (Simulation time: 01 hr 24 min 31 sec)
Heartbeat CPU 0 instructions: 220000000 cycles: 172800153 heartbeat IPC: 1.172 cumulative IPC: 1.093 (Simulation time: 01 hr 24 min 45 sec)
Heartbeat CPU 2 instructions: 380000000 cycles: 175023440 heartbeat IPC: 1.985 cumulative IPC: 1.975 (Simulation time: 01 hr 25 min 41 sec)
Heartbeat CPU 1 instructions: 80000000 cycles: 179897327 heartbeat IPC: 0.1803 cumulative IPC: 0.1451 (Simulation time: 01 hr 27 min 43 sec)
Heartbeat CPU 2 instructions: 390000000 cycles: 180239579 heartbeat IPC: 1.917 cumulative IPC: 1.973 (Simulation time: 01 hr 27 min 51 sec)
Heartbeat CPU 0 instructions: 230000002 cycles: 182171023 heartbeat IPC: 1.067 cumulative IPC: 1.091 (Simulation time: 01 hr 28 min 40 sec)
Heartbeat CPU 2 instructions: 400000000 cycles: 185365777 heartbeat IPC: 1.951 cumulative IPC: 1.973 (Simulation time: 01 hr 29 min 55 sec)
Heartbeat CPU 2 instructions: 410000000 cycles: 190525617 heartbeat IPC: 1.938 cumulative IPC: 1.972 (Simulation time: 01 hr 31 min 57 sec)
Heartbeat CPU 0 instructions: 240000001 cycles: 194502733 heartbeat IPC: 0.8109 cumulative IPC: 1.072 (Simulation time: 01 hr 33 min 32 sec)
Heartbeat CPU 2 instructions: 420000004 cycles: 195685717 heartbeat IPC: 1.938 cumulative IPC: 1.971 (Simulation time: 01 hr 34 min 02 sec)
Heartbeat CPU 2 instructions: 430000002 cycles: 201287636 heartbeat IPC: 1.785 cumulative IPC: 1.965 (Simulation time: 01 hr 36 min 16 sec)
Heartbeat CPU 2 instructions: 440000003 cycles: 206602415 heartbeat IPC: 1.882 cumulative IPC: 1.963 (Simulation time: 01 hr 38 min 27 sec)
Heartbeat CPU 0 instructions: 250000002 cycles: 206729844 heartbeat IPC: 0.8179 cumulative IPC: 1.055 (Simulation time: 01 hr 38 min 30 sec)
Heartbeat CPU 2 instructions: 450000003 cycles: 211628745 heartbeat IPC: 1.99 cumulative IPC: 1.963 (Simulation time: 01 hr 40 min 32 sec)
Heartbeat CPU 2 instructions: 460000003 cycles: 217109436 heartbeat IPC: 1.825 cumulative IPC: 1.96 (Simulation time: 01 hr 42 min 45 sec)
Heartbeat CPU 0 instructions: 260000001 cycles: 218955951 heartbeat IPC: 0.8179 cumulative IPC: 1.041 (Simulation time: 01 hr 43 min 29 sec)
Heartbeat CPU 2 instructions: 470000002 cycles: 221532923 heartbeat IPC: 2.261 cumulative IPC: 1.966 (Simulation time: 01 hr 44 min 30 sec)
Heartbeat CPU 2 instructions: 480000000 cycles: 226521222 heartbeat IPC: 2.005 cumulative IPC: 1.967 (Simulation time: 01 hr 46 min 33 sec)
Heartbeat CPU 0 instructions: 270000001 cycles: 230776041 heartbeat IPC: 0.846 cumulative IPC: 1.03 (Simulation time: 01 hr 48 min 18 sec)
Heartbeat CPU 2 instructions: 490000002 cycles: 230991000 heartbeat IPC: 2.237 cumulative IPC: 1.973 (Simulation time: 01 hr 48 min 24 sec)
Heartbeat CPU 3 instructions: 210000003 cycles: 233751238 heartbeat IPC: 0.1628 cumulative IPC: 0.6624 (Simulation time: 01 hr 49 min 40 sec)
Heartbeat CPU 2 instructions: 500000000 cycles: 235604001 heartbeat IPC: 2.168 cumulative IPC: 1.977 (Simulation time: 01 hr 50 min 32 sec)
Simulation finished CPU 3 instructions: 150000003 cycles: 221375531 cumulative IPC: 0.6776 (Simulation time: 01 hr 51 min 52 sec)
Heartbeat CPU 0 instructions: 280000001 cycles: 239397359 heartbeat IPC: 1.16 cumulative IPC: 1.035 (Simulation time: 01 hr 52 min 17 sec)
Heartbeat CPU 3 instructions: 220000001 cycles: 239981301 heartbeat IPC: 1.605 cumulative IPC: 0.6887 (Simulation time: 01 hr 52 min 35 sec)
Heartbeat CPU 2 instructions: 510000004 cycles: 239989698 heartbeat IPC: 2.28 cumulative IPC: 1.983 (Simulation time: 01 hr 52 min 35 sec)
Heartbeat CPU 3 instructions: 230000001 cycles: 243767917 heartbeat IPC: 2.641 cumulative IPC: 0.7214 (Simulation time: 01 hr 54 min 35 sec)
Heartbeat CPU 2 instructions: 520000000 cycles: 244586209 heartbeat IPC: 2.176 cumulative IPC: 1.987 (Simulation time: 01 hr 55 min 01 sec)
Heartbeat CPU 0 instructions: 290000000 cycles: 247336615 heartbeat IPC: 1.26 cumulative IPC: 1.043 (Simulation time: 01 hr 56 min 26 sec)
Heartbeat CPU 3 instructions: 240000000 cycles: 247689749 heartbeat IPC: 2.55 cumulative IPC: 0.7525 (Simulation time: 01 hr 56 min 37 sec)
Heartbeat CPU 3 instructions: 250000000 cycles: 252961151 heartbeat IPC: 1.897 cumulative IPC: 0.7781 (Simulation time: 01 hr 59 min 08 sec)
Heartbeat CPU 0 instructions: 300000004 cycles: 254788441 heartbeat IPC: 1.342 cumulative IPC: 1.052 (Simulation time: 02 hr 00 min 01 sec)
Heartbeat CPU 2 instructions: 530000002 cycles: 259049699 heartbeat IPC: 0.6914 cumulative IPC: 1.909 (Simulation time: 02 hr 01 min 58 sec)
Heartbeat CPU 3 instructions: 260000000 cycles: 259340093 heartbeat IPC: 1.568 cumulative IPC: 0.7989 (Simulation time: 02 hr 02 min 06 sec)
Heartbeat CPU 0 instructions: 310000000 cycles: 262625022 heartbeat IPC: 1.276 cumulative IPC: 1.059 (Simulation time: 02 hr 03 min 35 sec)
Heartbeat CPU 3 instructions: 270000000 cycles: 265930693 heartbeat IPC: 1.517 cumulative IPC: 0.8179 (Simulation time: 02 hr 05 min 04 sec)
Heartbeat CPU 1 instructions: 90000003 cycles: 267947423 heartbeat IPC: 0.1136 cumulative IPC: 0.1341 (Simulation time: 02 hr 05 min 57 sec)
Heartbeat CPU 2 instructions: 540000003 cycles: 270480639 heartbeat IPC: 0.8748 cumulative IPC: 1.863 (Simulation time: 02 hr 07 min 15 sec)
Heartbeat CPU 0 instructions: 320000000 cycles: 270921490 heartbeat IPC: 1.205 cumulative IPC: 1.064 (Simulation time: 02 hr 07 min 29 sec)
Heartbeat CPU 3 instructions: 280000001 cycles: 272330216 heartbeat IPC: 1.563 cumulative IPC: 0.8366 (Simulation time: 02 hr 08 min 10 sec)
Heartbeat CPU 2 instructions: 550000002 cycles: 274841065 heartbeat IPC: 2.293 cumulative IPC: 1.87 (Simulation time: 02 hr 09 min 26 sec)
Heartbeat CPU 3 instructions: 290000003 cycles: 279295214 heartbeat IPC: 1.436 cumulative IPC: 0.8525 (Simulation time: 02 hr 11 min 36 sec)
Heartbeat CPU 2 instructions: 560000002 cycles: 279433571 heartbeat IPC: 2.177 cumulative IPC: 1.875 (Simulation time: 02 hr 11 min 40 sec)
Heartbeat CPU 0 instructions: 330000001 cycles: 280491081 heartbeat IPC: 1.045 cumulative IPC: 1.064 (Simulation time: 02 hr 12 min 13 sec)
Heartbeat CPU 2 instructions: 570000001 cycles: 283817448 heartbeat IPC: 2.281 cumulative IPC: 1.882 (Simulation time: 02 hr 13 min 50 sec)
Heartbeat CPU 2 instructions: 580000001 cycles: 288378335 heartbeat IPC: 2.193 cumulative IPC: 1.887 (Simulation time: 02 hr 15 min 51 sec)
Heartbeat CPU 0 instructions: 340000002 cycles: 288583463 heartbeat IPC: 1.236 cumulative IPC: 1.069 (Simulation time: 02 hr 15 min 57 sec)
Heartbeat CPU 3 instructions: 300000002 cycles: 290151017 heartbeat IPC: 0.9212 cumulative IPC: 0.8552 (Simulation time: 02 hr 16 min 38 sec)
Heartbeat CPU 2 instructions: 590000002 cycles: 292679059 heartbeat IPC: 2.325 cumulative IPC: 1.894 (Simulation time: 02 hr 17 min 50 sec)
Heartbeat CPU 0 instructions: 350000000 cycles: 296379276 heartbeat IPC: 1.283 cumulative IPC: 1.075 (Simulation time: 02 hr 19 min 40 sec)
Heartbeat CPU 2 instructions: 600000000 cycles: 296976452 heartbeat IPC: 2.327 cumulative IPC: 1.901 (Simulation time: 02 hr 19 min 58 sec)
Heartbeat CPU 2 instructions: 610000000 cycles: 301573661 heartbeat IPC: 2.175 cumulative IPC: 1.905 (Simulation time: 02 hr 22 min 06 sec)
Heartbeat CPU 0 instructions: 360000002 cycles: 304097061 heartbeat IPC: 1.296 cumulative IPC: 1.081 (Simulation time: 02 hr 23 min 18 sec)
Heartbeat CPU 2 instructions: 620000001 cycles: 306166978 heartbeat IPC: 2.177 cumulative IPC: 1.909 (Simulation time: 02 hr 24 min 12 sec)
Heartbeat CPU 2 instructions: 630000001 cycles: 310946743 heartbeat IPC: 2.092 cumulative IPC: 1.912 (Simulation time: 02 hr 26 min 12 sec)
Heartbeat CPU 0 instructions: 370000000 cycles: 314631721 heartbeat IPC: 0.9492 cumulative IPC: 1.076 (Simulation time: 02 hr 27 min 45 sec)
Heartbeat CPU 2 instructions: 640000001 cycles: 315384424 heartbeat IPC: 2.253 cumulative IPC: 1.917 (Simulation time: 02 hr 28 min 03 sec)
Heartbeat CPU 2 instructions: 650000000 cycles: 320215956 heartbeat IPC: 2.07 cumulative IPC: 1.92 (Simulation time: 02 hr 30 min 02 sec)
Heartbeat CPU 2 instructions: 660000002 cycles: 325174537 heartbeat IPC: 2.017 cumulative IPC: 1.921 (Simulation time: 02 hr 32 min 01 sec)
Heartbeat CPU 0 instructions: 380000004 cycles: 325693701 heartbeat IPC: 0.904 cumulative IPC: 1.07 (Simulation time: 02 hr 32 min 15 sec)
Heartbeat CPU 2 instructions: 670000001 cycles: 330232041 heartbeat IPC: 1.977 cumulative IPC: 1.922 (Simulation time: 02 hr 34 min 05 sec)
Heartbeat CPU 2 instructions: 680000004 cycles: 335627601 heartbeat IPC: 1.853 cumulative IPC: 1.921 (Simulation time: 02 hr 36 min 21 sec)
Heartbeat CPU 0 instructions: 390000000 cycles: 337097481 heartbeat IPC: 0.8769 cumulative IPC: 1.063 (Simulation time: 02 hr 36 min 58 sec)
Heartbeat CPU 2 instructions: 690000001 cycles: 340751128 heartbeat IPC: 1.952 cumulative IPC: 1.922 (Simulation time: 02 hr 38 min 29 sec)
Heartbeat CPU 2 instructions: 700000000 cycles: 346221698 heartbeat IPC: 1.828 cumulative IPC: 1.92 (Simulation time: 02 hr 40 min 48 sec)
Heartbeat CPU 0 instructions: 400000004 cycles: 348272729 heartbeat IPC: 0.8948 cumulative IPC: 1.057 (Simulation time: 02 hr 41 min 39 sec)
Heartbeat CPU 1 instructions: 100000000 cycles: 348491029 heartbeat IPC: 0.1242 cumulative IPC: 0.1316 (Simulation time: 02 hr 41 min 45 sec)
Heartbeat CPU 2 instructions: 710000002 cycles: 351315308 heartbeat IPC: 1.963 cumulative IPC: 1.921 (Simulation time: 02 hr 42 min 54 sec)
Heartbeat CPU 3 instructions: 310000000 cycles: 355566486 heartbeat IPC: 0.1529 cumulative IPC: 0.7194 (Simulation time: 02 hr 44 min 38 sec)
Heartbeat CPU 2 instructions: 720000004 cycles: 356501792 heartbeat IPC: 1.928 cumulative IPC: 1.921 (Simulation time: 02 hr 45 min 04 sec)
Heartbeat CPU 0 instructions: 410000002 cycles: 358183847 heartbeat IPC: 1.009 cumulative IPC: 1.056 (Simulation time: 02 hr 45 min 45 sec)
Heartbeat CPU 2 instructions: 730000002 cycles: 361451529 heartbeat IPC: 2.02 cumulative IPC: 1.922 (Simulation time: 02 hr 47 min 21 sec)
Heartbeat CPU 3 instructions: 320000004 cycles: 363565447 heartbeat IPC: 1.25 cumulative IPC: 0.7317 (Simulation time: 02 hr 48 min 21 sec)
Heartbeat CPU 0 instructions: 420000004 cycles: 365384941 heartbeat IPC: 1.389 cumulative IPC: 1.063 (Simulation time: 02 hr 49 min 16 sec)
Heartbeat CPU 2 instructions: 740000004 cycles: 366417415 heartbeat IPC: 2.014 cumulative IPC: 1.924 (Simulation time: 02 hr 49 min 47 sec)
Heartbeat CPU 3 instructions: 330000002 cycles: 367456562 heartbeat IPC: 2.57 cumulative IPC: 0.7521 (Simulation time: 02 hr 50 min 19 sec)
Heartbeat CPU 3 instructions: 340000004 cycles: 371271202 heartbeat IPC: 2.621 cumulative IPC: 0.7723 (Simulation time: 02 hr 52 min 13 sec)
Heartbeat CPU 2 instructions: 750000001 cycles: 371442239 heartbeat IPC: 1.99 cumulative IPC: 1.925 (Simulation time: 02 hr 52 min 18 sec)
Heartbeat CPU 0 instructions: 430000001 cycles: 372361159 heartbeat IPC: 1.433 cumulative IPC: 1.07 (Simulation time: 02 hr 52 min 46 sec)
Heartbeat CPU 3 instructions: 350000004 cycles: 375680916 heartbeat IPC: 2.268 cumulative IPC: 0.7907 (Simulation time: 02 hr 54 min 25 sec)
Heartbeat CPU 2 instructions: 760000000 cycles: 376333125 heartbeat IPC: 2.045 cumulative IPC: 1.926 (Simulation time: 02 hr 54 min 44 sec)
Heartbeat CPU 0 instructions: 440000003 cycles: 379117738 heartbeat IPC: 1.48 cumulative IPC: 1.078 (Simulation time: 02 hr 56 min 02 sec)
Heartbeat CPU 3 instructions: 360000001 cycles: 380919073 heartbeat IPC: 1.909 cumulative IPC: 0.8068 (Simulation time: 02 hr 56 min 56 sec)
Heartbeat CPU 2 instructions: 770000002 cycles: 381110610 heartbeat IPC: 2.093 cumulative IPC: 1.928 (Simulation time: 02 hr 57 min 01 sec)
Heartbeat CPU 0 instructions: 450000002 cycles: 385805938 heartbeat IPC: 1.495 cumulative IPC: 1.085 (Simulation time: 02 hr 59 min 13 sec)
Heartbeat CPU 2 instructions: 780000002 cycles: 385919795 heartbeat IPC: 2.079 cumulative IPC: 1.93 (Simulation time: 02 hr 59 min 16 sec)
Heartbeat CPU 3 instructions: 370000000 cycles: 386922139 heartbeat IPC: 1.666 cumulative IPC: 0.8207 (Simulation time: 02 hr 59 min 45 sec)
Heartbeat CPU 2 instructions: 790000002 cycles: 390706371 heartbeat IPC: 2.089 cumulative IPC: 1.932 (Simulation time: 03 hr 01 min 30 sec)
Heartbeat CPU 0 instructions: 460000003 cycles: 392567092 heartbeat IPC: 1.479 cumulative IPC: 1.092 (Simulation time: 03 hr 02 min 21 sec)
Heartbeat CPU 3 instructions: 380000002 cycles: 392962014 heartbeat IPC: 1.656 cumulative IPC: 0.8341 (Simulation time: 03 hr 02 min 34 sec)
Heartbeat CPU 2 instructions: 800000001 cycles: 395486774 heartbeat IPC: 2.092 cumulative IPC: 1.934 (Simulation time: 03 hr 03 min 45 sec)
Heartbeat CPU 0 instructions: 470000002 cycles: 399401097 heartbeat IPC: 1.463 cumulative IPC: 1.099 (Simulation time: 03 hr 05 min 28 sec)
Heartbeat CPU 3 instructions: 390000000 cycles: 400055348 heartbeat IPC: 1.41 cumulative IPC: 0.8448 (Simulation time: 03 hr 05 min 47 sec)
Heartbeat CPU 2 instructions: 810000000 cycles: 400398477 heartbeat IPC: 2.036 cumulative IPC: 1.936 (Simulation time: 03 hr 05 min 57 sec)
Heartbeat CPU 3 instructions: 400000001 cycles: 405005536 heartbeat IPC: 2.02 cumulative IPC: 0.8598 (Simulation time: 03 hr 08 min 03 sec)
Heartbeat CPU 2 instructions: 820000000 cycles: 405088383 heartbeat IPC: 2.132 cumulative IPC: 1.938 (Simulation time: 03 hr 08 min 06 sec)
Heartbeat CPU 0 instructions: 480000001 cycles: 405958323 heartbeat IPC: 1.525 cumulative IPC: 1.106 (Simulation time: 03 hr 08 min 28 sec)
Heartbeat CPU 1 instructions: 110000000 cycles: 406350911 heartbeat IPC: 0.1728 cumulative IPC: 0.1378 (Simulation time: 03 hr 08 min 37 sec)
Heartbeat CPU 2 instructions: 830000004 cycles: 409905102 heartbeat IPC: 2.076 cumulative IPC: 1.94 (Simulation time: 03 hr 10 min 01 sec)
Heartbeat CPU 0 instructions: 490000002 cycles: 413195699 heartbeat IPC: 1.382 cumulative IPC: 1.111 (Simulation time: 03 hr 11 min 18 sec)
Heartbeat CPU 2 instructions: 840000003 cycles: 414762196 heartbeat IPC: 2.059 cumulative IPC: 1.941 (Simulation time: 03 hr 11 min 55 sec)
Heartbeat CPU 2 instructions: 850000001 cycles: 419594526 heartbeat IPC: 2.069 cumulative IPC: 1.943 (Simulation time: 03 hr 13 min 55 sec)
Heartbeat CPU 0 instructions: 500000002 cycles: 420569299 heartbeat IPC: 1.356 cumulative IPC: 1.116 (Simulation time: 03 hr 14 min 19 sec)
Heartbeat CPU 2 instructions: 860000003 cycles: 424601336 heartbeat IPC: 1.997 cumulative IPC: 1.943 (Simulation time: 03 hr 15 min 56 sec)
Heartbeat CPU 0 instructions: 510000004 cycles: 428590833 heartbeat IPC: 1.247 cumulative IPC: 1.118 (Simulation time: 03 hr 17 min 30 sec)
Heartbeat CPU 2 instructions: 870000003 cycles: 429662625 heartbeat IPC: 1.976 cumulative IPC: 1.944 (Simulation time: 03 hr 17 min 53 sec)
Heartbeat CPU 3 instructions: 410000000 cycles: 432208076 heartbeat IPC: 0.3676 cumulative IPC: 0.8275 (Simulation time: 03 hr 18 min 48 sec)
Heartbeat CPU 2 instructions: 880000000 cycles: 435029390 heartbeat IPC: 1.863 cumulative IPC: 1.943 (Simulation time: 03 hr 19 min 48 sec)
Heartbeat CPU 0 instructions: 520000004 cycles: 439862973 heartbeat IPC: 0.8871 cumulative IPC: 1.112 (Simulation time: 03 hr 21 min 33 sec)
Heartbeat CPU 2 instructions: 890000004 cycles: 440382477 heartbeat IPC: 1.868 cumulative IPC: 1.942 (Simulation time: 03 hr 21 min 44 sec)
Heartbeat CPU 2 instructions: 900000000 cycles: 445763585 heartbeat IPC: 1.858 cumulative IPC: 1.941 (Simulation time: 03 hr 23 min 39 sec)
Heartbeat CPU 0 instructions: 530000002 cycles: 450993313 heartbeat IPC: 0.8984 cumulative IPC: 1.107 (Simulation time: 03 hr 25 min 29 sec)
Heartbeat CPU 2 instructions: 910000003 cycles: 451438968 heartbeat IPC: 1.762 cumulative IPC: 1.938 (Simulation time: 03 hr 25 min 39 sec)
Heartbeat CPU 2 instructions: 920000001 cycles: 456431444 heartbeat IPC: 2.003 cumulative IPC: 1.939 (Simulation time: 03 hr 27 min 28 sec)
Heartbeat CPU 2 instructions: 930000001 cycles: 461726869 heartbeat IPC: 1.888 cumulative IPC: 1.939 (Simulation time: 03 hr 29 min 24 sec)
Heartbeat CPU 0 instructions: 540000002 cycles: 462328230 heartbeat IPC: 0.8822 cumulative IPC: 1.101 (Simulation time: 03 hr 29 min 37 sec)
Heartbeat CPU 2 instructions: 940000000 cycles: 467404777 heartbeat IPC: 1.761 cumulative IPC: 1.936 (Simulation time: 03 hr 31 min 25 sec)
Heartbeat CPU 2 instructions: 950000000 cycles: 472906213 heartbeat IPC: 1.818 cumulative IPC: 1.935 (Simulation time: 03 hr 33 min 22 sec)
Heartbeat CPU 0 instructions: 550000001 cycles: 473943889 heartbeat IPC: 0.8609 cumulative IPC: 1.095 (Simulation time: 03 hr 33 min 44 sec)
Heartbeat CPU 2 instructions: 960000003 cycles: 478372237 heartbeat IPC: 1.829 cumulative IPC: 1.934 (Simulation time: 03 hr 35 min 16 sec)
Heartbeat CPU 2 instructions: 970000001 cycles: 483086726 heartbeat IPC: 2.121 cumulative IPC: 1.936 (Simulation time: 03 hr 37 min 07 sec)
Heartbeat CPU 0 instructions: 560000002 cycles: 483708294 heartbeat IPC: 1.024 cumulative IPC: 1.093 (Simulation time: 03 hr 37 min 25 sec)
Heartbeat CPU 3 instructions: 420000002 cycles: 483991310 heartbeat IPC: 0.1931 cumulative IPC: 0.7572 (Simulation time: 03 hr 37 min 32 sec)
Heartbeat CPU 2 instructions: 980000000 cycles: 488051419 heartbeat IPC: 2.014 cumulative IPC: 1.936 (Simulation time: 03 hr 39 min 21 sec)
Heartbeat CPU 3 instructions: 430000000 cycles: 489798213 heartbeat IPC: 1.722 cumulative IPC: 0.769 (Simulation time: 03 hr 40 min 11 sec)
Heartbeat CPU 0 instructions: 570000001 cycles: 490949825 heartbeat IPC: 1.381 cumulative IPC: 1.098 (Simulation time: 03 hr 40 min 44 sec)
Heartbeat CPU 2 instructions: 990000004 cycles: 493022832 heartbeat IPC: 2.012 cumulative IPC: 1.937 (Simulation time: 03 hr 41 min 43 sec)
Heartbeat CPU 3 instructions: 440000003 cycles: 493932794 heartbeat IPC: 2.419 cumulative IPC: 0.7833 (Simulation time: 03 hr 42 min 10 sec)
Heartbeat CPU 1 instructions: 120000003 cycles: 495160199 heartbeat IPC: 0.1126 cumulative IPC: 0.1331 (Simulation time: 03 hr 42 min 46 sec)
Heartbeat CPU 2 instructions: 1000000004 cycles: 497850064 heartbeat IPC: 2.072 cumulative IPC: 1.939 (Simulation time: 03 hr 44 min 03 sec)
Heartbeat CPU 0 instructions: 580000004 cycles: 498023012 heartbeat IPC: 1.414 cumulative IPC: 1.102 (Simulation time: 03 hr 44 min 08 sec)
Heartbeat CPU 3 instructions: 450000002 cycles: 498160415 heartbeat IPC: 2.365 cumulative IPC: 0.7972 (Simulation time: 03 hr 44 min 12 sec)
Heartbeat CPU 2 instructions: 1010000003 cycles: 502782574 heartbeat IPC: 2.027 cumulative IPC: 1.939 (Simulation time: 03 hr 46 min 20 sec)
Heartbeat CPU 3 instructions: 460000001 cycles: 503335686 heartbeat IPC: 1.932 cumulative IPC: 0.8093 (Simulation time: 03 hr 46 min 35 sec)
Heartbeat CPU 0 instructions: 590000000 cycles: 504676299 heartbeat IPC: 1.503 cumulative IPC: 1.108 (Simulation time: 03 hr 47 min 12 sec)
Heartbeat CPU 2 instructions: 1020000002 cycles: 507417517 heartbeat IPC: 2.158 cumulative IPC: 1.941 (Simulation time: 03 hr 48 min 24 sec)
Heartbeat CPU 3 instructions: 470000000 cycles: 509085856 heartbeat IPC: 1.739 cumulative IPC: 0.8202 (Simulation time: 03 hr 49 min 10 sec)
Heartbeat CPU 0 instructions: 600000002 cycles: 511532448 heartbeat IPC: 1.459 cumulative IPC: 1.113 (Simulation time: 03 hr 50 min 15 sec)
Heartbeat CPU 2 instructions: 1030000004 cycles: 512056859 heartbeat IPC: 2.155 cumulative IPC: 1.943 (Simulation time: 03 hr 50 min 31 sec)
Heartbeat CPU 3 instructions: 480000003 cycles: 515310620 heartbeat IPC: 1.606 cumulative IPC: 0.83 (Simulation time: 03 hr 51 min 58 sec)
Heartbeat CPU 2 instructions: 1040000001 cycles: 516653118 heartbeat IPC: 2.176 cumulative IPC: 1.946 (Simulation time: 03 hr 52 min 36 sec)
Heartbeat CPU 0 instructions: 610000000 cycles: 518215607 heartbeat IPC: 1.496 cumulative IPC: 1.118 (Simulation time: 03 hr 53 min 18 sec)
Heartbeat CPU 2 instructions: 1050000004 cycles: 520987620 heartbeat IPC: 2.307 cumulative IPC: 1.949 (Simulation time: 03 hr 54 min 32 sec)
Heartbeat CPU 3 instructions: 490000001 cycles: 522270753 heartbeat IPC: 1.437 cumulative IPC: 0.8384 (Simulation time: 03 hr 55 min 07 sec)
Heartbeat CPU 0 instructions: 620000002 cycles: 524942898 heartbeat IPC: 1.486 cumulative IPC: 1.123 (Simulation time: 03 hr 56 min 21 sec)
Heartbeat CPU 2 instructions: 1060000001 cycles: 525363929 heartbeat IPC: 2.285 cumulative IPC: 1.952 (Simulation time: 03 hr 56 min 33 sec)
Heartbeat CPU 3 instructions: 500000000 cycles: 527149481 heartbeat IPC: 2.05 cumulative IPC: 0.85 (Simulation time: 03 hr 57 min 26 sec)
Heartbeat CPU 2 instructions: 1070000000 cycles: 529880299 heartbeat IPC: 2.214 cumulative IPC: 1.954 (Simulation time: 03 hr 58 min 35 sec)
Heartbeat CPU 0 instructions: 630000002 cycles: 531993780 heartbeat IPC: 1.418 cumulative IPC: 1.127 (Simulation time: 03 hr 59 min 23 sec)
Heartbeat CPU 2 instructions: 1080000000 cycles: 534385817 heartbeat IPC: 2.22 cumulative IPC: 1.956 (Simulation time: 04 hr 00 min 20 sec)
Heartbeat CPU 2 instructions: 1090000000 cycles: 538723096 heartbeat IPC: 2.306 cumulative IPC: 1.959 (Simulation time: 04 hr 02 min 00 sec)
Heartbeat CPU 0 instructions: 640000004 cycles: 539054243 heartbeat IPC: 1.416 cumulative IPC: 1.131 (Simulation time: 04 hr 02 min 08 sec)
Heartbeat CPU 2 instructions: 1100000000 cycles: 543049670 heartbeat IPC: 2.311 cumulative IPC: 1.962 (Simulation time: 04 hr 03 min 44 sec)
Heartbeat CPU 0 instructions: 650000002 cycles: 546864574 heartbeat IPC: 1.28 cumulative IPC: 1.133 (Simulation time: 04 hr 05 min 13 sec)
Heartbeat CPU 3 instructions: 510000000 cycles: 547620174 heartbeat IPC: 0.4885 cumulative IPC: 0.836 (Simulation time: 04 hr 05 min 30 sec)
Heartbeat CPU 2 instructions: 1110000001 cycles: 547769613 heartbeat IPC: 2.119 cumulative IPC: 1.963 (Simulation time: 04 hr 05 min 34 sec)
Heartbeat CPU 1 instructions: 130000000 cycles: 549218509 heartbeat IPC: 0.185 cumulative IPC: 0.1384 (Simulation time: 04 hr 06 min 07 sec)
Heartbeat CPU 2 instructions: 1120000004 cycles: 552137038 heartbeat IPC: 2.29 cumulative IPC: 1.966 (Simulation time: 04 hr 07 min 11 sec)
Heartbeat CPU 0 instructions: 660000000 cycles: 556023739 heartbeat IPC: 1.092 cumulative IPC: 1.132 (Simulation time: 04 hr 08 min 33 sec)
Heartbeat CPU 2 instructions: 1130000000 cycles: 557017731 heartbeat IPC: 2.049 cumulative IPC: 1.967 (Simulation time: 04 hr 08 min 54 sec)
Heartbeat CPU 2 instructions: 1140000002 cycles: 562000866 heartbeat IPC: 2.007 cumulative IPC: 1.967 (Simulation time: 04 hr 10 min 42 sec)
Heartbeat CPU 2 instructions: 1150000000 cycles: 566337083 heartbeat IPC: 2.306 cumulative IPC: 1.97 (Simulation time: 04 hr 12 min 14 sec)
Heartbeat CPU 0 instructions: 670000003 cycles: 567826787 heartbeat IPC: 0.8472 cumulative IPC: 1.126 (Simulation time: 04 hr 12 min 43 sec)
Heartbeat CPU 0 instructions: 680000002 cycles: 580261518 heartbeat IPC: 0.8042 cumulative IPC: 1.119 (Simulation time: 04 hr 16 min 35 sec)
Heartbeat CPU 0 instructions: 690000003 cycles: 591886682 heartbeat IPC: 0.8602 cumulative IPC: 1.114 (Simulation time: 04 hr 20 min 17 sec)
Heartbeat CPU 0 instructions: 700000004 cycles: 604577031 heartbeat IPC: 0.788 cumulative IPC: 1.107 (Simulation time: 04 hr 24 min 17 sec)
Heartbeat CPU 2 instructions: 1160000001 cycles: 609028692 heartbeat IPC: 0.2342 cumulative IPC: 1.845 (Simulation time: 04 hr 25 min 52 sec)
Heartbeat CPU 3 instructions: 520000003 cycles: 611085229 heartbeat IPC: 0.1576 cumulative IPC: 0.7635 (Simulation time: 04 hr 26 min 44 sec)
Heartbeat CPU 2 instructions: 1170000004 cycles: 613868348 heartbeat IPC: 2.066 cumulative IPC: 1.846 (Simulation time: 04 hr 27 min 50 sec)
Heartbeat CPU 0 instructions: 710000001 cycles: 614412941 heartbeat IPC: 1.017 cumulative IPC: 1.105 (Simulation time: 04 hr 28 min 03 sec)
Heartbeat CPU 3 instructions: 530000001 cycles: 616929470 heartbeat IPC: 1.711 cumulative IPC: 0.7727 (Simulation time: 04 hr 29 min 14 sec)
Heartbeat CPU 2 instructions: 1180000001 cycles: 618215304 heartbeat IPC: 2.3 cumulative IPC: 1.85 (Simulation time: 04 hr 29 min 50 sec)
Heartbeat CPU 3 instructions: 540000004 cycles: 620809096 heartbeat IPC: 2.578 cumulative IPC: 0.7843 (Simulation time: 04 hr 31 min 05 sec)
Heartbeat CPU 0 instructions: 720000002 cycles: 621528494 heartbeat IPC: 1.405 cumulative IPC: 1.109 (Simulation time: 04 hr 31 min 26 sec)
Heartbeat CPU 2 instructions: 1190000001 cycles: 622770445 heartbeat IPC: 2.195 cumulative IPC: 1.852 (Simulation time: 04 hr 32 min 02 sec)
Heartbeat CPU 3 instructions: 550000001 cycles: 624989569 heartbeat IPC: 2.392 cumulative IPC: 0.7954 (Simulation time: 04 hr 33 min 06 sec)
Heartbeat CPU 2 instructions: 1200000001 cycles: 627077979 heartbeat IPC: 2.322 cumulative IPC: 1.856 (Simulation time: 04 hr 34 min 05 sec)
Heartbeat CPU 0 instructions: 730000000 cycles: 628226653 heartbeat IPC: 1.493 cumulative IPC: 1.113 (Simulation time: 04 hr 34 min 36 sec)
Heartbeat CPU 3 instructions: 560000000 cycles: 629977494 heartbeat IPC: 2.005 cumulative IPC: 0.8052 (Simulation time: 04 hr 35 min 24 sec)
Heartbeat CPU 2 instructions: 1210000002 cycles: 631391599 heartbeat IPC: 2.318 cumulative IPC: 1.859 (Simulation time: 04 hr 36 min 04 sec)
Heartbeat CPU 0 instructions: 740000001 cycles: 634625209 heartbeat IPC: 1.563 cumulative IPC: 1.118 (Simulation time: 04 hr 37 min 31 sec)
Heartbeat CPU 2 instructions: 1220000003 cycles: 635904395 heartbeat IPC: 2.216 cumulative IPC: 1.862 (Simulation time: 04 hr 38 min 06 sec)
Heartbeat CPU 3 instructions: 570000002 cycles: 635954950 heartbeat IPC: 1.673 cumulative IPC: 0.8136 (Simulation time: 04 hr 38 min 08 sec)
Heartbeat CPU 1 instructions: 140000002 cycles: 637979660 heartbeat IPC: 0.1127 cumulative IPC: 0.1347 (Simulation time: 04 hr 39 min 03 sec)
Heartbeat CPU 2 instructions: 1230000000 cycles: 640218238 heartbeat IPC: 2.318 cumulative IPC: 1.865 (Simulation time: 04 hr 40 min 03 sec)
Heartbeat CPU 0 instructions: 750000002 cycles: 641382642 heartbeat IPC: 1.48 cumulative IPC: 1.121 (Simulation time: 04 hr 40 min 31 sec)
Heartbeat CPU 3 instructions: 580000003 cycles: 642344162 heartbeat IPC: 1.565 cumulative IPC: 0.8213 (Simulation time: 04 hr 40 min 58 sec)
Heartbeat CPU 2 instructions: 1240000002 cycles: 644568774 heartbeat IPC: 2.299 cumulative IPC: 1.868 (Simulation time: 04 hr 41 min 59 sec)
Heartbeat CPU 0 instructions: 760000002 cycles: 648227195 heartbeat IPC: 1.461 cumulative IPC: 1.125 (Simulation time: 04 hr 43 min 29 sec)
Heartbeat CPU 2 instructions: 1250000003 cycles: 649065919 heartbeat IPC: 2.224 cumulative IPC: 1.87 (Simulation time: 04 hr 43 min 50 sec)
Heartbeat CPU 3 instructions: 590000000 cycles: 649150662 heartbeat IPC: 1.469 cumulative IPC: 0.8283 (Simulation time: 04 hr 43 min 52 sec)
Heartbeat CPU 2 instructions: 1260000000 cycles: 653374442 heartbeat IPC: 2.321 cumulative IPC: 1.873 (Simulation time: 04 hr 45 min 45 sec)
Heartbeat CPU 3 instructions: 600000000 cycles: 654153616 heartbeat IPC: 1.999 cumulative IPC: 0.8375 (Simulation time: 04 hr 46 min 07 sec)
Heartbeat CPU 0 instructions: 770000000 cycles: 654911262 heartbeat IPC: 1.496 cumulative IPC: 1.129 (Simulation time: 04 hr 46 min 27 sec)
Heartbeat CPU 2 instructions: 1270000000 cycles: 657659340 heartbeat IPC: 2.334 cumulative IPC: 1.876 (Simulation time: 04 hr 47 min 35 sec)
Heartbeat CPU 0 instructions: 780000002 cycles: 661809778 heartbeat IPC: 1.45 cumulative IPC: 1.132 (Simulation time: 04 hr 49 min 15 sec)
Heartbeat CPU 2 instructions: 1280000001 cycles: 661962419 heartbeat IPC: 2.324 cumulative IPC: 1.879 (Simulation time: 04 hr 49 min 19 sec)
Heartbeat CPU 2 instructions: 1290000003 cycles: 666561030 heartbeat IPC: 2.175 cumulative IPC: 1.881 (Simulation time: 04 hr 51 min 09 sec)
Heartbeat CPU 0 instructions: 790000000 cycles: 669360990 heartbeat IPC: 1.324 cumulative IPC: 1.135 (Simulation time: 04 hr 52 min 18 sec)
Heartbeat CPU 2 instructions: 1300000001 cycles: 670991410 heartbeat IPC: 2.257 cumulative IPC: 1.884 (Simulation time: 04 hr 52 min 58 sec)
Heartbeat CPU 3 instructions: 610000003 cycles: 672788852 heartbeat IPC: 0.5366 cumulative IPC: 0.8289 (Simulation time: 04 hr 53 min 41 sec)
Heartbeat CPU 2 instructions: 1310000003 cycles: 675644213 heartbeat IPC: 2.149 cumulative IPC: 1.886 (Simulation time: 04 hr 54 min 46 sec)
Heartbeat CPU 0 instructions: 800000000 cycles: 677368243 heartbeat IPC: 1.249 cumulative IPC: 1.136 (Simulation time: 04 hr 55 min 25 sec)
Heartbeat CPU 2 instructions: 1320000003 cycles: 680490159 heartbeat IPC: 2.064 cumulative IPC: 1.887 (Simulation time: 04 hr 56 min 35 sec)
Heartbeat CPU 2 instructions: 1330000004 cycles: 685434284 heartbeat IPC: 2.023 cumulative IPC: 1.888 (Simulation time: 04 hr 58 min 21 sec)
Heartbeat CPU 0 instructions: 810000003 cycles: 687940441 heartbeat IPC: 0.9459 cumulative IPC: 1.133 (Simulation time: 04 hr 59 min 13 sec)
Heartbeat CPU 2 instructions: 1340000000 cycles: 690451445 heartbeat IPC: 1.993 cumulative IPC: 1.889 (Simulation time: 05 hr 00 min 06 sec)
Heartbeat CPU 2 instructions: 1350000001 cycles: 695883181 heartbeat IPC: 1.841 cumulative IPC: 1.889 (Simulation time: 05 hr 02 min 00 sec)
Heartbeat CPU 0 instructions: 820000003 cycles: 699342655 heartbeat IPC: 0.877 cumulative IPC: 1.129 (Simulation time: 05 hr 03 min 12 sec)
Heartbeat CPU 2 instructions: 1360000003 cycles: 700890921 heartbeat IPC: 1.997 cumulative IPC: 1.889 (Simulation time: 05 hr 03 min 44 sec)
Heartbeat CPU 2 instructions: 1370000003 cycles: 706274159 heartbeat IPC: 1.858 cumulative IPC: 1.889 (Simulation time: 05 hr 05 min 38 sec)
Heartbeat CPU 0 instructions: 830000001 cycles: 711010511 heartbeat IPC: 0.8571 cumulative IPC: 1.124 (Simulation time: 05 hr 07 min 17 sec)
Heartbeat CPU 2 instructions: 1380000002 cycles: 711716155 heartbeat IPC: 1.838 cumulative IPC: 1.889 (Simulation time: 05 hr 07 min 34 sec)
Heartbeat CPU 2 instructions: 1390000000 cycles: 717154383 heartbeat IPC: 1.839 cumulative IPC: 1.888 (Simulation time: 05 hr 09 min 28 sec)
Heartbeat CPU 1 instructions: 150000001 cycles: 717804174 heartbeat IPC: 0.1253 cumulative IPC: 0.1336 (Simulation time: 05 hr 09 min 42 sec)
Heartbeat CPU 2 instructions: 1400000003 cycles: 722266114 heartbeat IPC: 1.956 cumulative IPC: 1.889 (Simulation time: 05 hr 11 min 16 sec)
Heartbeat CPU 0 instructions: 840000000 cycles: 722490113 heartbeat IPC: 0.8711 cumulative IPC: 1.12 (Simulation time: 05 hr 11 min 20 sec)
Heartbeat CPU 2 instructions: 1410000002 cycles: 727351448 heartbeat IPC: 1.966 cumulative IPC: 1.889 (Simulation time: 05 hr 13 min 01 sec)
Heartbeat CPU 0 instructions: 850000002 cycles: 732113409 heartbeat IPC: 1.039 cumulative IPC: 1.119 (Simulation time: 05 hr 14 min 55 sec)
Heartbeat CPU 2 instructions: 1420000001 cycles: 732460749 heartbeat IPC: 1.957 cumulative IPC: 1.89 (Simulation time: 05 hr 15 min 07 sec)
Heartbeat CPU 3 instructions: 620000001 cycles: 732517511 heartbeat IPC: 0.1674 cumulative IPC: 0.7737 (Simulation time: 05 hr 15 min 09 sec)
Heartbeat CPU 2 instructions: 1430000002 cycles: 737246436 heartbeat IPC: 2.09 cumulative IPC: 1.891 (Simulation time: 05 hr 17 min 09 sec)
Heartbeat CPU 3 instructions: 630000004 cycles: 738454943 heartbeat IPC: 1.684 cumulative IPC: 0.7812 (Simulation time: 05 hr 17 min 43 sec)
Heartbeat CPU 0 instructions: 860000004 cycles: 739182645 heartbeat IPC: 1.415 cumulative IPC: 1.122 (Simulation time: 05 hr 18 min 03 sec)
Heartbeat CPU 2 instructions: 1440000000 cycles: 742109182 heartbeat IPC: 2.056 cumulative IPC: 1.892 (Simulation time: 05 hr 19 min 26 sec)
Heartbeat CPU 3 instructions: 640000004 cycles: 742469851 heartbeat IPC: 2.491 cumulative IPC: 0.7907 (Simulation time: 05 hr 19 min 35 sec)
Heartbeat CPU 0 instructions: 870000002 cycles: 746165160 heartbeat IPC: 1.432 cumulative IPC: 1.125 (Simulation time: 05 hr 21 min 17 sec)
Heartbeat CPU 2 instructions: 1450000001 cycles: 746956590 heartbeat IPC: 2.063 cumulative IPC: 1.893 (Simulation time: 05 hr 21 min 38 sec)
Heartbeat CPU 3 instructions: 650000000 cycles: 747024760 heartbeat IPC: 2.195 cumulative IPC: 0.7994 (Simulation time: 05 hr 21 min 40 sec)
Heartbeat CPU 2 instructions: 1460000004 cycles: 751628098 heartbeat IPC: 2.141 cumulative IPC: 1.895 (Simulation time: 05 hr 23 min 43 sec)
Heartbeat CPU 0 instructions: 880000003 cycles: 752810482 heartbeat IPC: 1.505 cumulative IPC: 1.128 (Simulation time: 05 hr 24 min 15 sec)
Heartbeat CPU 3 instructions: 660000001 cycles: 752865061 heartbeat IPC: 1.712 cumulative IPC: 0.8067 (Simulation time: 05 hr 24 min 17 sec)
Heartbeat CPU 2 instructions: 1470000004 cycles: 756307360 heartbeat IPC: 2.137 cumulative IPC: 1.897 (Simulation time: 05 hr 25 min 50 sec)
Heartbeat CPU 3 instructions: 670000000 cycles: 759035507 heartbeat IPC: 1.621 cumulative IPC: 0.8134 (Simulation time: 05 hr 27 min 01 sec)
Heartbeat CPU 0 instructions: 890000003 cycles: 759373411 heartbeat IPC: 1.524 cumulative IPC: 1.132 (Simulation time: 05 hr 27 min 09 sec)
Heartbeat CPU 2 instructions: 1480000001 cycles: 761133125 heartbeat IPC: 2.072 cumulative IPC: 1.898 (Simulation time: 05 hr 27 min 57 sec)
Heartbeat CPU 3 instructions: 680000001 cycles: 765460581 heartbeat IPC: 1.556 cumulative IPC: 0.8198 (Simulation time: 05 hr 29 min 49 sec)
Heartbeat CPU 2 instructions: 1490000000 cycles: 765892268 heartbeat IPC: 2.101 cumulative IPC: 1.899 (Simulation time: 05 hr 30 min 00 sec)
Heartbeat CPU 0 instructions: 900000001 cycles: 766513250 heartbeat IPC: 1.401 cumulative IPC: 1.134 (Simulation time: 05 hr 30 min 16 sec)
Heartbeat CPU 2 instructions: 1500000003 cycles: 770569990 heartbeat IPC: 2.138 cumulative IPC: 1.9 (Simulation time: 05 hr 32 min 02 sec)
Heartbeat CPU 3 instructions: 690000000 cycles: 771207806 heartbeat IPC: 1.74 cumulative IPC: 0.8268 (Simulation time: 05 hr 32 min 19 sec)
Heartbeat CPU 0 instructions: 910000000 cycles: 773347118 heartbeat IPC: 1.463 cumulative IPC: 1.137 (Simulation time: 05 hr 33 min 16 sec)
Heartbeat CPU 2 instructions: 1510000002 cycles: 775389844 heartbeat IPC: 2.075 cumulative IPC: 1.902 (Simulation time: 05 hr 34 min 03 sec)
Heartbeat CPU 1 instructions: 160000004 cycles: 779620878 heartbeat IPC: 0.1618 cumulative IPC: 0.1359 (Simulation time: 05 hr 35 min 42 sec)
Heartbeat CPU 2 instructions: 1520000001 cycles: 780150467 heartbeat IPC: 2.101 cumulative IPC: 1.903 (Simulation time: 05 hr 35 min 53 sec)
Heartbeat CPU 0 instructions: 920000004 cycles: 780907550 heartbeat IPC: 1.323 cumulative IPC: 1.139 (Simulation time: 05 hr 36 min 12 sec)
Heartbeat CPU 2 instructions: 1530000002 cycles: 784836014 heartbeat IPC: 2.134 cumulative IPC: 1.904 (Simulation time: 05 hr 37 min 42 sec)
Heartbeat CPU 3 instructions: 700000000 cycles: 787537786 heartbeat IPC: 0.6124 cumulative IPC: 0.8223 (Simulation time: 05 hr 38 min 45 sec)
Heartbeat CPU 0 instructions: 930000002 cycles: 789358826 heartbeat IPC: 1.183 cumulative IPC: 1.14 (Simulation time: 05 hr 39 min 28 sec)
Heartbeat CPU 2 instructions: 1540000002 cycles: 789581952 heartbeat IPC: 2.107 cumulative IPC: 1.905 (Simulation time: 05 hr 39 min 32 sec)
Heartbeat CPU 2 instructions: 1550000003 cycles: 794538538 heartbeat IPC: 2.018 cumulative IPC: 1.906 (Simulation time: 05 hr 41 min 27 sec)
Heartbeat CPU 0 instructions: 940000004 cycles: 798685926 heartbeat IPC: 1.072 cumulative IPC: 1.139 (Simulation time: 05 hr 42 min 58 sec)
Heartbeat CPU 2 instructions: 1560000002 cycles: 799494715 heartbeat IPC: 2.018 cumulative IPC: 1.907 (Simulation time: 05 hr 43 min 14 sec)
Heartbeat CPU 2 instructions: 1570000000 cycles: 804438166 heartbeat IPC: 2.023 cumulative IPC: 1.908 (Simulation time: 05 hr 45 min 00 sec)
Heartbeat CPU 0 instructions: 950000000 cycles: 809382521 heartbeat IPC: 0.9349 cumulative IPC: 1.136 (Simulation time: 05 hr 46 min 45 sec)
Heartbeat CPU 2 instructions: 1580000000 cycles: 809440190 heartbeat IPC: 1.999 cumulative IPC: 1.908 (Simulation time: 05 hr 46 min 46 sec)
Heartbeat CPU 2 instructions: 1590000000 cycles: 814773213 heartbeat IPC: 1.875 cumulative IPC: 1.908 (Simulation time: 05 hr 48 min 39 sec)
Heartbeat CPU 2 instructions: 1600000003 cycles: 819842798 heartbeat IPC: 1.973 cumulative IPC: 1.908 (Simulation time: 05 hr 50 min 25 sec)
Heartbeat CPU 0 instructions: 960000000 cycles: 820843088 heartbeat IPC: 0.8726 cumulative IPC: 1.132 (Simulation time: 05 hr 50 min 46 sec)
Heartbeat CPU 2 instructions: 1610000001 cycles: 825267338 heartbeat IPC: 1.843 cumulative IPC: 1.908 (Simulation time: 05 hr 52 min 19 sec)
Heartbeat CPU 2 instructions: 1620000004 cycles: 830252808 heartbeat IPC: 2.006 cumulative IPC: 1.909 (Simulation time: 05 hr 54 min 05 sec)
Heartbeat CPU 0 instructions: 970000002 cycles: 832368483 heartbeat IPC: 0.8676 cumulative IPC: 1.129 (Simulation time: 05 hr 54 min 49 sec)
Heartbeat CPU 2 instructions: 1630000000 cycles: 835710766 heartbeat IPC: 1.832 cumulative IPC: 1.908 (Simulation time: 05 hr 55 min 58 sec)
Heartbeat CPU 2 instructions: 1640000001 cycles: 840758811 heartbeat IPC: 1.981 cumulative IPC: 1.908 (Simulation time: 05 hr 57 min 44 sec)
Heartbeat CPU 0 instructions: 980000001 cycles: 843914949 heartbeat IPC: 0.8661 cumulative IPC: 1.125 (Simulation time: 05 hr 58 min 49 sec)
Heartbeat CPU 2 instructions: 1650000001 cycles: 846132578 heartbeat IPC: 1.861 cumulative IPC: 1.908 (Simulation time: 05 hr 59 min 36 sec)
Heartbeat CPU 3 instructions: 710000000 cycles: 849672099 heartbeat IPC: 0.1609 cumulative IPC: 0.7729 (Simulation time: 06 hr 01 min 00 sec)
Heartbeat CPU 2 instructions: 1660000004 cycles: 851023419 heartbeat IPC: 2.045 cumulative IPC: 1.909 (Simulation time: 06 hr 01 min 35 sec)
Heartbeat CPU 0 instructions: 990000003 cycles: 852239281 heartbeat IPC: 1.201 cumulative IPC: 1.126 (Simulation time: 06 hr 02 min 04 sec)
Heartbeat CPU 2 instructions: 1670000004 cycles: 855940423 heartbeat IPC: 2.034 cumulative IPC: 1.91 (Simulation time: 06 hr 03 min 38 sec)
Heartbeat CPU 3 instructions: 720000002 cycles: 856046337 heartbeat IPC: 1.569 cumulative IPC: 0.779 (Simulation time: 06 hr 03 min 41 sec)
Heartbeat CPU 0 instructions: 1000000004 cycles: 859289558 heartbeat IPC: 1.418 cumulative IPC: 1.128 (Simulation time: 06 hr 05 min 12 sec)
Heartbeat CPU 3 instructions: 730000003 cycles: 860134561 heartbeat IPC: 2.446 cumulative IPC: 0.7871 (Simulation time: 06 hr 05 min 35 sec)
Heartbeat CPU 2 instructions: 1680000000 cycles: 860790557 heartbeat IPC: 2.062 cumulative IPC: 1.911 (Simulation time: 06 hr 05 min 53 sec)
Heartbeat CPU 3 instructions: 740000000 cycles: 864894126 heartbeat IPC: 2.101 cumulative IPC: 0.7944 (Simulation time: 06 hr 07 min 44 sec)
Heartbeat CPU 2 instructions: 1690000003 cycles: 865633325 heartbeat IPC: 2.065 cumulative IPC: 1.911 (Simulation time: 06 hr 08 min 03 sec)
Heartbeat CPU 0 instructions: 1010000001 cycles: 866014452 heartbeat IPC: 1.487 cumulative IPC: 1.131 (Simulation time: 06 hr 08 min 13 sec)
Heartbeat CPU 1 instructions: 170000004 cycles: 867595661 heartbeat IPC: 0.1137 cumulative IPC: 0.1336 (Simulation time: 06 hr 08 min 56 sec)
Heartbeat CPU 2 instructions: 1700000002 cycles: 870416904 heartbeat IPC: 2.09 cumulative IPC: 1.912 (Simulation time: 06 hr 10 min 13 sec)
Heartbeat CPU 3 instructions: 750000003 cycles: 870803815 heartbeat IPC: 1.692 cumulative IPC: 0.8006 (Simulation time: 06 hr 10 min 23 sec)
Heartbeat CPU 0 instructions: 1020000003 cycles: 872950885 heartbeat IPC: 1.442 cumulative IPC: 1.134 (Simulation time: 06 hr 11 min 19 sec)
Heartbeat CPU 2 instructions: 1710000000 cycles: 875183061 heartbeat IPC: 2.098 cumulative IPC: 1.913 (Simulation time: 06 hr 12 min 17 sec)
Heartbeat CPU 3 instructions: 760000000 cycles: 876734553 heartbeat IPC: 1.686 cumulative IPC: 0.8068 (Simulation time: 06 hr 12 min 58 sec)
Heartbeat CPU 0 instructions: 1030000001 cycles: 879488325 heartbeat IPC: 1.53 cumulative IPC: 1.137 (Simulation time: 06 hr 14 min 10 sec)
Heartbeat CPU 2 instructions: 1720000002 cycles: 879974162 heartbeat IPC: 2.087 cumulative IPC: 1.914 (Simulation time: 06 hr 14 min 23 sec)
Heartbeat CPU 3 instructions: 770000003 cycles: 883449090 heartbeat IPC: 1.489 cumulative IPC: 0.812 (Simulation time: 06 hr 15 min 46 sec)
Heartbeat CPU 2 instructions: 1730000001 cycles: 884656690 heartbeat IPC: 2.136 cumulative IPC: 1.916 (Simulation time: 06 hr 16 min 17 sec)
Heartbeat CPU 0 instructions: 1040000001 cycles: 886520046 heartbeat IPC: 1.422 cumulative IPC: 1.139 (Simulation time: 06 hr 17 min 05 sec)
Heartbeat CPU 3 instructions: 780000002 cycles: 889274712 heartbeat IPC: 1.717 cumulative IPC: 0.8181 (Simulation time: 06 hr 18 min 15 sec)
Heartbeat CPU 2 instructions: 1740000002 cycles: 889301897 heartbeat IPC: 2.153 cumulative IPC: 1.917 (Simulation time: 06 hr 18 min 16 sec)
Heartbeat CPU 0 instructions: 1050000000 cycles: 893365835 heartbeat IPC: 1.461 cumulative IPC: 1.141 (Simulation time: 06 hr 20 min 02 sec)
Heartbeat CPU 2 instructions: 1750000001 cycles: 893568959 heartbeat IPC: 2.344 cumulative IPC: 1.919 (Simulation time: 06 hr 20 min 07 sec)
Heartbeat CPU 2 instructions: 1760000003 cycles: 897846533 heartbeat IPC: 2.338 cumulative IPC: 1.921 (Simulation time: 06 hr 21 min 45 sec)
Heartbeat CPU 0 instructions: 1060000001 cycles: 900152757 heartbeat IPC: 1.473 cumulative IPC: 1.144 (Simulation time: 06 hr 22 min 38 sec)
Heartbeat CPU 2 instructions: 1770000001 cycles: 902347351 heartbeat IPC: 2.222 cumulative IPC: 1.923 (Simulation time: 06 hr 23 min 30 sec)
Heartbeat CPU 3 instructions: 790000003 cycles: 902611494 heartbeat IPC: 0.7498 cumulative IPC: 0.8171 (Simulation time: 06 hr 23 min 37 sec)
Heartbeat CPU 2 instructions: 1780000001 cycles: 906562346 heartbeat IPC: 2.372 cumulative IPC: 1.925 (Simulation time: 06 hr 25 min 13 sec)
Heartbeat CPU 0 instructions: 1070000001 cycles: 907845589 heartbeat IPC: 1.3 cumulative IPC: 1.145 (Simulation time: 06 hr 25 min 41 sec)
Heartbeat CPU 2 instructions: 1790000004 cycles: 910828756 heartbeat IPC: 2.344 cumulative IPC: 1.927 (Simulation time: 06 hr 26 min 50 sec)
Heartbeat CPU 2 instructions: 1800000003 cycles: 915151793 heartbeat IPC: 2.313 cumulative IPC: 1.929 (Simulation time: 06 hr 28 min 22 sec)
Heartbeat CPU 0 instructions: 1080000003 cycles: 916661362 heartbeat IPC: 1.134 cumulative IPC: 1.145 (Simulation time: 06 hr 28 min 54 sec)
Heartbeat CPU 2 instructions: 1810000002 cycles: 919889947 heartbeat IPC: 2.111 cumulative IPC: 1.93 (Simulation time: 06 hr 30 min 02 sec)
Heartbeat CPU 2 instructions: 1820000002 cycles: 924182076 heartbeat IPC: 2.33 cumulative IPC: 1.931 (Simulation time: 06 hr 31 min 32 sec)
Heartbeat CPU 0 instructions: 1090000004 cycles: 927695479 heartbeat IPC: 0.9063 cumulative IPC: 1.142 (Simulation time: 06 hr 32 min 46 sec)
Heartbeat CPU 2 instructions: 1830000002 cycles: 929025733 heartbeat IPC: 2.065 cumulative IPC: 1.932 (Simulation time: 06 hr 33 min 13 sec)
Heartbeat CPU 2 instructions: 1840000001 cycles: 933325541 heartbeat IPC: 2.326 cumulative IPC: 1.934 (Simulation time: 06 hr 34 min 46 sec)
Heartbeat CPU 1 instructions: 180000004 cycles: 937371979 heartbeat IPC: 0.1433 cumulative IPC: 0.1343 (Simulation time: 06 hr 36 min 13 sec)
Heartbeat CPU 2 instructions: 1850000001 cycles: 937602618 heartbeat IPC: 2.338 cumulative IPC: 1.936 (Simulation time: 06 hr 36 min 18 sec)
Heartbeat CPU 0 instructions: 1100000003 cycles: 938390511 heartbeat IPC: 0.935 cumulative IPC: 1.14 (Simulation time: 06 hr 36 min 35 sec)
Heartbeat CPU 2 instructions: 1860000001 cycles: 941884807 heartbeat IPC: 2.335 cumulative IPC: 1.938 (Simulation time: 06 hr 37 min 49 sec)
Heartbeat CPU 2 instructions: 1870000002 cycles: 946778984 heartbeat IPC: 2.043 cumulative IPC: 1.938 (Simulation time: 06 hr 39 min 31 sec)
Heartbeat CPU 0 instructions: 1110000003 cycles: 950094315 heartbeat IPC: 0.8544 cumulative IPC: 1.136 (Simulation time: 06 hr 40 min 42 sec)
Heartbeat CPU 2 instructions: 1880000003 cycles: 951120218 heartbeat IPC: 2.303 cumulative IPC: 1.94 (Simulation time: 06 hr 41 min 03 sec)
Heartbeat CPU 2 instructions: 1890000000 cycles: 956806522 heartbeat IPC: 1.759 cumulative IPC: 1.939 (Simulation time: 06 hr 42 min 59 sec)
Heartbeat CPU 2 instructions: 1900000000 cycles: 961196193 heartbeat IPC: 2.278 cumulative IPC: 1.94 (Simulation time: 06 hr 44 min 32 sec)
Heartbeat CPU 0 instructions: 1120000002 cycles: 962201737 heartbeat IPC: 0.8259 cumulative IPC: 1.132 (Simulation time: 06 hr 44 min 51 sec)
Heartbeat CPU 3 instructions: 800000000 cycles: 967436146 heartbeat IPC: 0.1543 cumulative IPC: 0.7718 (Simulation time: 06 hr 46 min 32 sec)
Heartbeat CPU 0 instructions: 1130000002 cycles: 971265405 heartbeat IPC: 1.103 cumulative IPC: 1.132 (Simulation time: 06 hr 47 min 56 sec)
Heartbeat CPU 3 instructions: 810000001 cycles: 974177418 heartbeat IPC: 1.483 cumulative IPC: 0.7769 (Simulation time: 06 hr 49 min 05 sec)
Heartbeat CPU 3 instructions: 820000003 cycles: 978214213 heartbeat IPC: 2.477 cumulative IPC: 0.784 (Simulation time: 06 hr 50 min 45 sec)
Heartbeat CPU 0 instructions: 1140000000 cycles: 979202257 heartbeat IPC: 1.26 cumulative IPC: 1.133 (Simulation time: 06 hr 51 min 07 sec)
Heartbeat CPU 3 instructions: 830000001 cycles: 983571335 heartbeat IPC: 1.867 cumulative IPC: 0.79 (Simulation time: 06 hr 52 min 54 sec)
Heartbeat CPU 2 instructions: 1910000002 cycles: 986032190 heartbeat IPC: 0.4026 cumulative IPC: 1.901 (Simulation time: 06 hr 53 min 57 sec)
Heartbeat CPU 0 instructions: 1150000000 cycles: 986610115 heartbeat IPC: 1.35 cumulative IPC: 1.135 (Simulation time: 06 hr 54 min 11 sec)
Heartbeat CPU 3 instructions: 840000001 cycles: 988950080 heartbeat IPC: 1.859 cumulative IPC: 0.7959 (Simulation time: 06 hr 55 min 11 sec)
Heartbeat CPU 2 instructions: 1920000004 cycles: 990603629 heartbeat IPC: 2.187 cumulative IPC: 1.902 (Simulation time: 06 hr 55 min 54 sec)
Heartbeat CPU 0 instructions: 1160000000 cycles: 993366597 heartbeat IPC: 1.48 cumulative IPC: 1.137 (Simulation time: 06 hr 57 min 07 sec)
Heartbeat CPU 3 instructions: 850000003 cycles: 994795132 heartbeat IPC: 1.711 cumulative IPC: 0.8014 (Simulation time: 06 hr 57 min 43 sec)
Heartbeat CPU 2 instructions: 1930000002 cycles: 994924302 heartbeat IPC: 2.314 cumulative IPC: 1.904 (Simulation time: 06 hr 57 min 47 sec)
Heartbeat CPU 2 instructions: 1940000003 cycles: 999484329 heartbeat IPC: 2.193 cumulative IPC: 1.906 (Simulation time: 06 hr 59 min 43 sec)
Heartbeat CPU 0 instructions: 1170000000 cycles: 1000865706 heartbeat IPC: 1.333 cumulative IPC: 1.139 (Simulation time: 07 hr 00 min 16 sec)
Heartbeat CPU 3 instructions: 860000001 cycles: 1000935041 heartbeat IPC: 1.629 cumulative IPC: 0.8066 (Simulation time: 07 hr 00 min 18 sec)
Heartbeat CPU 2 instructions: 1950000004 cycles: 1003758252 heartbeat IPC: 2.34 cumulative IPC: 1.907 (Simulation time: 07 hr 01 min 27 sec)
Heartbeat CPU 3 instructions: 870000000 cycles: 1007116359 heartbeat IPC: 1.618 cumulative IPC: 0.8116 (Simulation time: 07 hr 02 min 53 sec)
Heartbeat CPU 2 instructions: 1960000000 cycles: 1007998189 heartbeat IPC: 2.359 cumulative IPC: 1.909 (Simulation time: 07 hr 03 min 18 sec)
Heartbeat CPU 0 instructions: 1180000004 cycles: 1008796951 heartbeat IPC: 1.261 cumulative IPC: 1.14 (Simulation time: 07 hr 03 min 38 sec)
Heartbeat CPU 1 instructions: 190000003 cycles: 1012101960 heartbeat IPC: 0.1338 cumulative IPC: 0.1343 (Simulation time: 07 hr 04 min 57 sec)
Heartbeat CPU 2 instructions: 1970000004 cycles: 1012461004 heartbeat IPC: 2.241 cumulative IPC: 1.911 (Simulation time: 07 hr 05 min 04 sec)
Heartbeat CPU 0 instructions: 1190000001 cycles: 1015909945 heartbeat IPC: 1.406 cumulative IPC: 1.141 (Simulation time: 07 hr 06 min 25 sec)
Heartbeat CPU 2 instructions: 1980000000 cycles: 1016728693 heartbeat IPC: 2.343 cumulative IPC: 1.913 (Simulation time: 07 hr 06 min 44 sec)
Heartbeat CPU 3 instructions: 880000000 cycles: 1020165437 heartbeat IPC: 0.7663 cumulative IPC: 0.811 (Simulation time: 07 hr 08 min 04 sec)
Heartbeat CPU 2 instructions: 1990000002 cycles: 1020989907 heartbeat IPC: 2.347 cumulative IPC: 1.914 (Simulation time: 07 hr 08 min 24 sec)
Heartbeat CPU 0 instructions: 1200000001 cycles: 1023512864 heartbeat IPC: 1.315 cumulative IPC: 1.143 (Simulation time: 07 hr 09 min 25 sec)
*** Reached end of trace: (2, "/home/das/dpc3_traces/603.bwaves_s-3699B.champsimtrace.xz")
Heartbeat CPU 2 instructions: 2000000001 cycles: 1025290776 heartbeat IPC: 2.325 cumulative IPC: 1.916 (Simulation time: 07 hr 10 min 06 sec)
Heartbeat CPU 2 instructions: 2010000001 cycles: 1029624910 heartbeat IPC: 2.307 cumulative IPC: 1.918 (Simulation time: 07 hr 11 min 45 sec)
Heartbeat CPU 0 instructions: 1210000002 cycles: 1031692711 heartbeat IPC: 1.223 cumulative IPC: 1.143 (Simulation time: 07 hr 12 min 30 sec)
Heartbeat CPU 0 instructions: 1220000002 cycles: 1043385580 heartbeat IPC: 0.8552 cumulative IPC: 1.14 (Simulation time: 07 hr 16 min 11 sec)
Heartbeat CPU 2 instructions: 2020000004 cycles: 1051597725 heartbeat IPC: 0.4551 cumulative IPC: 1.887 (Simulation time: 07 hr 18 min 50 sec)
Heartbeat CPU 0 instructions: 1230000002 cycles: 1055469961 heartbeat IPC: 0.8275 cumulative IPC: 1.137 (Simulation time: 07 hr 20 min 03 sec)
Heartbeat CPU 0 instructions: 1240000003 cycles: 1067695850 heartbeat IPC: 0.8179 cumulative IPC: 1.133 (Simulation time: 07 hr 23 min 50 sec)
Heartbeat CPU 2 instructions: 2030000000 cycles: 1077476275 heartbeat IPC: 0.3864 cumulative IPC: 1.85 (Simulation time: 07 hr 27 min 02 sec)
Heartbeat CPU 0 instructions: 1250000001 cycles: 1079162168 heartbeat IPC: 0.8721 cumulative IPC: 1.13 (Simulation time: 07 hr 27 min 38 sec)
Heartbeat CPU 2 instructions: 2040000001 cycles: 1082240162 heartbeat IPC: 2.099 cumulative IPC: 1.851 (Simulation time: 07 hr 28 min 45 sec)
Heartbeat CPU 2 instructions: 2050000004 cycles: 1086931305 heartbeat IPC: 2.132 cumulative IPC: 1.853 (Simulation time: 07 hr 30 min 27 sec)
Heartbeat CPU 0 instructions: 1260000000 cycles: 1089145483 heartbeat IPC: 1.002 cumulative IPC: 1.129 (Simulation time: 07 hr 31 min 16 sec)
Heartbeat CPU 3 instructions: 890000004 cycles: 1089290877 heartbeat IPC: 0.1447 cumulative IPC: 0.7681 (Simulation time: 07 hr 31 min 20 sec)
Heartbeat CPU 2 instructions: 2060000001 cycles: 1091355875 heartbeat IPC: 2.26 cumulative IPC: 1.854 (Simulation time: 07 hr 32 min 17 sec)
Heartbeat CPU 3 instructions: 900000000 cycles: 1095117027 heartbeat IPC: 1.716 cumulative IPC: 0.7732 (Simulation time: 07 hr 33 min 52 sec)
Heartbeat CPU 2 instructions: 2070000003 cycles: 1095862089 heartbeat IPC: 2.219 cumulative IPC: 1.856 (Simulation time: 07 hr 34 min 16 sec)
Heartbeat CPU 0 instructions: 1270000003 cycles: 1096367403 heartbeat IPC: 1.385 cumulative IPC: 1.131 (Simulation time: 07 hr 34 min 31 sec)
Heartbeat CPU 3 instructions: 910000000 cycles: 1099148708 heartbeat IPC: 2.48 cumulative IPC: 0.7796 (Simulation time: 07 hr 35 min 54 sec)
Heartbeat CPU 2 instructions: 2080000002 cycles: 1100134364 heartbeat IPC: 2.341 cumulative IPC: 1.858 (Simulation time: 07 hr 36 min 23 sec)
Heartbeat CPU 3 instructions: 920000000 cycles: 1102978068 heartbeat IPC: 2.611 cumulative IPC: 0.786 (Simulation time: 07 hr 37 min 50 sec)
Heartbeat CPU 0 instructions: 1280000000 cycles: 1103254301 heartbeat IPC: 1.452 cumulative IPC: 1.133 (Simulation time: 07 hr 37 min 58 sec)
Heartbeat CPU 1 instructions: 200000003 cycles: 1104249200 heartbeat IPC: 0.1085 cumulative IPC: 0.1321 (Simulation time: 07 hr 38 min 26 sec)
Heartbeat CPU 2 instructions: 2090000000 cycles: 1104628383 heartbeat IPC: 2.225 cumulative IPC: 1.859 (Simulation time: 07 hr 38 min 36 sec)
Heartbeat CPU 3 instructions: 930000001 cycles: 1108383045 heartbeat IPC: 1.85 cumulative IPC: 0.7913 (Simulation time: 07 hr 40 min 18 sec)
Heartbeat CPU 2 instructions: 2100000003 cycles: 1109081337 heartbeat IPC: 2.246 cumulative IPC: 1.861 (Simulation time: 07 hr 40 min 38 sec)
Heartbeat CPU 0 instructions: 1290000000 cycles: 1110043204 heartbeat IPC: 1.473 cumulative IPC: 1.135 (Simulation time: 07 hr 41 min 05 sec)
Heartbeat CPU 2 instructions: 2110000000 cycles: 1113947932 heartbeat IPC: 2.055 cumulative IPC: 1.862 (Simulation time: 07 hr 42 min 52 sec)
Heartbeat CPU 3 instructions: 940000004 cycles: 1114316099 heartbeat IPC: 1.685 cumulative IPC: 0.7961 (Simulation time: 07 hr 43 min 02 sec)
Heartbeat CPU 0 instructions: 1300000002 cycles: 1116907710 heartbeat IPC: 1.457 cumulative IPC: 1.137 (Simulation time: 07 hr 44 min 10 sec)
Heartbeat CPU 2 instructions: 2120000000 cycles: 1118433927 heartbeat IPC: 2.229 cumulative IPC: 1.863 (Simulation time: 07 hr 44 min 52 sec)
Heartbeat CPU 3 instructions: 950000000 cycles: 1120896109 heartbeat IPC: 1.52 cumulative IPC: 0.8004 (Simulation time: 07 hr 45 min 56 sec)
Heartbeat CPU 2 instructions: 2130000004 cycles: 1123300298 heartbeat IPC: 2.055 cumulative IPC: 1.864 (Simulation time: 07 hr 47 min 02 sec)
Heartbeat CPU 0 instructions: 1310000001 cycles: 1123637983 heartbeat IPC: 1.486 cumulative IPC: 1.139 (Simulation time: 07 hr 47 min 11 sec)
Heartbeat CPU 3 instructions: 960000000 cycles: 1127986452 heartbeat IPC: 1.41 cumulative IPC: 0.8043 (Simulation time: 07 hr 49 min 02 sec)
Heartbeat CPU 2 instructions: 2140000001 cycles: 1128170806 heartbeat IPC: 2.053 cumulative IPC: 1.865 (Simulation time: 07 hr 49 min 07 sec)
Heartbeat CPU 0 instructions: 1320000001 cycles: 1130229587 heartbeat IPC: 1.517 cumulative IPC: 1.141 (Simulation time: 07 hr 50 min 07 sec)
Heartbeat CPU 3 instructions: 970000002 cycles: 1132757854 heartbeat IPC: 2.096 cumulative IPC: 0.8099 (Simulation time: 07 hr 51 min 17 sec)
Heartbeat CPU 2 instructions: 2150000001 cycles: 1132787131 heartbeat IPC: 2.166 cumulative IPC: 1.866 (Simulation time: 07 hr 51 min 18 sec)
Heartbeat CPU 0 instructions: 1330000000 cycles: 1137481190 heartbeat IPC: 1.379 cumulative IPC: 1.143 (Simulation time: 07 hr 53 min 15 sec)
Heartbeat CPU 2 instructions: 2160000000 cycles: 1137649315 heartbeat IPC: 2.057 cumulative IPC: 1.867 (Simulation time: 07 hr 53 min 19 sec)
Simulation finished CPU 1 instructions: 150000002 cycles: 1121423373 cumulative IPC: 0.1338 (Simulation time: 07 hr 53 min 42 sec)
Simulation complete CPU 0 instructions: 1281613197 cycles: 1121423373 cumulative IPC: 1.143 (Simulation time: 07 hr 53 min 42 sec)
Simulation complete CPU 1 instructions: 150000002 cycles: 1121423373 cumulative IPC: 0.1338 (Simulation time: 07 hr 53 min 42 sec)
Simulation complete CPU 2 instructions: 2093710691 cycles: 1121423373 cumulative IPC: 1.867 (Simulation time: 07 hr 53 min 42 sec)
Simulation complete CPU 3 instructions: 908224772 cycles: 1121423373 cumulative IPC: 0.8099 (Simulation time: 07 hr 53 min 42 sec)

ChampSim completed all CPUs

=== Simulation ===
CPU 0 runs /home/das/dpc3_traces/644.nab_s-5853B.champsimtrace.xzCPU 1 runs /home/das/dpc3_traces/619.lbm_s-4268B.champsimtrace.xzCPU 2 runs /home/das/dpc3_traces/603.bwaves_s-3699B.champsimtrace.xzCPU 3 runs /home/das/dpc3_traces/627.cam4_s-573B.champsimtrace.xz
Total Simulation Statistics (not including warmup)

CPU 0 cumulative IPC: 1.143 instructions: 1281613197 cycles: 1121423373
CPU 0 Branch Prediction Accuracy: 87.97% MPKI: 11.65 Average ROB Occupancy at Mispredict: 195.7
Branch type MPKI
BRANCH_DIRECT_JUMP: 0.000119
BRANCH_INDIRECT: 7.8e-07
BRANCH_CONDITIONAL: 6.12
BRANCH_DIRECT_CALL: 7.8e-07
BRANCH_INDIRECT_CALL: 0
BRANCH_RETURN: 5.53


CPU 1 cumulative IPC: 0.1338 instructions: 150000002 cycles: 1121423373
CPU 1 Branch Prediction Accuracy: 97.12% MPKI: 0.5201 Average ROB Occupancy at Mispredict: 249.8
Branch type MPKI
BRANCH_DIRECT_JUMP: 0
BRANCH_INDIRECT: 0
BRANCH_CONDITIONAL: 0.52
BRANCH_DIRECT_CALL: 0
BRANCH_INDIRECT_CALL: 0
BRANCH_RETURN: 0


CPU 2 cumulative IPC: 1.867 instructions: 2093710691 cycles: 1121423373
CPU 2 Branch Prediction Accuracy: 90.15% MPKI: 14.3 Average ROB Occupancy at Mispredict: 30.48
Branch type MPKI
BRANCH_DIRECT_JUMP: 0.0566
BRANCH_INDIRECT: 0
BRANCH_CONDITIONAL: 14.2
BRANCH_DIRECT_CALL: 0
BRANCH_INDIRECT_CALL: 0
BRANCH_RETURN: 0.0615


CPU 3 cumulative IPC: 0.8099 instructions: 908224772 cycles: 1121423373
CPU 3 Branch Prediction Accuracy: 94.74% MPKI: 7.113 Average ROB Occupancy at Mispredict: 66.51
Branch type MPKI
BRANCH_DIRECT_JUMP: 0.00523
BRANCH_INDIRECT: 0.00146
BRANCH_CONDITIONAL: 6.45
BRANCH_DIRECT_CALL: 0.0181
BRANCH_INDIRECT_CALL: 0
BRANCH_RETURN: 0.641

LLC TOTAL        ACCESS:     268686 HIT:       1922 MISS:     266764
LLC LOAD         ACCESS:     255080 HIT:       1376 MISS:     253704
LLC RFO          ACCESS:        573 HIT:        214 MISS:        359
LLC PREFETCH     ACCESS:          0 HIT:          0 MISS:          0
LLC WRITE        ACCESS:       9104 HIT:        315 MISS:       8789
LLC TRANSLATION  ACCESS:       3929 HIT:         17 MISS:       3912
LLC PREFETCH REQUESTED:          0 ISSUED:          0 USEFUL:          0 USELESS:          0
LLC AVERAGE MISS LATENCY: 3012 cycles
LLC TOTAL        ACCESS:   12677585 HIT:    5498519 MISS:    7179066
LLC LOAD         ACCESS:    1794698 HIT:         70 MISS:    1794628
LLC RFO          ACCESS:    5441153 HIT:      57529 MISS:    5383624
LLC PREFETCH     ACCESS:          0 HIT:          0 MISS:          0
LLC WRITE        ACCESS:    5440918 HIT:    5440909 MISS:          9
LLC TRANSLATION  ACCESS:        816 HIT:         11 MISS:        805
LLC PREFETCH REQUESTED:          0 ISSUED:          0 USEFUL:          0 USELESS:          0
LLC AVERAGE MISS LATENCY: 3012 cycles
LLC TOTAL        ACCESS:     702443 HIT:     152849 MISS:     549594
LLC LOAD         ACCESS:      63983 HIT:          0 MISS:      63983
LLC RFO          ACCESS:     319162 HIT:          0 MISS:     319162
LLC PREFETCH     ACCESS:          0 HIT:          0 MISS:          0
LLC WRITE        ACCESS:     319246 HIT:     152844 MISS:     166402
LLC TRANSLATION  ACCESS:         52 HIT:          5 MISS:         47
LLC PREFETCH REQUESTED:          0 ISSUED:          0 USEFUL:          0 USELESS:          0
LLC AVERAGE MISS LATENCY: 3012 cycles
LLC TOTAL        ACCESS:    9521686 HIT:    4674676 MISS:    4847010
LLC LOAD         ACCESS:     637930 HIT:     152440 MISS:     485490
LLC RFO          ACCESS:    4403168 HIT:      84204 MISS:    4318964
LLC PREFETCH     ACCESS:          0 HIT:          0 MISS:          0
LLC WRITE        ACCESS:    4465671 HIT:    4436539 MISS:      29132
LLC TRANSLATION  ACCESS:      14917 HIT:       1493 MISS:      13424
LLC PREFETCH REQUESTED:          0 ISSUED:          0 USEFUL:          0 USELESS:          0
LLC AVERAGE MISS LATENCY: 3012 cycles
cpu0_DTLB TOTAL        ACCESS:  227396084 HIT:  225088512 MISS:    2307572
cpu0_DTLB LOAD         ACCESS:  227396084 HIT:  225088512 MISS:    2307572
cpu0_DTLB RFO          ACCESS:          0 HIT:          0 MISS:          0
cpu0_DTLB PREFETCH     ACCESS:          0 HIT:          0 MISS:          0
cpu0_DTLB WRITE        ACCESS:          0 HIT:          0 MISS:          0
cpu0_DTLB TRANSLATION  ACCESS:          0 HIT:          0 MISS:          0
cpu0_DTLB PREFETCH REQUESTED:          0 ISSUED:          0 USEFUL:          0 USELESS:          0
cpu0_DTLB AVERAGE MISS LATENCY: 13.04 cycles
cpu0_DTLB TOTAL        ACCESS:          0 HIT:          0 MISS:          0
cpu0_DTLB LOAD         ACCESS:          0 HIT:          0 MISS:          0
cpu0_DTLB RFO          ACCESS:          0 HIT:          0 MISS:          0
cpu0_DTLB PREFETCH     ACCESS:          0 HIT:          0 MISS:          0
cpu0_DTLB WRITE        ACCESS:          0 HIT:          0 MISS:          0
cpu0_DTLB TRANSLATION  ACCESS:          0 HIT:          0 MISS:          0
cpu0_DTLB PREFETCH REQUESTED:          0 ISSUED:          0 USEFUL:          0 USELESS:          0
cpu0_DTLB AVERAGE MISS LATENCY: 13.04 cycles
cpu0_DTLB TOTAL        ACCESS:          0 HIT:          0 MISS:          0
cpu0_DTLB LOAD         ACCESS:          0 HIT:          0 MISS:          0
cpu0_DTLB RFO          ACCESS:          0 HIT:          0 MISS:          0
cpu0_DTLB PREFETCH     ACCESS:          0 HIT:          0 MISS:          0
cpu0_DTLB WRITE        ACCESS:          0 HIT:          0 MISS:          0
cpu0_DTLB TRANSLATION  ACCESS:          0 HIT:          0 MISS:          0
cpu0_DTLB PREFETCH REQUESTED:          0 ISSUED:          0 USEFUL:          0 USELESS:          0
cpu0_DTLB AVERAGE MISS LATENCY: 13.04 cycles
cpu0_DTLB TOTAL        ACCESS:          0 HIT:          0 MISS:          0
cpu0_DTLB LOAD         ACCESS:          0 HIT:          0 MISS:          0
cpu0_DTLB RFO          ACCESS:          0 HIT:          0 MISS:          0
cpu0_DTLB PREFETCH     ACCESS:          0 HIT:          0 MISS:          0
cpu0_DTLB WRITE        ACCESS:          0 HIT:          0 MISS:          0
cpu0_DTLB TRANSLATION  ACCESS:          0 HIT:          0 MISS:          0
cpu0_DTLB PREFETCH REQUESTED:          0 ISSUED:          0 USEFUL:          0 USELESS:          0
cpu0_DTLB AVERAGE MISS LATENCY: 13.04 cycles
cpu0_ITLB TOTAL        ACCESS:      11933 HIT:      11933 MISS:          0
cpu0_ITLB LOAD         ACCESS:      11933 HIT:      11933 MISS:          0
cpu0_ITLB RFO          ACCESS:          0 HIT:          0 MISS:          0
cpu0_ITLB PREFETCH     ACCESS:          0 HIT:          0 MISS:          0
cpu0_ITLB WRITE        ACCESS:          0 HIT:          0 MISS:          0
cpu0_ITLB TRANSLATION  ACCESS:          0 HIT:          0 MISS:          0
cpu0_ITLB PREFETCH REQUESTED:          0 ISSUED:          0 USEFUL:          0 USELESS:          0
cpu0_ITLB AVERAGE MISS LATENCY: -nan cycles
cpu0_ITLB TOTAL        ACCESS:          0 HIT:          0 MISS:          0
cpu0_ITLB LOAD         ACCESS:          0 HIT:          0 MISS:          0
cpu0_ITLB RFO          ACCESS:          0 HIT:          0 MISS:          0
cpu0_ITLB PREFETCH     ACCESS:          0 HIT:          0 MISS:          0
cpu0_ITLB WRITE        ACCESS:          0 HIT:          0 MISS:          0
cpu0_ITLB TRANSLATION  ACCESS:          0 HIT:          0 MISS:          0
cpu0_ITLB PREFETCH REQUESTED:          0 ISSUED:          0 USEFUL:          0 USELESS:          0
cpu0_ITLB AVERAGE MISS LATENCY: -nan cycles
cpu0_ITLB TOTAL        ACCESS:          0 HIT:          0 MISS:          0
cpu0_ITLB LOAD         ACCESS:          0 HIT:          0 MISS:          0
cpu0_ITLB RFO          ACCESS:          0 HIT:          0 MISS:          0
cpu0_ITLB PREFETCH     ACCESS:          0 HIT:          0 MISS:          0
cpu0_ITLB WRITE        ACCESS:          0 HIT:          0 MISS:          0
cpu0_ITLB TRANSLATION  ACCESS:          0 HIT:          0 MISS:          0
cpu0_ITLB PREFETCH REQUESTED:          0 ISSUED:          0 USEFUL:          0 USELESS:          0
cpu0_ITLB AVERAGE MISS LATENCY: -nan cycles
cpu0_ITLB TOTAL        ACCESS:          0 HIT:          0 MISS:          0
cpu0_ITLB LOAD         ACCESS:          0 HIT:          0 MISS:          0
cpu0_ITLB RFO          ACCESS:          0 HIT:          0 MISS:          0
cpu0_ITLB PREFETCH     ACCESS:          0 HIT:          0 MISS:          0
cpu0_ITLB WRITE        ACCESS:          0 HIT:          0 MISS:          0
cpu0_ITLB TRANSLATION  ACCESS:          0 HIT:          0 MISS:          0
cpu0_ITLB PREFETCH REQUESTED:          0 ISSUED:          0 USEFUL:          0 USELESS:          0
cpu0_ITLB AVERAGE MISS LATENCY: -nan cycles
cpu0_L1D TOTAL        ACCESS:  304056003 HIT:  298864259 MISS:    5191744
cpu0_L1D LOAD         ACCESS:  166104492 HIT:  160985899 MISS:    5118593
cpu0_L1D RFO          ACCESS:          0 HIT:          0 MISS:          0
cpu0_L1D PREFETCH     ACCESS:          0 HIT:          0 MISS:          0
cpu0_L1D WRITE        ACCESS:  137941656 HIT:  137878084 MISS:      63572
cpu0_L1D TRANSLATION  ACCESS:       9855 HIT:        276 MISS:       9579
cpu0_L1D PREFETCH REQUESTED:          0 ISSUED:          0 USEFUL:          0 USELESS:          0
cpu0_L1D AVERAGE MISS LATENCY: 144.9 cycles
cpu0_L1D TOTAL        ACCESS:          0 HIT:          0 MISS:          0
cpu0_L1D LOAD         ACCESS:          0 HIT:          0 MISS:          0
cpu0_L1D RFO          ACCESS:          0 HIT:          0 MISS:          0
cpu0_L1D PREFETCH     ACCESS:          0 HIT:          0 MISS:          0
cpu0_L1D WRITE        ACCESS:          0 HIT:          0 MISS:          0
cpu0_L1D TRANSLATION  ACCESS:          0 HIT:          0 MISS:          0
cpu0_L1D PREFETCH REQUESTED:          0 ISSUED:          0 USEFUL:          0 USELESS:          0
cpu0_L1D AVERAGE MISS LATENCY: 144.9 cycles
cpu0_L1D TOTAL        ACCESS:          0 HIT:          0 MISS:          0
cpu0_L1D LOAD         ACCESS:          0 HIT:          0 MISS:          0
cpu0_L1D RFO          ACCESS:          0 HIT:          0 MISS:          0
cpu0_L1D PREFETCH     ACCESS:          0 HIT:          0 MISS:          0
cpu0_L1D WRITE        ACCESS:          0 HIT:          0 MISS:          0
cpu0_L1D TRANSLATION  ACCESS:          0 HIT:          0 MISS:          0
cpu0_L1D PREFETCH REQUESTED:          0 ISSUED:          0 USEFUL:          0 USELESS:          0
cpu0_L1D AVERAGE MISS LATENCY: 144.9 cycles
cpu0_L1D TOTAL        ACCESS:          0 HIT:          0 MISS:          0
cpu0_L1D LOAD         ACCESS:          0 HIT:          0 MISS:          0
cpu0_L1D RFO          ACCESS:          0 HIT:          0 MISS:          0
cpu0_L1D PREFETCH     ACCESS:          0 HIT:          0 MISS:          0
cpu0_L1D WRITE        ACCESS:          0 HIT:          0 MISS:          0
cpu0_L1D TRANSLATION  ACCESS:          0 HIT:          0 MISS:          0
cpu0_L1D PREFETCH REQUESTED:          0 ISSUED:          0 USEFUL:          0 USELESS:          0
cpu0_L1D AVERAGE MISS LATENCY: 144.9 cycles
cpu0_L1I TOTAL        ACCESS:      14610 HIT:      14608 MISS:          2
cpu0_L1I LOAD         ACCESS:      14610 HIT:      14608 MISS:          2
cpu0_L1I RFO          ACCESS:          0 HIT:          0 MISS:          0
cpu0_L1I PREFETCH     ACCESS:          0 HIT:          0 MISS:          0
cpu0_L1I WRITE        ACCESS:          0 HIT:          0 MISS:          0
cpu0_L1I TRANSLATION  ACCESS:          0 HIT:          0 MISS:          0
cpu0_L1I PREFETCH REQUESTED:          0 ISSUED:          0 USEFUL:          0 USELESS:          0
cpu0_L1I AVERAGE MISS LATENCY: 3789 cycles
cpu0_L1I TOTAL        ACCESS:          0 HIT:          0 MISS:          0
cpu0_L1I LOAD         ACCESS:          0 HIT:          0 MISS:          0
cpu0_L1I RFO          ACCESS:          0 HIT:          0 MISS:          0
cpu0_L1I PREFETCH     ACCESS:          0 HIT:          0 MISS:          0
cpu0_L1I WRITE        ACCESS:          0 HIT:          0 MISS:          0
cpu0_L1I TRANSLATION  ACCESS:          0 HIT:          0 MISS:          0
[...]
cpu2_L1I WRITE        ACCESS:          0 HIT:          0 MISS:          0
cpu2_L1I TRANSLATION  ACCESS:          0 HIT:          0 MISS:          0
cpu2_L1I PREFETCH REQUESTED:          0 ISSUED:          0 USEFUL:          0 USELESS:          0
cpu2_L1I AVERAGE MISS LATENCY: -nan cycles
cpu2_L1I TOTAL        ACCESS:          0 HIT:          0 MISS:          0
cpu2_L1I LOAD         ACCESS:          0 HIT:          0 MISS:          0
cpu2_L1I RFO          ACCESS:          0 HIT:          0 MISS:          0
cpu2_L1I PREFETCH     ACCESS:          0 HIT:          0 MISS:          0
cpu2_L1I WRITE        ACCESS:          0 HIT:          0 MISS:          0
cpu2_L1I TRANSLATION  ACCESS:          0 HIT:          0 MISS:          0
cpu2_L1I PREFETCH REQUESTED:          0 ISSUED:          0 USEFUL:          0 USELESS:          0
cpu2_L1I AVERAGE MISS LATENCY: -nan cycles
cpu2_L2C TOTAL        ACCESS:          0 HIT:          0 MISS:          0
cpu2_L2C LOAD         ACCESS:          0 HIT:          0 MISS:          0
cpu2_L2C RFO          ACCESS:          0 HIT:          0 MISS:          0
cpu2_L2C PREFETCH     ACCESS:          0 HIT:          0 MISS:          0
cpu2_L2C WRITE        ACCESS:          0 HIT:          0 MISS:          0
cpu2_L2C TRANSLATION  ACCESS:          0 HIT:          0 MISS:          0
cpu2_L2C PREFETCH REQUESTED:          0 ISSUED:          0 USEFUL:          0 USELESS:          0
cpu2_L2C AVERAGE MISS LATENCY: 3489 cycles
cpu2_L2C TOTAL        ACCESS:          0 HIT:          0 MISS:          0
cpu2_L2C LOAD         ACCESS:          0 HIT:          0 MISS:          0
cpu2_L2C RFO          ACCESS:          0 HIT:          0 MISS:          0
cpu2_L2C PREFETCH     ACCESS:          0 HIT:          0 MISS:          0
cpu2_L2C WRITE        ACCESS:          0 HIT:          0 MISS:          0
cpu2_L2C TRANSLATION  ACCESS:          0 HIT:          0 MISS:          0
cpu2_L2C PREFETCH REQUESTED:          0 ISSUED:          0 USEFUL:          0 USELESS:          0
cpu2_L2C AVERAGE MISS LATENCY: 3489 cycles
cpu2_L2C TOTAL        ACCESS:      29124 HIT:      13448 MISS:      15676
cpu2_L2C LOAD         ACCESS:       2790 HIT:        173 MISS:       2617
cpu2_L2C RFO          ACCESS:      13149 HIT:        117 MISS:      13032
cpu2_L2C PREFETCH     ACCESS:          0 HIT:          0 MISS:          0
cpu2_L2C WRITE        ACCESS:      13163 HIT:      13138 MISS:         25
cpu2_L2C TRANSLATION  ACCESS:         22 HIT:         20 MISS:          2
cpu2_L2C PREFETCH REQUESTED:          0 ISSUED:          0 USEFUL:          0 USELESS:          0
cpu2_L2C AVERAGE MISS LATENCY: 3489 cycles
cpu2_L2C TOTAL        ACCESS:          0 HIT:          0 MISS:          0
cpu2_L2C LOAD         ACCESS:          0 HIT:          0 MISS:          0
cpu2_L2C RFO          ACCESS:          0 HIT:          0 MISS:          0
cpu2_L2C PREFETCH     ACCESS:          0 HIT:          0 MISS:          0
cpu2_L2C WRITE        ACCESS:          0 HIT:          0 MISS:          0
cpu2_L2C TRANSLATION  ACCESS:          0 HIT:          0 MISS:          0
cpu2_L2C PREFETCH REQUESTED:          0 ISSUED:          0 USEFUL:          0 USELESS:          0
cpu2_L2C AVERAGE MISS LATENCY: 3489 cycles
cpu2_STLB TOTAL        ACCESS:          0 HIT:          0 MISS:          0
cpu2_STLB LOAD         ACCESS:          0 HIT:          0 MISS:          0
cpu2_STLB RFO          ACCESS:          0 HIT:          0 MISS:          0
cpu2_STLB PREFETCH     ACCESS:          0 HIT:          0 MISS:          0
cpu2_STLB WRITE        ACCESS:          0 HIT:          0 MISS:          0
cpu2_STLB TRANSLATION  ACCESS:          0 HIT:          0 MISS:          0
cpu2_STLB PREFETCH REQUESTED:          0 ISSUED:          0 USEFUL:          0 USELESS:          0
cpu2_STLB AVERAGE MISS LATENCY: 186.7 cycles
cpu2_STLB TOTAL        ACCESS:          0 HIT:          0 MISS:          0
cpu2_STLB LOAD         ACCESS:          0 HIT:          0 MISS:          0
cpu2_STLB RFO          ACCESS:          0 HIT:          0 MISS:          0
cpu2_STLB PREFETCH     ACCESS:          0 HIT:          0 MISS:          0
cpu2_STLB WRITE        ACCESS:          0 HIT:          0 MISS:          0
cpu2_STLB TRANSLATION  ACCESS:          0 HIT:          0 MISS:          0
cpu2_STLB PREFETCH REQUESTED:          0 ISSUED:          0 USEFUL:          0 USELESS:          0
cpu2_STLB AVERAGE MISS LATENCY: 186.7 cycles
cpu2_STLB TOTAL        ACCESS:        249 HIT:          4 MISS:        245
cpu2_STLB LOAD         ACCESS:        249 HIT:          4 MISS:        245
cpu2_STLB RFO          ACCESS:          0 HIT:          0 MISS:          0
cpu2_STLB PREFETCH     ACCESS:          0 HIT:          0 MISS:          0
cpu2_STLB WRITE        ACCESS:          0 HIT:          0 MISS:          0
cpu2_STLB TRANSLATION  ACCESS:          0 HIT:          0 MISS:          0
cpu2_STLB PREFETCH REQUESTED:          0 ISSUED:          0 USEFUL:          0 USELESS:          0
cpu2_STLB AVERAGE MISS LATENCY: 186.7 cycles
cpu2_STLB TOTAL        ACCESS:          0 HIT:          0 MISS:          0
cpu2_STLB LOAD         ACCESS:          0 HIT:          0 MISS:          0
cpu2_STLB RFO          ACCESS:          0 HIT:          0 MISS:          0
cpu2_STLB PREFETCH     ACCESS:          0 HIT:          0 MISS:          0
cpu2_STLB WRITE        ACCESS:          0 HIT:          0 MISS:          0
cpu2_STLB TRANSLATION  ACCESS:          0 HIT:          0 MISS:          0
cpu2_STLB PREFETCH REQUESTED:          0 ISSUED:          0 USEFUL:          0 USELESS:          0
cpu2_STLB AVERAGE MISS LATENCY: 186.7 cycles
cpu3_DTLB TOTAL        ACCESS:          0 HIT:          0 MISS:          0
cpu3_DTLB LOAD         ACCESS:          0 HIT:          0 MISS:          0
cpu3_DTLB RFO          ACCESS:          0 HIT:          0 MISS:          0
cpu3_DTLB PREFETCH     ACCESS:          0 HIT:          0 MISS:          0
cpu3_DTLB WRITE        ACCESS:          0 HIT:          0 MISS:          0
cpu3_DTLB TRANSLATION  ACCESS:          0 HIT:          0 MISS:          0
cpu3_DTLB PREFETCH REQUESTED:          0 ISSUED:          0 USEFUL:          0 USELESS:          0
cpu3_DTLB AVERAGE MISS LATENCY: 19.44 cycles
cpu3_DTLB TOTAL        ACCESS:          0 HIT:          0 MISS:          0
cpu3_DTLB LOAD         ACCESS:          0 HIT:          0 MISS:          0
cpu3_DTLB RFO          ACCESS:          0 HIT:          0 MISS:          0
cpu3_DTLB PREFETCH     ACCESS:          0 HIT:          0 MISS:          0
cpu3_DTLB WRITE        ACCESS:          0 HIT:          0 MISS:          0
cpu3_DTLB TRANSLATION  ACCESS:          0 HIT:          0 MISS:          0
cpu3_DTLB PREFETCH REQUESTED:          0 ISSUED:          0 USEFUL:          0 USELESS:          0
cpu3_DTLB AVERAGE MISS LATENCY: 19.44 cycles
cpu3_DTLB TOTAL        ACCESS:          0 HIT:          0 MISS:          0
cpu3_DTLB LOAD         ACCESS:          0 HIT:          0 MISS:          0
cpu3_DTLB RFO          ACCESS:          0 HIT:          0 MISS:          0
cpu3_DTLB PREFETCH     ACCESS:          0 HIT:          0 MISS:          0
cpu3_DTLB WRITE        ACCESS:          0 HIT:          0 MISS:          0
cpu3_DTLB TRANSLATION  ACCESS:          0 HIT:          0 MISS:          0
cpu3_DTLB PREFETCH REQUESTED:          0 ISSUED:          0 USEFUL:          0 USELESS:          0
cpu3_DTLB AVERAGE MISS LATENCY: 19.44 cycles
cpu3_DTLB TOTAL        ACCESS:   22296851 HIT:   22009371 MISS:     287480
cpu3_DTLB LOAD         ACCESS:   22296851 HIT:   22009371 MISS:     287480
cpu3_DTLB RFO          ACCESS:          0 HIT:          0 MISS:          0
cpu3_DTLB PREFETCH     ACCESS:          0 HIT:          0 MISS:          0
cpu3_DTLB WRITE        ACCESS:          0 HIT:          0 MISS:          0
cpu3_DTLB TRANSLATION  ACCESS:          0 HIT:          0 MISS:          0
cpu3_DTLB PREFETCH REQUESTED:          0 ISSUED:          0 USEFUL:          0 USELESS:          0
cpu3_DTLB AVERAGE MISS LATENCY: 19.44 cycles
cpu3_ITLB TOTAL        ACCESS:          0 HIT:          0 MISS:          0
cpu3_ITLB LOAD         ACCESS:          0 HIT:          0 MISS:          0
cpu3_ITLB RFO          ACCESS:          0 HIT:          0 MISS:          0
cpu3_ITLB PREFETCH     ACCESS:          0 HIT:          0 MISS:          0
cpu3_ITLB WRITE        ACCESS:          0 HIT:          0 MISS:          0
cpu3_ITLB TRANSLATION  ACCESS:          0 HIT:          0 MISS:          0
cpu3_ITLB PREFETCH REQUESTED:          0 ISSUED:          0 USEFUL:          0 USELESS:          0
cpu3_ITLB AVERAGE MISS LATENCY: 134 cycles
cpu3_ITLB TOTAL        ACCESS:          0 HIT:          0 MISS:          0
cpu3_ITLB LOAD         ACCESS:          0 HIT:          0 MISS:          0
cpu3_ITLB RFO          ACCESS:          0 HIT:          0 MISS:          0
cpu3_ITLB PREFETCH     ACCESS:          0 HIT:          0 MISS:          0
cpu3_ITLB WRITE        ACCESS:          0 HIT:          0 MISS:          0
cpu3_ITLB TRANSLATION  ACCESS:          0 HIT:          0 MISS:          0
cpu3_ITLB PREFETCH REQUESTED:          0 ISSUED:          0 USEFUL:          0 USELESS:          0
cpu3_ITLB AVERAGE MISS LATENCY: 134 cycles
cpu3_ITLB TOTAL        ACCESS:          0 HIT:          0 MISS:          0
cpu3_ITLB LOAD         ACCESS:          0 HIT:          0 MISS:          0
cpu3_ITLB RFO          ACCESS:          0 HIT:          0 MISS:          0
cpu3_ITLB PREFETCH     ACCESS:          0 HIT:          0 MISS:          0
cpu3_ITLB WRITE        ACCESS:          0 HIT:          0 MISS:          0
cpu3_ITLB TRANSLATION  ACCESS:          0 HIT:          0 MISS:          0
cpu3_ITLB PREFETCH REQUESTED:          0 ISSUED:          0 USEFUL:          0 USELESS:          0
cpu3_ITLB AVERAGE MISS LATENCY: 134 cycles
cpu3_ITLB TOTAL        ACCESS:    2492543 HIT:    2488942 MISS:       3601
cpu3_ITLB LOAD         ACCESS:    2492543 HIT:    2488942 MISS:       3601
cpu3_ITLB RFO          ACCESS:          0 HIT:          0 MISS:          0
cpu3_ITLB PREFETCH     ACCESS:          0 HIT:          0 MISS:          0
cpu3_ITLB WRITE        ACCESS:          0 HIT:          0 MISS:          0
cpu3_ITLB TRANSLATION  ACCESS:          0 HIT:          0 MISS:          0
cpu3_ITLB PREFETCH REQUESTED:          0 ISSUED:          0 USEFUL:          0 USELESS:          0
cpu3_ITLB AVERAGE MISS LATENCY: 134 cycles
cpu3_L1D TOTAL        ACCESS:          0 HIT:          0 MISS:          0
cpu3_L1D LOAD         ACCESS:          0 HIT:          0 MISS:          0
cpu3_L1D RFO          ACCESS:          0 HIT:          0 MISS:          0
cpu3_L1D PREFETCH     ACCESS:          0 HIT:          0 MISS:          0
cpu3_L1D WRITE        ACCESS:          0 HIT:          0 MISS:          0
cpu3_L1D TRANSLATION  ACCESS:          0 HIT:          0 MISS:          0
cpu3_L1D PREFETCH REQUESTED:          0 ISSUED:          0 USEFUL:          0 USELESS:          0
cpu3_L1D AVERAGE MISS LATENCY: 672.3 cycles
cpu3_L1D TOTAL        ACCESS:          0 HIT:          0 MISS:          0
cpu3_L1D LOAD         ACCESS:          0 HIT:          0 MISS:          0
cpu3_L1D RFO          ACCESS:          0 HIT:          0 MISS:          0
cpu3_L1D PREFETCH     ACCESS:          0 HIT:          0 MISS:          0
cpu3_L1D WRITE        ACCESS:          0 HIT:          0 MISS:          0
cpu3_L1D TRANSLATION  ACCESS:          0 HIT:          0 MISS:          0
cpu3_L1D PREFETCH REQUESTED:          0 ISSUED:          0 USEFUL:          0 USELESS:          0
cpu3_L1D AVERAGE MISS LATENCY: 672.3 cycles
cpu3_L1D TOTAL        ACCESS:          0 HIT:          0 MISS:          0
cpu3_L1D LOAD         ACCESS:          0 HIT:          0 MISS:          0
cpu3_L1D RFO          ACCESS:          0 HIT:          0 MISS:          0
cpu3_L1D PREFETCH     ACCESS:          0 HIT:          0 MISS:          0
cpu3_L1D WRITE        ACCESS:          0 HIT:          0 MISS:          0
cpu3_L1D TRANSLATION  ACCESS:          0 HIT:          0 MISS:          0
cpu3_L1D PREFETCH REQUESTED:          0 ISSUED:          0 USEFUL:          0 USELESS:          0
cpu3_L1D AVERAGE MISS LATENCY: 672.3 cycles
cpu3_L1D TOTAL        ACCESS:   29734205 HIT:   24136390 MISS:    5597815
cpu3_L1D LOAD         ACCESS:   14534905 HIT:   13726227 MISS:     808678
cpu3_L1D RFO          ACCESS:          0 HIT:          0 MISS:          0
cpu3_L1D PREFETCH     ACCESS:          0 HIT:          0 MISS:          0
cpu3_L1D WRITE        ACCESS:   15179914 HIT:   10394967 MISS:    4784947
cpu3_L1D TRANSLATION  ACCESS:      19386 HIT:      15196 MISS:       4190
cpu3_L1D PREFETCH REQUESTED:          0 ISSUED:          0 USEFUL:          0 USELESS:          0
cpu3_L1D AVERAGE MISS LATENCY: 672.3 cycles
cpu3_L1I TOTAL        ACCESS:          0 HIT:          0 MISS:          0
cpu3_L1I LOAD         ACCESS:          0 HIT:          0 MISS:          0
cpu3_L1I RFO          ACCESS:          0 HIT:          0 MISS:          0
cpu3_L1I PREFETCH     ACCESS:          0 HIT:          0 MISS:          0
cpu3_L1I WRITE        ACCESS:          0 HIT:          0 MISS:          0
cpu3_L1I TRANSLATION  ACCESS:          0 HIT:          0 MISS:          0
cpu3_L1I PREFETCH REQUESTED:          0 ISSUED:          0 USEFUL:          0 USELESS:          0
cpu3_L1I AVERAGE MISS LATENCY: 367.2 cycles
cpu3_L1I TOTAL        ACCESS:          0 HIT:          0 MISS:          0
cpu3_L1I LOAD         ACCESS:          0 HIT:          0 MISS:          0
cpu3_L1I RFO          ACCESS:          0 HIT:          0 MISS:          0
cpu3_L1I PREFETCH     ACCESS:          0 HIT:          0 MISS:          0
cpu3_L1I WRITE        ACCESS:          0 HIT:          0 MISS:          0
cpu3_L1I TRANSLATION  ACCESS:          0 HIT:          0 MISS:          0
cpu3_L1I PREFETCH REQUESTED:          0 ISSUED:          0 USEFUL:          0 USELESS:          0
cpu3_L1I AVERAGE MISS LATENCY: 367.2 cycles
cpu3_L1I TOTAL        ACCESS:          0 HIT:          0 MISS:          0
cpu3_L1I LOAD         ACCESS:          0 HIT:          0 MISS:          0
cpu3_L1I RFO          ACCESS:          0 HIT:          0 MISS:          0
cpu3_L1I PREFETCH     ACCESS:          0 HIT:          0 MISS:          0
cpu3_L1I WRITE        ACCESS:          0 HIT:          0 MISS:          0
cpu3_L1I TRANSLATION  ACCESS:          0 HIT:          0 MISS:          0
cpu3_L1I PREFETCH REQUESTED:          0 ISSUED:          0 USEFUL:          0 USELESS:          0
cpu3_L1I AVERAGE MISS LATENCY: 367.2 cycles
cpu3_L1I TOTAL        ACCESS:    3118526 HIT:    3039785 MISS:      78741
cpu3_L1I LOAD         ACCESS:    3118526 HIT:    3039785 MISS:      78741
cpu3_L1I RFO          ACCESS:          0 HIT:          0 MISS:          0
cpu3_L1I PREFETCH     ACCESS:          0 HIT:          0 MISS:          0
cpu3_L1I WRITE        ACCESS:          0 HIT:          0 MISS:          0
cpu3_L1I TRANSLATION  ACCESS:          0 HIT:          0 MISS:          0
cpu3_L1I PREFETCH REQUESTED:          0 ISSUED:          0 USEFUL:          0 USELESS:          0
cpu3_L1I AVERAGE MISS LATENCY: 367.2 cycles
cpu3_L2C TOTAL        ACCESS:          0 HIT:          0 MISS:          0
cpu3_L2C LOAD         ACCESS:          0 HIT:          0 MISS:          0
cpu3_L2C RFO          ACCESS:          0 HIT:          0 MISS:          0
cpu3_L2C PREFETCH     ACCESS:          0 HIT:          0 MISS:          0
cpu3_L2C WRITE        ACCESS:          0 HIT:          0 MISS:          0
cpu3_L2C TRANSLATION  ACCESS:          0 HIT:          0 MISS:          0
cpu3_L2C PREFETCH REQUESTED:          0 ISSUED:          0 USEFUL:          0 USELESS:          0
cpu3_L2C AVERAGE MISS LATENCY: 3575 cycles
cpu3_L2C TOTAL        ACCESS:          0 HIT:          0 MISS:          0
cpu3_L2C LOAD         ACCESS:          0 HIT:          0 MISS:          0
cpu3_L2C RFO          ACCESS:          0 HIT:          0 MISS:          0
cpu3_L2C PREFETCH     ACCESS:          0 HIT:          0 MISS:          0
cpu3_L2C WRITE        ACCESS:          0 HIT:          0 MISS:          0
cpu3_L2C TRANSLATION  ACCESS:          0 HIT:          0 MISS:          0
cpu3_L2C PREFETCH REQUESTED:          0 ISSUED:          0 USEFUL:          0 USELESS:          0
cpu3_L2C AVERAGE MISS LATENCY: 3575 cycles
cpu3_L2C TOTAL        ACCESS:          0 HIT:          0 MISS:          0
cpu3_L2C LOAD         ACCESS:          0 HIT:          0 MISS:          0
cpu3_L2C RFO          ACCESS:          0 HIT:          0 MISS:          0
cpu3_L2C PREFETCH     ACCESS:          0 HIT:          0 MISS:          0
cpu3_L2C WRITE        ACCESS:          0 HIT:          0 MISS:          0
cpu3_L2C TRANSLATION  ACCESS:          0 HIT:          0 MISS:          0
cpu3_L2C PREFETCH REQUESTED:          0 ISSUED:          0 USEFUL:          0 USELESS:          0
cpu3_L2C AVERAGE MISS LATENCY: 3575 cycles
cpu3_L2C TOTAL        ACCESS:    3085394 HIT:    1991236 MISS:    1094158
cpu3_L2C LOAD         ACCESS:     598238 HIT:     478612 MISS:     119626
cpu3_L2C RFO          ACCESS:    1203224 HIT:     231804 MISS:     971420
cpu3_L2C PREFETCH     ACCESS:          0 HIT:          0 MISS:          0
cpu3_L2C WRITE        ACCESS:    1279777 HIT:    1279710 MISS:         67
cpu3_L2C TRANSLATION  ACCESS:       4155 HIT:       1110 MISS:       3045
cpu3_L2C PREFETCH REQUESTED:          0 ISSUED:          0 USEFUL:          0 USELESS:          0
cpu3_L2C AVERAGE MISS LATENCY: 3575 cycles
cpu3_STLB TOTAL        ACCESS:          0 HIT:          0 MISS:          0
cpu3_STLB LOAD         ACCESS:          0 HIT:          0 MISS:          0
cpu3_STLB RFO          ACCESS:          0 HIT:          0 MISS:          0
cpu3_STLB PREFETCH     ACCESS:          0 HIT:          0 MISS:          0
cpu3_STLB WRITE        ACCESS:          0 HIT:          0 MISS:          0
cpu3_STLB TRANSLATION  ACCESS:          0 HIT:          0 MISS:          0
cpu3_STLB PREFETCH REQUESTED:          0 ISSUED:          0 USEFUL:          0 USELESS:          0
cpu3_STLB AVERAGE MISS LATENCY: 335.1 cycles
cpu3_STLB TOTAL        ACCESS:          0 HIT:          0 MISS:          0
cpu3_STLB LOAD         ACCESS:          0 HIT:          0 MISS:          0
cpu3_STLB RFO          ACCESS:          0 HIT:          0 MISS:          0
cpu3_STLB PREFETCH     ACCESS:          0 HIT:          0 MISS:          0
cpu3_STLB WRITE        ACCESS:          0 HIT:          0 MISS:          0
cpu3_STLB TRANSLATION  ACCESS:          0 HIT:          0 MISS:          0
cpu3_STLB PREFETCH REQUESTED:          0 ISSUED:          0 USEFUL:          0 USELESS:          0
cpu3_STLB AVERAGE MISS LATENCY: 335.1 cycles
cpu3_STLB TOTAL        ACCESS:          0 HIT:          0 MISS:          0
cpu3_STLB LOAD         ACCESS:          0 HIT:          0 MISS:          0
cpu3_STLB RFO          ACCESS:          0 HIT:          0 MISS:          0
cpu3_STLB PREFETCH     ACCESS:          0 HIT:          0 MISS:          0
cpu3_STLB WRITE        ACCESS:          0 HIT:          0 MISS:          0
cpu3_STLB TRANSLATION  ACCESS:          0 HIT:          0 MISS:          0
cpu3_STLB PREFETCH REQUESTED:          0 ISSUED:          0 USEFUL:          0 USELESS:          0
cpu3_STLB AVERAGE MISS LATENCY: 335.1 cycles
cpu3_STLB TOTAL        ACCESS:     102920 HIT:      83904 MISS:      19016
cpu3_STLB LOAD         ACCESS:     102920 HIT:      83904 MISS:      19016
cpu3_STLB RFO          ACCESS:          0 HIT:          0 MISS:          0
cpu3_STLB PREFETCH     ACCESS:          0 HIT:          0 MISS:          0
cpu3_STLB WRITE        ACCESS:          0 HIT:          0 MISS:          0
cpu3_STLB TRANSLATION  ACCESS:          0 HIT:          0 MISS:          0
cpu3_STLB PREFETCH REQUESTED:          0 ISSUED:          0 USEFUL:          0 USELESS:          0
cpu3_STLB AVERAGE MISS LATENCY: 335.1 cycles

DRAM Statistics

Channel 0 RQ ROW_BUFFER_HIT:    1801627
  ROW_BUFFER_MISS:   10836425
 AVG DBUS CONGESTED CYCLE: 3.996
WQ ROW_BUFFER_HIT: Channel 0 
  ROW_BUFFER_MISS:     507758
  FULL:    9572856
