WARNING: physical memory size is smaller than virtual memory size.
WARNING: option --warmup_instructions is deprecated. Use --warmup-instructions instead.
WARNING: option --simulation_instructions is deprecated. Use --simulation-instructions instead.

*** ChampSim Multicore Out-of-Order Simulator ***
Warmup Instructions: 50000000
Simulation Instructions: 150000000
Number of CPUs: 4
Page size: 4096

Off-chip DRAM Size: 4 GiB Channels: 1 Width: 64-bit Data Race: 3200 MT/s
Heartbeat CPU 3 instructions: 10000002 cycles: 2502901 heartbeat IPC: 3.995 cumulative IPC: 3.995 (Simulation time: 00 hr 01 min 59 sec)
Heartbeat CPU 2 instructions: 10000003 cycles: 2724936 heartbeat IPC: 3.67 cumulative IPC: 3.67 (Simulation time: 00 hr 02 min 10 sec)
Heartbeat CPU 0 instructions: 10000002 cycles: 3386558 heartbeat IPC: 2.953 cumulative IPC: 2.953 (Simulation time: 00 hr 02 min 43 sec)
Heartbeat CPU 1 instructions: 10000003 cycles: 3682247 heartbeat IPC: 2.716 cumulative IPC: 2.716 (Simulation time: 00 hr 02 min 57 sec)
Heartbeat CPU 3 instructions: 20000001 cycles: 5005630 heartbeat IPC: 3.996 cumulative IPC: 3.996 (Simulation time: 00 hr 04 min 04 sec)
Heartbeat CPU 2 instructions: 20000003 cycles: 5241593 heartbeat IPC: 3.974 cumulative IPC: 3.816 (Simulation time: 00 hr 04 min 16 sec)
Heartbeat CPU 0 instructions: 20000001 cycles: 6765218 heartbeat IPC: 2.96 cumulative IPC: 2.956 (Simulation time: 00 hr 05 min 31 sec)
Heartbeat CPU 1 instructions: 20000002 cycles: 7364062 heartbeat IPC: 2.716 cumulative IPC: 2.716 (Simulation time: 00 hr 06 min 01 sec)
Heartbeat CPU 3 instructions: 30000003 cycles: 7507965 heartbeat IPC: 3.996 cumulative IPC: 3.996 (Simulation time: 00 hr 06 min 09 sec)
Heartbeat CPU 2 instructions: 30000000 cycles: 7757963 heartbeat IPC: 3.974 cumulative IPC: 3.867 (Simulation time: 00 hr 06 min 22 sec)
Heartbeat CPU 3 instructions: 40000002 cycles: 10010596 heartbeat IPC: 3.996 cumulative IPC: 3.996 (Simulation time: 00 hr 08 min 13 sec)
Heartbeat CPU 0 instructions: 30000001 cycles: 10127935 heartbeat IPC: 2.974 cumulative IPC: 2.962 (Simulation time: 00 hr 08 min 19 sec)
Heartbeat CPU 2 instructions: 40000002 cycles: 10280698 heartbeat IPC: 3.964 cumulative IPC: 3.891 (Simulation time: 00 hr 08 min 27 sec)
Heartbeat CPU 1 instructions: 30000002 cycles: 11047084 heartbeat IPC: 2.715 cumulative IPC: 2.716 (Simulation time: 00 hr 09 min 03 sec)
Heartbeat CPU 3 instructions: 50000003 cycles: 12513315 heartbeat IPC: 3.996 cumulative IPC: 3.996 (Simulation time: 00 hr 10 min 19 sec)
Warmup finished CPU 3 instructions: 50000003 cycles: 12513316 cumulative IPC: 3.996 (Simulation time: 00 hr 10 min 19 sec)
Heartbeat CPU 2 instructions: 50000001 cycles: 12834505 heartbeat IPC: 3.916 cumulative IPC: 3.896 (Simulation time: 00 hr 10 min 35 sec)
Warmup finished CPU 2 instructions: 50000001 cycles: 12834506 cumulative IPC: 3.896 (Simulation time: 00 hr 10 min 35 sec)
Heartbeat CPU 0 instructions: 40000001 cycles: 13525095 heartbeat IPC: 2.944 cumulative IPC: 2.957 (Simulation time: 00 hr 11 min 13 sec)
Heartbeat CPU 1 instructions: 40000000 cycles: 14727701 heartbeat IPC: 2.717 cumulative IPC: 2.716 (Simulation time: 00 hr 12 min 15 sec)
Heartbeat CPU 3 instructions: 60000001 cycles: 15015958 heartbeat IPC: 3.996 cumulative IPC: 3.996 (Simulation time: 00 hr 12 min 29 sec)
Heartbeat CPU 2 instructions: 60000000 cycles: 15394419 heartbeat IPC: 3.906 cumulative IPC: 3.898 (Simulation time: 00 hr 12 min 48 sec)
Heartbeat CPU 0 instructions: 50000002 cycles: 16927628 heartbeat IPC: 2.939 cumulative IPC: 2.954 (Simulation time: 00 hr 14 min 17 sec)
Warmup finished CPU 0 instructions: 50000002 cycles: 16927629 cumulative IPC: 2.954 (Simulation time: 00 hr 14 min 17 sec)
Heartbeat CPU 3 instructions: 70000002 cycles: 17520753 heartbeat IPC: 3.992 cumulative IPC: 3.995 (Simulation time: 00 hr 14 min 48 sec)
Heartbeat CPU 2 instructions: 70000001 cycles: 17935220 heartbeat IPC: 3.936 cumulative IPC: 3.903 (Simulation time: 00 hr 15 min 11 sec)
Heartbeat CPU 1 instructions: 50000002 cycles: 18410724 heartbeat IPC: 2.715 cumulative IPC: 2.716 (Simulation time: 00 hr 15 min 35 sec)
Warmup finished CPU 1 instructions: 50000002 cycles: 18410725 cumulative IPC: 2.716 (Simulation time: 00 hr 15 min 35 sec)
Warmup complete CPU 0 instructions: 54320614 cycles: 18410725 cumulative IPC: 2.95 (Simulation time: 00 hr 15 min 35 sec)
Warmup complete CPU 1 instructions: 50000002 cycles: 18410725 cumulative IPC: 2.716 (Simulation time: 00 hr 15 min 35 sec)
Warmup complete CPU 2 instructions: 71891990 cycles: 18410725 cumulative IPC: 3.905 (Simulation time: 00 hr 15 min 35 sec)
Warmup complete CPU 3 instructions: 73559886 cycles: 18410725 cumulative IPC: 3.995 (Simulation time: 00 hr 15 min 35 sec)
Heartbeat CPU 3 instructions: 80000001 cycles: 21535158 heartbeat IPC: 2.491 cumulative IPC: 2.061 (Simulation time: 00 hr 17 min 11 sec)
Heartbeat CPU 3 instructions: 90000002 cycles: 26444133 heartbeat IPC: 2.037 cumulative IPC: 2.046 (Simulation time: 00 hr 19 min 25 sec)
Heartbeat CPU 2 instructions: 80000003 cycles: 27194276 heartbeat IPC: 1.08 cumulative IPC: 0.9231 (Simulation time: 00 hr 19 min 49 sec)
Heartbeat CPU 3 instructions: 100000000 cycles: 31298700 heartbeat IPC: 2.06 cumulative IPC: 2.052 (Simulation time: 00 hr 21 min 44 sec)
Heartbeat CPU 2 instructions: 90000003 cycles: 32862091 heartbeat IPC: 1.764 cumulative IPC: 1.253 (Simulation time: 00 hr 22 min 33 sec)
Heartbeat CPU 3 instructions: 110000001 cycles: 36126273 heartbeat IPC: 2.071 cumulative IPC: 2.057 (Simulation time: 00 hr 24 min 01 sec)
Heartbeat CPU 3 instructions: 120000000 cycles: 40886271 heartbeat IPC: 2.101 cumulative IPC: 2.066 (Simulation time: 00 hr 26 min 07 sec)
Heartbeat CPU 1 instructions: 60000004 cycles: 42135707 heartbeat IPC: 0.4215 cumulative IPC: 0.4215 (Simulation time: 00 hr 26 min 39 sec)
Heartbeat CPU 3 instructions: 130000002 cycles: 45670464 heartbeat IPC: 2.09 cumulative IPC: 2.07 (Simulation time: 00 hr 28 min 17 sec)
Heartbeat CPU 3 instructions: 140000000 cycles: 50652904 heartbeat IPC: 2.007 cumulative IPC: 2.061 (Simulation time: 00 hr 30 min 27 sec)
Heartbeat CPU 3 instructions: 150000004 cycles: 55402140 heartbeat IPC: 2.106 cumulative IPC: 2.066 (Simulation time: 00 hr 32 min 43 sec)
Heartbeat CPU 3 instructions: 160000003 cycles: 60146590 heartbeat IPC: 2.108 cumulative IPC: 2.071 (Simulation time: 00 hr 34 min 56 sec)
Heartbeat CPU 2 instructions: 100000000 cycles: 62946303 heartbeat IPC: 0.3324 cumulative IPC: 0.6311 (Simulation time: 00 hr 36 min 09 sec)
Heartbeat CPU 3 instructions: 170000003 cycles: 64924438 heartbeat IPC: 2.093 cumulative IPC: 2.073 (Simulation time: 00 hr 37 min 09 sec)
Heartbeat CPU 0 instructions: 60000004 cycles: 66057137 heartbeat IPC: 0.2035 cumulative IPC: 0.1192 (Simulation time: 00 hr 37 min 38 sec)
Heartbeat CPU 1 instructions: 70000000 cycles: 68076503 heartbeat IPC: 0.3855 cumulative IPC: 0.4027 (Simulation time: 00 hr 38 min 28 sec)
Heartbeat CPU 3 instructions: 180000004 cycles: 69810340 heartbeat IPC: 2.047 cumulative IPC: 2.071 (Simulation time: 00 hr 39 min 08 sec)
Heartbeat CPU 3 instructions: 190000002 cycles: 74717314 heartbeat IPC: 2.038 cumulative IPC: 2.068 (Simulation time: 00 hr 41 min 21 sec)
Heartbeat CPU 3 instructions: 200000000 cycles: 79888020 heartbeat IPC: 1.934 cumulative IPC: 2.057 (Simulation time: 00 hr 43 min 29 sec)
Heartbeat CPU 3 instructions: 210000000 cycles: 84764200 heartbeat IPC: 2.051 cumulative IPC: 2.056 (Simulation time: 00 hr 45 min 36 sec)
Heartbeat CPU 3 instructions: 220000000 cycles: 89616368 heartbeat IPC: 2.061 cumulative IPC: 2.057 (Simulation time: 00 hr 47 min 37 sec)
Simulation finished CPU 3 instructions: 150000000 cycles: 72857412 cumulative IPC: 2.059 (Simulation time: 00 hr 48 min 16 sec)
Heartbeat CPU 3 instructions: 230000001 cycles: 94493576 heartbeat IPC: 2.05 cumulative IPC: 2.056 (Simulation time: 00 hr 49 min 39 sec)
Heartbeat CPU 3 instructions: 240000000 cycles: 99412525 heartbeat IPC: 2.033 cumulative IPC: 2.055 (Simulation time: 00 hr 51 min 40 sec)
Heartbeat CPU 3 instructions: 250000002 cycles: 104310955 heartbeat IPC: 2.041 cumulative IPC: 2.054 (Simulation time: 00 hr 53 min 45 sec)
Heartbeat CPU 1 instructions: 80000000 cycles: 107816868 heartbeat IPC: 0.2516 cumulative IPC: 0.3355 (Simulation time: 00 hr 55 min 09 sec)
Heartbeat CPU 3 instructions: 260000000 cycles: 109449809 heartbeat IPC: 1.946 cumulative IPC: 2.048 (Simulation time: 00 hr 55 min 51 sec)
Heartbeat CPU 3 instructions: 270000000 cycles: 114340617 heartbeat IPC: 2.045 cumulative IPC: 2.048 (Simulation time: 00 hr 57 min 50 sec)
Heartbeat CPU 3 instructions: 280000001 cycles: 119253168 heartbeat IPC: 2.036 cumulative IPC: 2.047 (Simulation time: 00 hr 59 min 50 sec)
Heartbeat CPU 3 instructions: 290000004 cycles: 124195706 heartbeat IPC: 2.023 cumulative IPC: 2.046 (Simulation time: 01 hr 01 min 42 sec)
Heartbeat CPU 3 instructions: 300000000 cycles: 129016231 heartbeat IPC: 2.074 cumulative IPC: 2.047 (Simulation time: 01 hr 03 min 51 sec)
Heartbeat CPU 2 instructions: 110000001 cycles: 133520328 heartbeat IPC: 0.1417 cumulative IPC: 0.3311 (Simulation time: 01 hr 05 min 55 sec)
Heartbeat CPU 3 instructions: 310000001 cycles: 133912209 heartbeat IPC: 2.042 cumulative IPC: 2.047 (Simulation time: 01 hr 06 min 08 sec)
Heartbeat CPU 3 instructions: 320000001 cycles: 138729497 heartbeat IPC: 2.076 cumulative IPC: 2.048 (Simulation time: 01 hr 08 min 25 sec)
Heartbeat CPU 2 instructions: 120000003 cycles: 140723234 heartbeat IPC: 1.388 cumulative IPC: 0.3933 (Simulation time: 01 hr 09 min 27 sec)
Heartbeat CPU 1 instructions: 90000001 cycles: 141514606 heartbeat IPC: 0.2968 cumulative IPC: 0.3249 (Simulation time: 01 hr 09 min 54 sec)
Heartbeat CPU 3 instructions: 330000001 cycles: 143520388 heartbeat IPC: 2.087 cumulative IPC: 2.05 (Simulation time: 01 hr 11 min 06 sec)
Heartbeat CPU 2 instructions: 130000001 cycles: 144892080 heartbeat IPC: 2.399 cumulative IPC: 0.4594 (Simulation time: 01 hr 11 min 47 sec)
Heartbeat CPU 2 instructions: 140000000 cycles: 148958597 heartbeat IPC: 2.459 cumulative IPC: 0.5217 (Simulation time: 01 hr 13 min 58 sec)
Heartbeat CPU 3 instructions: 340000000 cycles: 155095520 heartbeat IPC: 0.8639 cumulative IPC: 1.949 (Simulation time: 01 hr 17 min 02 sec)
Heartbeat CPU 2 instructions: 150000003 cycles: 155446711 heartbeat IPC: 1.541 cumulative IPC: 0.57 (Simulation time: 01 hr 17 min 12 sec)
Heartbeat CPU 2 instructions: 160000000 cycles: 161934552 heartbeat IPC: 1.541 cumulative IPC: 0.6139 (Simulation time: 01 hr 20 min 16 sec)
Heartbeat CPU 3 instructions: 350000002 cycles: 162572248 heartbeat IPC: 1.337 cumulative IPC: 1.918 (Simulation time: 01 hr 20 min 35 sec)
Heartbeat CPU 1 instructions: 100000000 cycles: 165697494 heartbeat IPC: 0.4135 cumulative IPC: 0.3395 (Simulation time: 01 hr 22 min 08 sec)
Heartbeat CPU 3 instructions: 360000003 cycles: 169399350 heartbeat IPC: 1.465 cumulative IPC: 1.897 (Simulation time: 01 hr 23 min 54 sec)
Heartbeat CPU 2 instructions: 170000000 cycles: 169750697 heartbeat IPC: 1.279 cumulative IPC: 0.6483 (Simulation time: 01 hr 24 min 04 sec)
Heartbeat CPU 3 instructions: 370000000 cycles: 176048407 heartbeat IPC: 1.504 cumulative IPC: 1.881 (Simulation time: 01 hr 27 min 09 sec)
Heartbeat CPU 2 instructions: 180000004 cycles: 178261290 heartbeat IPC: 1.175 cumulative IPC: 0.6763 (Simulation time: 01 hr 28 min 12 sec)
Heartbeat CPU 0 instructions: 70000000 cycles: 178422465 heartbeat IPC: 0.089 cumulative IPC: 0.09799 (Simulation time: 01 hr 28 min 17 sec)
Heartbeat CPU 3 instructions: 380000002 cycles: 182727740 heartbeat IPC: 1.497 cumulative IPC: 1.865 (Simulation time: 01 hr 30 min 16 sec)
Heartbeat CPU 2 instructions: 190000002 cycles: 184642697 heartbeat IPC: 1.567 cumulative IPC: 0.7105 (Simulation time: 01 hr 31 min 14 sec)
Heartbeat CPU 1 instructions: 110000003 cycles: 189166042 heartbeat IPC: 0.4261 cumulative IPC: 0.3514 (Simulation time: 01 hr 33 min 09 sec)
Heartbeat CPU 3 instructions: 390000001 cycles: 217407759 heartbeat IPC: 0.2884 cumulative IPC: 1.59 (Simulation time: 01 hr 43 min 00 sec)
Heartbeat CPU 2 instructions: 200000004 cycles: 218958343 heartbeat IPC: 0.2914 cumulative IPC: 0.6388 (Simulation time: 01 hr 43 min 38 sec)
Heartbeat CPU 1 instructions: 120000003 cycles: 223678453 heartbeat IPC: 0.2898 cumulative IPC: 0.341 (Simulation time: 01 hr 45 min 30 sec)
Heartbeat CPU 3 instructions: 400000003 cycles: 230304197 heartbeat IPC: 0.7754 cumulative IPC: 1.541 (Simulation time: 01 hr 47 min 56 sec)
Heartbeat CPU 3 instructions: 410000003 cycles: 250059836 heartbeat IPC: 0.5062 cumulative IPC: 1.452 (Simulation time: 01 hr 54 min 59 sec)
Heartbeat CPU 1 instructions: 130000000 cycles: 261780474 heartbeat IPC: 0.2625 cumulative IPC: 0.3287 (Simulation time: 01 hr 59 min 07 sec)
Heartbeat CPU 3 instructions: 420000001 cycles: 271280529 heartbeat IPC: 0.4712 cumulative IPC: 1.37 (Simulation time: 02 hr 02 min 26 sec)
Heartbeat CPU 3 instructions: 430000004 cycles: 292230097 heartbeat IPC: 0.4773 cumulative IPC: 1.302 (Simulation time: 02 hr 09 min 48 sec)
Heartbeat CPU 1 instructions: 140000002 cycles: 302535093 heartbeat IPC: 0.2454 cumulative IPC: 0.3168 (Simulation time: 02 hr 13 min 34 sec)
Heartbeat CPU 2 instructions: 210000003 cycles: 302880671 heartbeat IPC: 0.1192 cumulative IPC: 0.4855 (Simulation time: 02 hr 13 min 43 sec)
Heartbeat CPU 3 instructions: 440000003 cycles: 307683555 heartbeat IPC: 0.6471 cumulative IPC: 1.267 (Simulation time: 02 hr 15 min 42 sec)
Heartbeat CPU 0 instructions: 80000000 cycles: 309849872 heartbeat IPC: 0.07609 cumulative IPC: 0.08811 (Simulation time: 02 hr 16 min 40 sec)
Heartbeat CPU 2 instructions: 220000001 cycles: 310448089 heartbeat IPC: 1.321 cumulative IPC: 0.5072 (Simulation time: 02 hr 16 min 59 sec)
Simulation finished CPU 2 instructions: 150000000 cycles: 292787139 cumulative IPC: 0.5123 (Simulation time: 02 hr 17 min 20 sec)
Heartbeat CPU 2 instructions: 230000001 cycles: 314492444 heartbeat IPC: 2.473 cumulative IPC: 0.534 (Simulation time: 02 hr 18 min 51 sec)
Heartbeat CPU 2 instructions: 240000000 cycles: 318610308 heartbeat IPC: 2.428 cumulative IPC: 0.56 (Simulation time: 02 hr 20 min 48 sec)
Heartbeat CPU 3 instructions: 450000000 cycles: 320884537 heartbeat IPC: 0.7575 cumulative IPC: 1.245 (Simulation time: 02 hr 21 min 48 sec)
Heartbeat CPU 2 instructions: 250000004 cycles: 324399477 heartbeat IPC: 1.727 cumulative IPC: 0.5821 (Simulation time: 02 hr 23 min 22 sec)
Heartbeat CPU 1 instructions: 150000004 cycles: 327974395 heartbeat IPC: 0.3931 cumulative IPC: 0.323 (Simulation time: 02 hr 24 min 54 sec)
Heartbeat CPU 2 instructions: 260000004 cycles: 331083183 heartbeat IPC: 1.496 cumulative IPC: 0.6016 (Simulation time: 02 hr 26 min 16 sec)
Heartbeat CPU 3 instructions: 460000004 cycles: 333744610 heartbeat IPC: 0.7776 cumulative IPC: 1.225 (Simulation time: 02 hr 27 min 27 sec)
Heartbeat CPU 2 instructions: 270000000 cycles: 337994634 heartbeat IPC: 1.447 cumulative IPC: 0.6199 (Simulation time: 02 hr 29 min 26 sec)
Heartbeat CPU 3 instructions: 470000001 cycles: 345416134 heartbeat IPC: 0.8568 cumulative IPC: 1.212 (Simulation time: 02 hr 32 min 46 sec)
Heartbeat CPU 2 instructions: 280000001 cycles: 345457197 heartbeat IPC: 1.34 cumulative IPC: 0.6363 (Simulation time: 02 hr 32 min 47 sec)
Heartbeat CPU 1 instructions: 160000004 cycles: 352097644 heartbeat IPC: 0.4145 cumulative IPC: 0.3297 (Simulation time: 02 hr 35 min 42 sec)
Heartbeat CPU 2 instructions: 290000003 cycles: 354587562 heartbeat IPC: 1.095 cumulative IPC: 0.6488 (Simulation time: 02 hr 36 min 49 sec)
Heartbeat CPU 3 instructions: 480000000 cycles: 358155875 heartbeat IPC: 0.7849 cumulative IPC: 1.196 (Simulation time: 02 hr 38 min 27 sec)
Heartbeat CPU 2 instructions: 300000001 cycles: 370214778 heartbeat IPC: 0.6399 cumulative IPC: 0.6484 (Simulation time: 02 hr 43 min 04 sec)
Heartbeat CPU 3 instructions: 490000002 cycles: 376794472 heartbeat IPC: 0.5365 cumulative IPC: 1.162 (Simulation time: 02 hr 45 min 48 sec)
Heartbeat CPU 1 instructions: 170000003 cycles: 377653574 heartbeat IPC: 0.3913 cumulative IPC: 0.334 (Simulation time: 02 hr 46 min 12 sec)
Heartbeat CPU 3 instructions: 500000000 cycles: 386574243 heartbeat IPC: 1.023 cumulative IPC: 1.158 (Simulation time: 02 hr 49 min 50 sec)
Heartbeat CPU 3 instructions: 510000002 cycles: 396616520 heartbeat IPC: 0.9958 cumulative IPC: 1.154 (Simulation time: 02 hr 53 min 41 sec)
Heartbeat CPU 0 instructions: 90000000 cycles: 403168819 heartbeat IPC: 0.1072 cumulative IPC: 0.09273 (Simulation time: 02 hr 56 min 05 sec)
Heartbeat CPU 3 instructions: 520000004 cycles: 408344631 heartbeat IPC: 0.8527 cumulative IPC: 1.145 (Simulation time: 02 hr 57 min 54 sec)
Heartbeat CPU 1 instructions: 180000001 cycles: 413000176 heartbeat IPC: 0.2829 cumulative IPC: 0.3295 (Simulation time: 02 hr 59 min 34 sec)
Heartbeat CPU 3 instructions: 530000003 cycles: 419729038 heartbeat IPC: 0.8784 cumulative IPC: 1.137 (Simulation time: 03 hr 02 min 01 sec)
Heartbeat CPU 3 instructions: 540000000 cycles: 431128301 heartbeat IPC: 0.8772 cumulative IPC: 1.13 (Simulation time: 03 hr 06 min 10 sec)
Heartbeat CPU 3 instructions: 550000002 cycles: 442663950 heartbeat IPC: 0.8669 cumulative IPC: 1.123 (Simulation time: 03 hr 10 min 18 sec)
Heartbeat CPU 3 instructions: 560000002 cycles: 453927622 heartbeat IPC: 0.8878 cumulative IPC: 1.117 (Simulation time: 03 hr 14 min 14 sec)
Heartbeat CPU 1 instructions: 190000003 cycles: 458629567 heartbeat IPC: 0.2192 cumulative IPC: 0.318 (Simulation time: 03 hr 15 min 49 sec)
Heartbeat CPU 3 instructions: 570000004 cycles: 465966504 heartbeat IPC: 0.8306 cumulative IPC: 1.109 (Simulation time: 03 hr 18 min 21 sec)
Heartbeat CPU 2 instructions: 310000000 cycles: 470209414 heartbeat IPC: 0.1 cumulative IPC: 0.527 (Simulation time: 03 hr 19 min 53 sec)
Heartbeat CPU 3 instructions: 580000000 cycles: 476126910 heartbeat IPC: 0.9842 cumulative IPC: 1.106 (Simulation time: 03 hr 22 min 07 sec)
Heartbeat CPU 2 instructions: 320000004 cycles: 481243493 heartbeat IPC: 0.9063 cumulative IPC: 0.5361 (Simulation time: 03 hr 24 min 02 sec)
Heartbeat CPU 3 instructions: 590000001 cycles: 485283691 heartbeat IPC: 1.092 cumulative IPC: 1.106 (Simulation time: 03 hr 25 min 48 sec)
Heartbeat CPU 2 instructions: 330000002 cycles: 485534916 heartbeat IPC: 2.33 cumulative IPC: 0.5525 (Simulation time: 03 hr 25 min 55 sec)
Heartbeat CPU 2 instructions: 340000004 cycles: 489630672 heartbeat IPC: 2.442 cumulative IPC: 0.569 (Simulation time: 03 hr 27 min 43 sec)
Heartbeat CPU 1 instructions: 200000002 cycles: 491669127 heartbeat IPC: 0.3027 cumulative IPC: 0.317 (Simulation time: 03 hr 28 min 35 sec)
Simulation finished CPU 1 instructions: 150000000 cycles: 473258403 cumulative IPC: 0.317 (Simulation time: 03 hr 28 min 35 sec)
Heartbeat CPU 3 instructions: 600000000 cycles: 493746097 heartbeat IPC: 1.182 cumulative IPC: 1.108 (Simulation time: 03 hr 29 min 27 sec)
Heartbeat CPU 2 instructions: 350000004 cycles: 494912840 heartbeat IPC: 1.893 cumulative IPC: 0.5836 (Simulation time: 03 hr 29 min 57 sec)
Heartbeat CPU 2 instructions: 360000000 cycles: 500769398 heartbeat IPC: 1.707 cumulative IPC: 0.5973 (Simulation time: 03 hr 32 min 23 sec)
Heartbeat CPU 3 instructions: 610000000 cycles: 502099447 heartbeat IPC: 1.197 cumulative IPC: 1.109 (Simulation time: 03 hr 32 min 54 sec)
Heartbeat CPU 2 instructions: 370000001 cycles: 507613590 heartbeat IPC: 1.461 cumulative IPC: 0.6094 (Simulation time: 03 hr 34 min 58 sec)
Heartbeat CPU 2 instructions: 380000002 cycles: 515620178 heartbeat IPC: 1.249 cumulative IPC: 0.6197 (Simulation time: 03 hr 37 min 57 sec)
Heartbeat CPU 1 instructions: 210000002 cycles: 518061650 heartbeat IPC: 0.3789 cumulative IPC: 0.3202 (Simulation time: 03 hr 38 min 53 sec)
Heartbeat CPU 2 instructions: 390000000 cycles: 526565519 heartbeat IPC: 0.9136 cumulative IPC: 0.626 (Simulation time: 03 hr 41 min 47 sec)
Heartbeat CPU 2 instructions: 400000001 cycles: 532609019 heartbeat IPC: 1.655 cumulative IPC: 0.6381 (Simulation time: 03 hr 44 min 04 sec)
Heartbeat CPU 0 instructions: 100000000 cycles: 533140084 heartbeat IPC: 0.07694 cumulative IPC: 0.08874 (Simulation time: 03 hr 44 min 16 sec)
Heartbeat CPU 1 instructions: 220000000 cycles: 546016163 heartbeat IPC: 0.3577 cumulative IPC: 0.3222 (Simulation time: 03 hr 48 min 25 sec)
Heartbeat CPU 3 instructions: 620000003 cycles: 566621615 heartbeat IPC: 0.155 cumulative IPC: 0.9968 (Simulation time: 03 hr 55 min 15 sec)
Heartbeat CPU 1 instructions: 230000002 cycles: 581581930 heartbeat IPC: 0.2812 cumulative IPC: 0.3196 (Simulation time: 03 hr 59 min 58 sec)
Heartbeat CPU 2 instructions: 410000000 cycles: 583298440 heartbeat IPC: 0.1973 cumulative IPC: 0.5985 (Simulation time: 04 hr 00 min 29 sec)
Heartbeat CPU 1 instructions: 240000003 cycles: 628267116 heartbeat IPC: 0.2142 cumulative IPC: 0.3115 (Simulation time: 04 hr 14 min 20 sec)
Heartbeat CPU 2 instructions: 420000002 cycles: 657589244 heartbeat IPC: 0.1346 cumulative IPC: 0.5446 (Simulation time: 04 hr 23 min 40 sec)
Heartbeat CPU 1 instructions: 250000003 cycles: 665483378 heartbeat IPC: 0.2687 cumulative IPC: 0.3091 (Simulation time: 04 hr 26 min 25 sec)
Heartbeat CPU 2 instructions: 430000000 cycles: 665527049 heartbeat IPC: 1.26 cumulative IPC: 0.5534 (Simulation time: 04 hr 26 min 26 sec)
Heartbeat CPU 2 instructions: 440000003 cycles: 670208475 heartbeat IPC: 2.136 cumulative IPC: 0.5648 (Simulation time: 04 hr 28 min 16 sec)
Heartbeat CPU 2 instructions: 450000002 cycles: 674949111 heartbeat IPC: 2.109 cumulative IPC: 0.5759 (Simulation time: 04 hr 30 min 06 sec)
Heartbeat CPU 0 instructions: 110000002 cycles: 675514369 heartbeat IPC: 0.07024 cumulative IPC: 0.08473 (Simulation time: 04 hr 30 min 19 sec)
Heartbeat CPU 3 instructions: 630000003 cycles: 678745114 heartbeat IPC: 0.08919 cumulative IPC: 0.8427 (Simulation time: 04 hr 31 min 30 sec)
Heartbeat CPU 2 instructions: 460000001 cycles: 680961039 heartbeat IPC: 1.663 cumulative IPC: 0.5858 (Simulation time: 04 hr 32 min 21 sec)
Heartbeat CPU 2 instructions: 470000000 cycles: 688549925 heartbeat IPC: 1.318 cumulative IPC: 0.5941 (Simulation time: 04 hr 35 min 05 sec)
Heartbeat CPU 1 instructions: 260000004 cycles: 693099256 heartbeat IPC: 0.3621 cumulative IPC: 0.3113 (Simulation time: 04 hr 36 min 45 sec)
Heartbeat CPU 2 instructions: 480000003 cycles: 696630638 heartbeat IPC: 1.238 cumulative IPC: 0.6017 (Simulation time: 04 hr 37 min 59 sec)
Heartbeat CPU 2 instructions: 490000001 cycles: 707199331 heartbeat IPC: 0.9462 cumulative IPC: 0.607 (Simulation time: 04 hr 41 min 44 sec)
Heartbeat CPU 2 instructions: 500000000 cycles: 712985348 heartbeat IPC: 1.728 cumulative IPC: 0.6164 (Simulation time: 04 hr 43 min 52 sec)
Heartbeat CPU 1 instructions: 270000002 cycles: 719700673 heartbeat IPC: 0.3759 cumulative IPC: 0.3137 (Simulation time: 04 hr 46 min 06 sec)
Heartbeat CPU 2 instructions: 510000000 cycles: 746935959 heartbeat IPC: 0.2945 cumulative IPC: 0.6014 (Simulation time: 04 hr 55 min 02 sec)
Heartbeat CPU 1 instructions: 280000000 cycles: 747094500 heartbeat IPC: 0.365 cumulative IPC: 0.3156 (Simulation time: 04 hr 55 min 05 sec)
Heartbeat CPU 3 instructions: 640000003 cycles: 747158181 heartbeat IPC: 0.1462 cumulative IPC: 0.7773 (Simulation time: 04 hr 55 min 06 sec)
Heartbeat CPU 1 instructions: 290000001 cycles: 788585229 heartbeat IPC: 0.241 cumulative IPC: 0.3116 (Simulation time: 05 hr 07 min 43 sec)
Heartbeat CPU 0 instructions: 120000003 cycles: 796691075 heartbeat IPC: 0.08252 cumulative IPC: 0.08439 (Simulation time: 05 hr 10 min 13 sec)
Heartbeat CPU 1 instructions: 300000001 cycles: 831058908 heartbeat IPC: 0.2354 cumulative IPC: 0.3076 (Simulation time: 05 hr 20 min 53 sec)
Heartbeat CPU 2 instructions: 520000003 cycles: 833272183 heartbeat IPC: 0.1158 cumulative IPC: 0.5499 (Simulation time: 05 hr 21 min 39 sec)
Heartbeat CPU 2 instructions: 530000003 cycles: 841657291 heartbeat IPC: 1.193 cumulative IPC: 0.5565 (Simulation time: 05 hr 24 min 36 sec)
Heartbeat CPU 2 instructions: 540000001 cycles: 845847207 heartbeat IPC: 2.387 cumulative IPC: 0.5657 (Simulation time: 05 hr 26 min 15 sec)
Heartbeat CPU 2 instructions: 550000001 cycles: 851054198 heartbeat IPC: 1.92 cumulative IPC: 0.5742 (Simulation time: 05 hr 28 min 16 sec)
Heartbeat CPU 2 instructions: 560000000 cycles: 857243373 heartbeat IPC: 1.616 cumulative IPC: 0.5819 (Simulation time: 05 hr 30 min 34 sec)
Heartbeat CPU 1 instructions: 310000004 cycles: 860510816 heartbeat IPC: 0.3395 cumulative IPC: 0.3088 (Simulation time: 05 hr 31 min 46 sec)
Heartbeat CPU 2 instructions: 570000002 cycles: 864424655 heartbeat IPC: 1.393 cumulative IPC: 0.5888 (Simulation time: 05 hr 33 min 14 sec)
Heartbeat CPU 2 instructions: 580000003 cycles: 872798414 heartbeat IPC: 1.194 cumulative IPC: 0.5947 (Simulation time: 05 hr 36 min 08 sec)
Heartbeat CPU 3 instructions: 650000003 cycles: 873110478 heartbeat IPC: 0.0794 cumulative IPC: 0.6744 (Simulation time: 05 hr 36 min 15 sec)
Heartbeat CPU 2 instructions: 590000000 cycles: 881963747 heartbeat IPC: 1.091 cumulative IPC: 0.6 (Simulation time: 05 hr 39 min 28 sec)
Heartbeat CPU 1 instructions: 320000001 cycles: 885526373 heartbeat IPC: 0.3998 cumulative IPC: 0.3114 (Simulation time: 05 hr 40 min 44 sec)
Heartbeat CPU 2 instructions: 600000000 cycles: 887708716 heartbeat IPC: 1.741 cumulative IPC: 0.6075 (Simulation time: 05 hr 41 min 35 sec)
Heartbeat CPU 0 instructions: 130000000 cycles: 907218526 heartbeat IPC: 0.09048 cumulative IPC: 0.08515 (Simulation time: 05 hr 47 min 49 sec)
Heartbeat CPU 1 instructions: 330000001 cycles: 909749163 heartbeat IPC: 0.4128 cumulative IPC: 0.3141 (Simulation time: 05 hr 48 min 41 sec)
Heartbeat CPU 3 instructions: 660000000 cycles: 914482306 heartbeat IPC: 0.2417 cumulative IPC: 0.6545 (Simulation time: 05 hr 50 min 16 sec)
Heartbeat CPU 2 instructions: 610000003 cycles: 914991074 heartbeat IPC: 0.3665 cumulative IPC: 0.6002 (Simulation time: 05 hr 50 min 27 sec)
Heartbeat CPU 1 instructions: 340000003 cycles: 945110909 heartbeat IPC: 0.2828 cumulative IPC: 0.3129 (Simulation time: 05 hr 59 min 44 sec)
Heartbeat CPU 1 instructions: 350000000 cycles: 988525460 heartbeat IPC: 0.2303 cumulative IPC: 0.3092 (Simulation time: 06 hr 12 min 49 sec)
Heartbeat CPU 2 instructions: 620000003 cycles: 998107814 heartbeat IPC: 0.1203 cumulative IPC: 0.5595 (Simulation time: 06 hr 15 min 54 sec)
Heartbeat CPU 2 instructions: 630000002 cycles: 1006150739 heartbeat IPC: 1.243 cumulative IPC: 0.565 (Simulation time: 06 hr 18 min 41 sec)
Heartbeat CPU 2 instructions: 640000004 cycles: 1010467733 heartbeat IPC: 2.316 cumulative IPC: 0.5727 (Simulation time: 06 hr 20 min 20 sec)
Heartbeat CPU 3 instructions: 670000002 cycles: 1014287785 heartbeat IPC: 0.1002 cumulative IPC: 0.5989 (Simulation time: 06 hr 21 min 46 sec)
Heartbeat CPU 2 instructions: 650000000 cycles: 1015907471 heartbeat IPC: 1.838 cumulative IPC: 0.5796 (Simulation time: 06 hr 22 min 20 sec)
Heartbeat CPU 1 instructions: 360000000 cycles: 1018098815 heartbeat IPC: 0.3381 cumulative IPC: 0.3101 (Simulation time: 06 hr 23 min 07 sec)
Heartbeat CPU 2 instructions: 660000002 cycles: 1023181059 heartbeat IPC: 1.375 cumulative IPC: 0.5853 (Simulation time: 06 hr 24 min 54 sec)
Heartbeat CPU 2 instructions: 670000000 cycles: 1031375828 heartbeat IPC: 1.22 cumulative IPC: 0.5905 (Simulation time: 06 hr 27 min 52 sec)
Heartbeat CPU 0 instructions: 140000002 cycles: 1038385030 heartbeat IPC: 0.07624 cumulative IPC: 0.084 (Simulation time: 06 hr 30 min 20 sec)
Heartbeat CPU 2 instructions: 680000000 cycles: 1041032122 heartbeat IPC: 1.036 cumulative IPC: 0.5947 (Simulation time: 06 hr 31 min 12 sec)
Heartbeat CPU 1 instructions: 370000001 cycles: 1047496727 heartbeat IPC: 0.3402 cumulative IPC: 0.311 (Simulation time: 06 hr 33 min 26 sec)
Heartbeat CPU 2 instructions: 690000001 cycles: 1049502937 heartbeat IPC: 1.181 cumulative IPC: 0.5995 (Simulation time: 06 hr 34 min 12 sec)
Heartbeat CPU 1 instructions: 380000002 cycles: 1078000800 heartbeat IPC: 0.3278 cumulative IPC: 0.3114 (Simulation time: 06 hr 43 min 18 sec)
Heartbeat CPU 2 instructions: 700000000 cycles: 1080604455 heartbeat IPC: 0.3215 cumulative IPC: 0.5913 (Simulation time: 06 hr 44 min 06 sec)
Heartbeat CPU 1 instructions: 390000003 cycles: 1117440675 heartbeat IPC: 0.2536 cumulative IPC: 0.3094 (Simulation time: 06 hr 54 min 57 sec)
Heartbeat CPU 3 instructions: 680000001 cycles: 1134439122 heartbeat IPC: 0.08323 cumulative IPC: 0.5434 (Simulation time: 07 hr 00 min 05 sec)
Heartbeat CPU 1 instructions: 400000004 cycles: 1158960494 heartbeat IPC: 0.2408 cumulative IPC: 0.3069 (Simulation time: 07 hr 07 min 23 sec)
Heartbeat CPU 2 instructions: 710000000 cycles: 1170553634 heartbeat IPC: 0.1112 cumulative IPC: 0.5538 (Simulation time: 07 hr 10 min 54 sec)
Heartbeat CPU 0 instructions: 150000001 cycles: 1178278592 heartbeat IPC: 0.07148 cumulative IPC: 0.08249 (Simulation time: 07 hr 13 min 35 sec)
Heartbeat CPU 2 instructions: 720000002 cycles: 1178623967 heartbeat IPC: 1.239 cumulative IPC: 0.5586 (Simulation time: 07 hr 13 min 43 sec)
Heartbeat CPU 2 instructions: 730000003 cycles: 1183243666 heartbeat IPC: 2.165 cumulative IPC: 0.565 (Simulation time: 07 hr 15 min 30 sec)
Heartbeat CPU 1 instructions: 410000002 cycles: 1188046747 heartbeat IPC: 0.3438 cumulative IPC: 0.3078 (Simulation time: 07 hr 17 min 18 sec)
Heartbeat CPU 2 instructions: 740000002 cycles: 1188571676 heartbeat IPC: 1.877 cumulative IPC: 0.571 (Simulation time: 07 hr 17 min 30 sec)
Heartbeat CPU 2 instructions: 750000003 cycles: 1195078220 heartbeat IPC: 1.537 cumulative IPC: 0.5763 (Simulation time: 07 hr 19 min 53 sec)
Heartbeat CPU 2 instructions: 760000000 cycles: 1201703657 heartbeat IPC: 1.509 cumulative IPC: 0.5815 (Simulation time: 07 hr 22 min 21 sec)
Heartbeat CPU 3 instructions: 690000002 cycles: 1204572645 heartbeat IPC: 0.1426 cumulative IPC: 0.5197 (Simulation time: 07 hr 23 min 22 sec)
Heartbeat CPU 2 instructions: 770000003 cycles: 1210389761 heartbeat IPC: 1.151 cumulative IPC: 0.5857 (Simulation time: 07 hr 25 min 23 sec)
Heartbeat CPU 1 instructions: 420000000 cycles: 1211822597 heartbeat IPC: 0.4206 cumulative IPC: 0.31 (Simulation time: 07 hr 25 min 52 sec)
Heartbeat CPU 2 instructions: 780000001 cycles: 1217519315 heartbeat IPC: 1.403 cumulative IPC: 0.5905 (Simulation time: 07 hr 27 min 56 sec)
Heartbeat CPU 1 instructions: 430000000 cycles: 1235957306 heartbeat IPC: 0.4143 cumulative IPC: 0.3121 (Simulation time: 07 hr 34 min 00 sec)
Heartbeat CPU 2 instructions: 790000001 cycles: 1236616407 heartbeat IPC: 0.5236 cumulative IPC: 0.5895 (Simulation time: 07 hr 34 min 15 sec)
Heartbeat CPU 3 instructions: 700000002 cycles: 1260578328 heartbeat IPC: 0.1786 cumulative IPC: 0.5043 (Simulation time: 07 hr 41 min 47 sec)
Heartbeat CPU 1 instructions: 440000003 cycles: 1267711940 heartbeat IPC: 0.3149 cumulative IPC: 0.3122 (Simulation time: 07 hr 43 min 56 sec)
Heartbeat CPU 0 instructions: 160000004 cycles: 1277757749 heartbeat IPC: 0.1005 cumulative IPC: 0.08392 (Simulation time: 07 hr 46 min 53 sec)
Heartbeat CPU 1 instructions: 450000004 cycles: 1309546229 heartbeat IPC: 0.239 cumulative IPC: 0.3098 (Simulation time: 07 hr 56 min 35 sec)
Heartbeat CPU 2 instructions: 800000000 cycles: 1323343221 heartbeat IPC: 0.1153 cumulative IPC: 0.558 (Simulation time: 08 hr 01 min 03 sec)
Heartbeat CPU 2 instructions: 810000001 cycles: 1330349692 heartbeat IPC: 1.427 cumulative IPC: 0.5626 (Simulation time: 08 hr 03 min 48 sec)
Heartbeat CPU 2 instructions: 820000003 cycles: 1334608159 heartbeat IPC: 2.348 cumulative IPC: 0.5684 (Simulation time: 08 hr 05 min 35 sec)
Heartbeat CPU 1 instructions: 460000001 cycles: 1339408689 heartbeat IPC: 0.3349 cumulative IPC: 0.3104 (Simulation time: 08 hr 07 min 30 sec)
Heartbeat CPU 2 instructions: 830000001 cycles: 1340240772 heartbeat IPC: 1.775 cumulative IPC: 0.5735 (Simulation time: 08 hr 07 min 49 sec)
Heartbeat CPU 2 instructions: 840000001 cycles: 1345975997 heartbeat IPC: 1.744 cumulative IPC: 0.5786 (Simulation time: 08 hr 10 min 05 sec)
Heartbeat CPU 3 instructions: 710000002 cycles: 1346545561 heartbeat IPC: 0.1163 cumulative IPC: 0.4792 (Simulation time: 08 hr 10 min 19 sec)
Heartbeat CPU 2 instructions: 850000003 cycles: 1352535643 heartbeat IPC: 1.524 cumulative IPC: 0.5832 (Simulation time: 08 hr 12 min 43 sec)
Heartbeat CPU 2 instructions: 860000001 cycles: 1360064329 heartbeat IPC: 1.328 cumulative IPC: 0.5874 (Simulation time: 08 hr 15 min 33 sec)
Heartbeat CPU 1 instructions: 470000001 cycles: 1363366757 heartbeat IPC: 0.4174 cumulative IPC: 0.3123 (Simulation time: 08 hr 16 min 41 sec)
Heartbeat CPU 2 instructions: 870000000 cycles: 1368219166 heartbeat IPC: 1.226 cumulative IPC: 0.5913 (Simulation time: 08 hr 18 min 24 sec)
Heartbeat CPU 0 instructions: 170000004 cycles: 1384808095 heartbeat IPC: 0.09341 cumulative IPC: 0.08466 (Simulation time: 08 hr 23 min 51 sec)
Heartbeat CPU 2 instructions: 880000000 cycles: 1387335052 heartbeat IPC: 0.5231 cumulative IPC: 0.5903 (Simulation time: 08 hr 24 min 41 sec)
Heartbeat CPU 1 instructions: 480000000 cycles: 1387491273 heartbeat IPC: 0.4145 cumulative IPC: 0.3141 (Simulation time: 08 hr 24 min 45 sec)
Heartbeat CPU 3 instructions: 720000004 cycles: 1398587406 heartbeat IPC: 0.1922 cumulative IPC: 0.4684 (Simulation time: 08 hr 29 min 28 sec)
Heartbeat CPU 1 instructions: 490000001 cycles: 1419387310 heartbeat IPC: 0.3135 cumulative IPC: 0.3141 (Simulation time: 08 hr 39 min 50 sec)
Heartbeat CPU 1 instructions: 500000001 cycles: 1460952649 heartbeat IPC: 0.2406 cumulative IPC: 0.3119 (Simulation time: 08 hr 59 min 14 sec)
Heartbeat CPU 2 instructions: 890000004 cycles: 1473141844 heartbeat IPC: 0.1165 cumulative IPC: 0.5624 (Simulation time: 09 hr 04 min 44 sec)
Heartbeat CPU 2 instructions: 900000000 cycles: 1480454833 heartbeat IPC: 1.367 cumulative IPC: 0.5664 (Simulation time: 09 hr 08 min 53 sec)
Heartbeat CPU 2 instructions: 910000000 cycles: 1484916413 heartbeat IPC: 2.241 cumulative IPC: 0.5715 (Simulation time: 09 hr 11 min 33 sec)
Heartbeat CPU 3 instructions: 730000000 cycles: 1488050733 heartbeat IPC: 0.1118 cumulative IPC: 0.4467 (Simulation time: 09 hr 13 min 24 sec)
Heartbeat CPU 2 instructions: 920000000 cycles: 1489030749 heartbeat IPC: 2.431 cumulative IPC: 0.5767 (Simulation time: 09 hr 13 min 58 sec)
Heartbeat CPU 1 instructions: 510000004 cycles: 1490371999 heartbeat IPC: 0.3399 cumulative IPC: 0.3125 (Simulation time: 09 hr 14 min 43 sec)
Heartbeat CPU 2 instructions: 930000001 cycles: 1495239256 heartbeat IPC: 1.611 cumulative IPC: 0.581 (Simulation time: 09 hr 17 min 26 sec)
Heartbeat CPU 2 instructions: 940000004 cycles: 1501963271 heartbeat IPC: 1.487 cumulative IPC: 0.5852 (Simulation time: 09 hr 21 min 19 sec)
Heartbeat CPU 0 instructions: 180000002 cycles: 1506200840 heartbeat IPC: 0.08238 cumulative IPC: 0.08447 (Simulation time: 09 hr 23 min 45 sec)
Heartbeat CPU 2 instructions: 950000002 cycles: 1509826184 heartbeat IPC: 1.272 cumulative IPC: 0.5888 (Simulation time: 09 hr 25 min 49 sec)
Heartbeat CPU 1 instructions: 520000001 cycles: 1514959277 heartbeat IPC: 0.4067 cumulative IPC: 0.3141 (Simulation time: 09 hr 28 min 40 sec)
Heartbeat CPU 2 instructions: 960000000 cycles: 1518623658 heartbeat IPC: 1.137 cumulative IPC: 0.592 (Simulation time: 09 hr 30 min 36 sec)
Heartbeat CPU 2 instructions: 970000002 cycles: 1524126157 heartbeat IPC: 1.817 cumulative IPC: 0.5965 (Simulation time: 09 hr 33 min 41 sec)
Heartbeat CPU 1 instructions: 530000001 cycles: 1541322768 heartbeat IPC: 0.3793 cumulative IPC: 0.3152 (Simulation time: 09 hr 41 min 40 sec)
Heartbeat CPU 2 instructions: 980000001 cycles: 1551567782 heartbeat IPC: 0.3644 cumulative IPC: 0.5923 (Simulation time: 09 hr 46 min 40 sec)
Heartbeat CPU 3 instructions: 740000003 cycles: 1554614405 heartbeat IPC: 0.1502 cumulative IPC: 0.4338 (Simulation time: 09 hr 48 min 06 sec)
Heartbeat CPU 1 instructions: 540000000 cycles: 1570351313 heartbeat IPC: 0.3445 cumulative IPC: 0.3157 (Simulation time: 09 hr 55 min 14 sec)
Heartbeat CPU 1 instructions: 550000000 cycles: 1614462047 heartbeat IPC: 0.2267 cumulative IPC: 0.3133 (Simulation time: 10 hr 14 min 59 sec)
Heartbeat CPU 0 instructions: 190000003 cycles: 1635853161 heartbeat IPC: 0.07713 cumulative IPC: 0.08389 (Simulation time: 10 hr 24 min 33 sec)
Heartbeat CPU 2 instructions: 990000001 cycles: 1641462038 heartbeat IPC: 0.1112 cumulative IPC: 0.5657 (Simulation time: 10 hr 27 min 16 sec)
Heartbeat CPU 2 instructions: 1000000002 cycles: 1649681129 heartbeat IPC: 1.217 cumulative IPC: 0.5689 (Simulation time: 10 hr 31 min 33 sec)
Heartbeat CPU 1 instructions: 560000002 cycles: 1652118601 heartbeat IPC: 0.2656 cumulative IPC: 0.3122 (Simulation time: 10 hr 32 min 58 sec)
Heartbeat CPU 2 instructions: 1010000000 cycles: 1653911790 heartbeat IPC: 2.364 cumulative IPC: 0.5736 (Simulation time: 10 hr 34 min 01 sec)
Heartbeat CPU 2 instructions: 1020000001 cycles: 1658622276 heartbeat IPC: 2.123 cumulative IPC: 0.578 (Simulation time: 10 hr 36 min 41 sec)
Heartbeat CPU 2 instructions: 1030000000 cycles: 1666516649 heartbeat IPC: 1.267 cumulative IPC: 0.5813 (Simulation time: 10 hr 40 min 59 sec)
Heartbeat CPU 2 instructions: 1040000001 cycles: 1673022800 heartbeat IPC: 1.537 cumulative IPC: 0.5851 (Simulation time: 10 hr 44 min 36 sec)
Heartbeat CPU 1 instructions: 570000001 cycles: 1677622121 heartbeat IPC: 0.3921 cumulative IPC: 0.3134 (Simulation time: 10 hr 47 min 01 sec)
Heartbeat CPU 2 instructions: 1050000003 cycles: 1680498062 heartbeat IPC: 1.338 cumulative IPC: 0.5885 (Simulation time: 10 hr 48 min 39 sec)
Heartbeat CPU 3 instructions: 750000003 cycles: 1681223992 heartbeat IPC: 0.07898 cumulative IPC: 0.4068 (Simulation time: 10 hr 49 min 04 sec)
Heartbeat CPU 2 instructions: 1060000004 cycles: 1690696234 heartbeat IPC: 0.9806 cumulative IPC: 0.5909 (Simulation time: 10 hr 53 min 55 sec)
Heartbeat CPU 2 instructions: 1070000001 cycles: 1696906186 heartbeat IPC: 1.61 cumulative IPC: 0.5946 (Simulation time: 10 hr 57 min 18 sec)
Heartbeat CPU 1 instructions: 580000000 cycles: 1702820960 heartbeat IPC: 0.3968 cumulative IPC: 0.3147 (Simulation time: 11 hr 00 min 06 sec)
Heartbeat CPU 1 instructions: 590000002 cycles: 1729735925 heartbeat IPC: 0.3715 cumulative IPC: 0.3155 (Simulation time: 11 hr 13 min 42 sec)
Heartbeat CPU 0 instructions: 200000000 cycles: 1738063111 heartbeat IPC: 0.09784 cumulative IPC: 0.08471 (Simulation time: 11 hr 18 min 01 sec)
Heartbeat CPU 3 instructions: 760000004 cycles: 1744213269 heartbeat IPC: 0.1588 cumulative IPC: 0.3978 (Simulation time: 11 hr 21 min 16 sec)
Heartbeat CPU 1 instructions: 600000004 cycles: 1770711967 heartbeat IPC: 0.244 cumulative IPC: 0.3139 (Simulation time: 11 hr 35 min 13 sec)
Heartbeat CPU 2 instructions: 1080000001 cycles: 1775716478 heartbeat IPC: 0.1269 cumulative IPC: 0.5737 (Simulation time: 11 hr 37 min 43 sec)
Heartbeat CPU 2 instructions: 1090000000 cycles: 1808592228 heartbeat IPC: 0.3042 cumulative IPC: 0.5687 (Simulation time: 11 hr 56 min 33 sec)
Simulation finished CPU 0 instructions: 150000001 cycles: 1790428623 cumulative IPC: 0.08378 (Simulation time: 11 hr 56 min 43 sec)
Simulation complete CPU 0 instructions: 150000001 cycles: 1790428623 cumulative IPC: 0.08378 (Simulation time: 11 hr 56 min 43 sec)
Simulation complete CPU 1 instructions: 559827366 cycles: 1790428623 cumulative IPC: 0.3127 (Simulation time: 11 hr 56 min 43 sec)
Simulation complete CPU 2 instructions: 1018258980 cycles: 1790428623 cumulative IPC: 0.5687 (Simulation time: 11 hr 56 min 43 sec)
Simulation complete CPU 3 instructions: 690961934 cycles: 1790428623 cumulative IPC: 0.3859 (Simulation time: 11 hr 56 min 43 sec)

ChampSim completed all CPUs

=== Simulation ===
CPU 0 runs /home/das/dpc3_traces/619.lbm_s-4268B.champsimtrace.xzCPU 1 runs /home/das/dpc3_traces/607.cactuBSSN_s-2421B.champsimtrace.xzCPU 2 runs /home/das/dpc3_traces/627.cam4_s-573B.champsimtrace.xzCPU 3 runs /home/das/dpc3_traces/621.wrf_s-575B.champsimtrace.xz
Total Simulation Statistics (not including warmup)

CPU 0 cumulative IPC: 0.08378 instructions: 150000001 cycles: 1790428623
CPU 0 Branch Prediction Accuracy: 97.11% MPKI: 0.5214 Average ROB Occupancy at Mispredict: 250.6
Branch type MPKI
BRANCH_DIRECT_JUMP: 0
BRANCH_INDIRECT: 0
BRANCH_CONDITIONAL: 0.521
BRANCH_DIRECT_CALL: 0
BRANCH_INDIRECT_CALL: 0
BRANCH_RETURN: 0


CPU 1 cumulative IPC: 0.3127 instructions: 559827366 cycles: 1790428623
CPU 1 Branch Prediction Accuracy: 99.24% MPKI: 0.009553 Average ROB Occupancy at Mispredict: 149.1
Branch type MPKI
BRANCH_DIRECT_JUMP: 5.36e-05
BRANCH_INDIRECT: 0.000152
BRANCH_CONDITIONAL: 0.00616
BRANCH_DIRECT_CALL: 0.00111
BRANCH_INDIRECT_CALL: 5.36e-06
BRANCH_RETURN: 0.00207


CPU 2 cumulative IPC: 0.5687 instructions: 1018258980 cycles: 1790428623
CPU 2 Branch Prediction Accuracy: 94.74% MPKI: 7.109 Average ROB Occupancy at Mispredict: 66.59
Branch type MPKI
BRANCH_DIRECT_JUMP: 0.00545
BRANCH_INDIRECT: 0.00151
BRANCH_CONDITIONAL: 6.46
BRANCH_DIRECT_CALL: 0.0186
BRANCH_INDIRECT_CALL: 0
BRANCH_RETURN: 0.624


CPU 3 cumulative IPC: 0.3859 instructions: 690961934 cycles: 1790428623
CPU 3 Branch Prediction Accuracy: 95.45% MPKI: 5.534 Average ROB Occupancy at Mispredict: 108.2
Branch type MPKI
BRANCH_DIRECT_JUMP: 0.00046
BRANCH_INDIRECT: 2.46e-05
BRANCH_CONDITIONAL: 5.13
BRANCH_DIRECT_CALL: 0.00265
BRANCH_INDIRECT_CALL: 0
BRANCH_RETURN: 0.405

LLC TOTAL        ACCESS:   12771501 HIT:    5588415 MISS:    7183086
LLC LOAD         ACCESS:    1795673 HIT:         33 MISS:    1795640
LLC RFO          ACCESS:    5487779 HIT:     101219 MISS:    5386560
LLC PREFETCH     ACCESS:          0 HIT:          0 MISS:          0
LLC WRITE        ACCESS:    5487223 HIT:    5487154 MISS:         69
LLC TRANSLATION  ACCESS:        826 HIT:          9 MISS:        817
LLC PREFETCH REQUESTED:          0 ISSUED:          0 USEFUL:          0 USELESS:          0
LLC AVERAGE MISS LATENCY: 4526 cycles
LLC TOTAL        ACCESS:    6528326 HIT:    2160077 MISS:    4368249
LLC LOAD         ACCESS:    5864424 HIT:    1550367 MISS:    4314057
LLC RFO          ACCESS:      17474 HIT:      16366 MISS:       1108
LLC PREFETCH     ACCESS:          0 HIT:          0 MISS:          0
LLC WRITE        ACCESS:     561374 HIT:     561116 MISS:        258
LLC TRANSLATION  ACCESS:      85054 HIT:      32228 MISS:      52826
LLC PREFETCH REQUESTED:          0 ISSUED:          0 USEFUL:          0 USELESS:          0
LLC AVERAGE MISS LATENCY: 4526 cycles
LLC TOTAL        ACCESS:   11527183 HIT:    5572830 MISS:    5954353
LLC LOAD         ACCESS:     732671 HIT:     139706 MISS:     592965
LLC RFO          ACCESS:    5353204 HIT:      90388 MISS:    5262816
LLC PREFETCH     ACCESS:          0 HIT:          0 MISS:          0
LLC WRITE        ACCESS:    5423874 HIT:    5341750 MISS:      82124
LLC TRANSLATION  ACCESS:      17434 HIT:        986 MISS:      16448
LLC PREFETCH REQUESTED:          0 ISSUED:          0 USEFUL:          0 USELESS:          0
LLC AVERAGE MISS LATENCY: 4526 cycles
LLC TOTAL        ACCESS:    4275145 HIT:    1755746 MISS:    2519399
LLC LOAD         ACCESS:    2111547 HIT:     336003 MISS:    1775544
LLC RFO          ACCESS:     784391 HIT:     132611 MISS:     651780
LLC PREFETCH     ACCESS:          0 HIT:          0 MISS:          0
LLC WRITE        ACCESS:    1374752 HIT:    1285982 MISS:      88770
LLC TRANSLATION  ACCESS:       4455 HIT:       1150 MISS:       3305
LLC PREFETCH REQUESTED:          0 ISSUED:          0 USEFUL:          0 USELESS:          0
LLC AVERAGE MISS LATENCY: 4526 cycles
cpu0_DTLB TOTAL        ACCESS:   24767793 HIT:   24458477 MISS:     309316
cpu0_DTLB LOAD         ACCESS:   24767793 HIT:   24458477 MISS:     309316
cpu0_DTLB RFO          ACCESS:          0 HIT:          0 MISS:          0
cpu0_DTLB PREFETCH     ACCESS:          0 HIT:          0 MISS:          0
cpu0_DTLB WRITE        ACCESS:          0 HIT:          0 MISS:          0
cpu0_DTLB TRANSLATION  ACCESS:          0 HIT:          0 MISS:          0
cpu0_DTLB PREFETCH REQUESTED:          0 ISSUED:          0 USEFUL:          0 USELESS:          0
cpu0_DTLB AVERAGE MISS LATENCY: 86.96 cycles
cpu0_DTLB TOTAL        ACCESS:          0 HIT:          0 MISS:          0
cpu0_DTLB LOAD         ACCESS:          0 HIT:          0 MISS:          0
cpu0_DTLB RFO          ACCESS:          0 HIT:          0 MISS:          0
cpu0_DTLB PREFETCH     ACCESS:          0 HIT:          0 MISS:          0
cpu0_DTLB WRITE        ACCESS:          0 HIT:          0 MISS:          0
cpu0_DTLB TRANSLATION  ACCESS:          0 HIT:          0 MISS:          0
cpu0_DTLB PREFETCH REQUESTED:          0 ISSUED:          0 USEFUL:          0 USELESS:          0
cpu0_DTLB AVERAGE MISS LATENCY: 86.96 cycles
cpu0_DTLB TOTAL        ACCESS:          0 HIT:          0 MISS:          0
cpu0_DTLB LOAD         ACCESS:          0 HIT:          0 MISS:          0
cpu0_DTLB RFO          ACCESS:          0 HIT:          0 MISS:          0
cpu0_DTLB PREFETCH     ACCESS:          0 HIT:          0 MISS:          0
cpu0_DTLB WRITE        ACCESS:          0 HIT:          0 MISS:          0
cpu0_DTLB TRANSLATION  ACCESS:          0 HIT:          0 MISS:          0
cpu0_DTLB PREFETCH REQUESTED:          0 ISSUED:          0 USEFUL:          0 USELESS:          0
cpu0_DTLB AVERAGE MISS LATENCY: 86.96 cycles
cpu0_DTLB TOTAL        ACCESS:          0 HIT:          0 MISS:          0
cpu0_DTLB LOAD         ACCESS:          0 HIT:          0 MISS:          0
cpu0_DTLB RFO          ACCESS:          0 HIT:          0 MISS:          0
cpu0_DTLB PREFETCH     ACCESS:          0 HIT:          0 MISS:          0
cpu0_DTLB WRITE        ACCESS:          0 HIT:          0 MISS:          0
cpu0_DTLB TRANSLATION  ACCESS:          0 HIT:          0 MISS:          0
cpu0_DTLB PREFETCH REQUESTED:          0 ISSUED:          0 USEFUL:          0 USELESS:          0
cpu0_DTLB AVERAGE MISS LATENCY: 86.96 cycles
cpu0_ITLB TOTAL        ACCESS:          0 HIT:          0 MISS:          0
cpu0_ITLB LOAD         ACCESS:          0 HIT:          0 MISS:          0
cpu0_ITLB RFO          ACCESS:          0 HIT:          0 MISS:          0
cpu0_ITLB PREFETCH     ACCESS:          0 HIT:          0 MISS:          0
cpu0_ITLB WRITE        ACCESS:          0 HIT:          0 MISS:          0
cpu0_ITLB TRANSLATION  ACCESS:          0 HIT:          0 MISS:          0
cpu0_ITLB PREFETCH REQUESTED:          0 ISSUED:          0 USEFUL:          0 USELESS:          0
cpu0_ITLB AVERAGE MISS LATENCY: -nan cycles
cpu0_ITLB TOTAL        ACCESS:          0 HIT:          0 MISS:          0
cpu0_ITLB LOAD         ACCESS:          0 HIT:          0 MISS:          0
cpu0_ITLB RFO          ACCESS:          0 HIT:          0 MISS:          0
cpu0_ITLB PREFETCH     ACCESS:          0 HIT:          0 MISS:          0
cpu0_ITLB WRITE        ACCESS:          0 HIT:          0 MISS:          0
cpu0_ITLB TRANSLATION  ACCESS:          0 HIT:          0 MISS:          0
cpu0_ITLB PREFETCH REQUESTED:          0 ISSUED:          0 USEFUL:          0 USELESS:          0
cpu0_ITLB AVERAGE MISS LATENCY: -nan cycles
cpu0_ITLB TOTAL        ACCESS:          0 HIT:          0 MISS:          0
cpu0_ITLB LOAD         ACCESS:          0 HIT:          0 MISS:          0
cpu0_ITLB RFO          ACCESS:          0 HIT:          0 MISS:          0
cpu0_ITLB PREFETCH     ACCESS:          0 HIT:          0 MISS:          0
cpu0_ITLB WRITE        ACCESS:          0 HIT:          0 MISS:          0
cpu0_ITLB TRANSLATION  ACCESS:          0 HIT:          0 MISS:          0
cpu0_ITLB PREFETCH REQUESTED:          0 ISSUED:          0 USEFUL:          0 USELESS:          0
cpu0_ITLB AVERAGE MISS LATENCY: -nan cycles
cpu0_ITLB TOTAL        ACCESS:          0 HIT:          0 MISS:          0
cpu0_ITLB LOAD         ACCESS:          0 HIT:          0 MISS:          0
cpu0_ITLB RFO          ACCESS:          0 HIT:          0 MISS:          0
cpu0_ITLB PREFETCH     ACCESS:          0 HIT:          0 MISS:          0
cpu0_ITLB WRITE        ACCESS:          0 HIT:          0 MISS:          0
cpu0_ITLB TRANSLATION  ACCESS:          0 HIT:          0 MISS:          0
cpu0_ITLB PREFETCH REQUESTED:          0 ISSUED:          0 USEFUL:          0 USELESS:          0
cpu0_ITLB AVERAGE MISS LATENCY: -nan cycles
cpu0_L1D TOTAL        ACCESS:   33905413 HIT:   19500245 MISS:   14405168
cpu0_L1D LOAD         ACCESS:    6142243 HIT:    2823918 MISS:    3318325
cpu0_L1D RFO          ACCESS:          0 HIT:          0 MISS:          0
cpu0_L1D PREFETCH     ACCESS:          0 HIT:          0 MISS:          0
cpu0_L1D WRITE        ACCESS:   27650807 HIT:   16676267 MISS:   10974540
cpu0_L1D TRANSLATION  ACCESS:     112363 HIT:         60 MISS:     112303
cpu0_L1D PREFETCH REQUESTED:          0 ISSUED:          0 USEFUL:          0 USELESS:          0
cpu0_L1D AVERAGE MISS LATENCY: 1889 cycles
cpu0_L1D TOTAL        ACCESS:          0 HIT:          0 MISS:          0
cpu0_L1D LOAD         ACCESS:          0 HIT:          0 MISS:          0
cpu0_L1D RFO          ACCESS:          0 HIT:          0 MISS:          0
cpu0_L1D PREFETCH     ACCESS:          0 HIT:          0 MISS:          0
cpu0_L1D WRITE        ACCESS:          0 HIT:          0 MISS:          0
cpu0_L1D TRANSLATION  ACCESS:          0 HIT:          0 MISS:          0
cpu0_L1D PREFETCH REQUESTED:          0 ISSUED:          0 USEFUL:          0 USELESS:          0
cpu0_L1D AVERAGE MISS LATENCY: 1889 cycles
cpu0_L1D TOTAL        ACCESS:          0 HIT:          0 MISS:          0
cpu0_L1D LOAD         ACCESS:          0 HIT:          0 MISS:          0
cpu0_L1D RFO          ACCESS:          0 HIT:          0 MISS:          0
cpu0_L1D PREFETCH     ACCESS:          0 HIT:          0 MISS:          0
cpu0_L1D WRITE        ACCESS:          0 HIT:          0 MISS:          0
cpu0_L1D TRANSLATION  ACCESS:          0 HIT:          0 MISS:          0
cpu0_L1D PREFETCH REQUESTED:          0 ISSUED:          0 USEFUL:          0 USELESS:          0
cpu0_L1D AVERAGE MISS LATENCY: 1889 cycles
cpu0_L1D TOTAL        ACCESS:          0 HIT:          0 MISS:          0
cpu0_L1D LOAD         ACCESS:          0 HIT:          0 MISS:          0
cpu0_L1D RFO          ACCESS:          0 HIT:          0 MISS:          0
cpu0_L1D PREFETCH     ACCESS:          0 HIT:          0 MISS:          0
cpu0_L1D WRITE        ACCESS:          0 HIT:          0 MISS:          0
cpu0_L1D TRANSLATION  ACCESS:          0 HIT:          0 MISS:          0
cpu0_L1D PREFETCH REQUESTED:          0 ISSUED:          0 USEFUL:          0 USELESS:          0
cpu0_L1D AVERAGE MISS LATENCY: 1889 cycles
cpu0_L1I TOTAL        ACCESS:          0 HIT:          0 MISS:          0
cpu0_L1I LOAD         ACCESS:          0 HIT:          0 MISS:          0
cpu0_L1I RFO          ACCESS:          0 HIT:          0 MISS:          0
cpu0_L1I PREFETCH     ACCESS:          0 HIT:          0 MISS:          0
cpu0_L1I WRITE        ACCESS:          0 HIT:          0 MISS:          0
cpu0_L1I TRANSLATION  ACCESS:          0 HIT:          0 MISS:          0
cpu0_L1I PREFETCH REQUESTED:          0 ISSUED:          0 USEFUL:          0 USELESS:          0
cpu0_L1I AVERAGE MISS LATENCY: -nan cycles
cpu0_L1I TOTAL        ACCESS:          0 HIT:          0 MISS:          0
cpu0_L1I LOAD         ACCESS:          0 HIT:          0 MISS:          0
cpu0_L1I RFO          ACCESS:          0 HIT:          0 MISS:          0
cpu0_L1I PREFETCH     ACCESS:          0 HIT:          0 MISS:          0
cpu0_L1I WRITE        ACCESS:          0 HIT:          0 MISS:          0
cpu0_L1I TRANSLATION  ACCESS:          0 HIT:          0 MISS:          0
cpu0_L1I PREFETCH REQUESTED:          0 ISSUED:          0 USEFUL:          0 USELESS:          0
cpu0_L1I AVERAGE MISS LATENCY: -nan cycles
cpu0_L1I TOTAL        ACCESS:          0 HIT:          0 MISS:          0
cpu0_L1I LOAD         ACCESS:          0 HIT:          0 MISS:          0
cpu0_L1I RFO          ACCESS:          0 HIT:          0 MISS:          0
cpu0_L1I PREFETCH     ACCESS:          0 HIT:          0 MISS:          0
cpu0_L1I WRITE        ACCESS:          0 HIT:          0 MISS:          0
cpu0_L1I TRANSLATION  ACCESS:          0 HIT:          0 MISS:          0
cpu0_L1I PREFETCH REQUESTED:          0 ISSUED:          0 USEFUL:          0 USELESS:          0
cpu0_L1I AVERAGE MISS LATENCY: -nan cycles
cpu0_L1I TOTAL        ACCESS:          0 HIT:          0 MISS:          0
cpu0_L1I LOAD         ACCESS:          0 HIT:          0 MISS:          0
cpu0_L1I RFO          ACCESS:          0 HIT:          0 MISS:          0
cpu0_L1I PREFETCH     ACCESS:          0 HIT:          0 MISS:          0
cpu0_L1I WRITE        ACCESS:          0 HIT:          0 MISS:          0
cpu0_L1I TRANSLATION  ACCESS:          0 HIT:          0 MISS:          0
cpu0_L1I PREFETCH REQUESTED:          0 ISSUED:          0 USEFUL:          0 USELESS:          0
cpu0_L1I AVERAGE MISS LATENCY: -nan cycles
cpu0_L2C TOTAL        ACCESS:   22194037 HIT:   14909755 MISS:    7284282
cpu0_L2C LOAD         ACCESS:    1795728 HIT:         55 MISS:    1795673
cpu0_L2C RFO          ACCESS:   10142867 HIT:    4655086 MISS:    5487781
cpu0_L2C PREFETCH     ACCESS:          0 HIT:          0 MISS:          0
cpu0_L2C WRITE        ACCESS:   10143139 HIT:   10143137 MISS:          2
cpu0_L2C TRANSLATION  ACCESS:     112303 HIT:     111477 MISS:        826
cpu0_L2C PREFETCH REQUESTED:          0 ISSUED:          0 USEFUL:          0 USELESS:          0
cpu0_L2C AVERAGE MISS LATENCY: 4071 cycles
cpu0_L2C TOTAL        ACCESS:          0 HIT:          0 MISS:          0
cpu0_L2C LOAD         ACCESS:          0 HIT:          0 MISS:          0
cpu0_L2C RFO          ACCESS:          0 HIT:          0 MISS:          0
cpu0_L2C PREFETCH     ACCESS:          0 HIT:          0 MISS:          0
cpu0_L2C WRITE        ACCESS:          0 HIT:          0 MISS:          0
cpu0_L2C TRANSLATION  ACCESS:          0 HIT:          0 MISS:          0
cpu0_L2C PREFETCH REQUESTED:          0 ISSUED:          0 USEFUL:          0 USELESS:          0
cpu0_L2C AVERAGE MISS LATENCY: 4071 cycles
cpu0_L2C TOTAL        ACCESS:          0 HIT:          0 MISS:          0
cpu0_L2C LOAD         ACCESS:          0 HIT:          0 MISS:          0
cpu0_L2C RFO          ACCESS:          0 HIT:          0 MISS:          0
cpu0_L2C PREFETCH     ACCESS:          0 HIT:          0 MISS:          0
cpu0_L2C WRITE        ACCESS:          0 HIT:          0 MISS:          0
cpu0_L2C TRANSLATION  ACCESS:          0 HIT:          0 MISS:          0
cpu0_L2C PREFETCH REQUESTED:          0 ISSUED:          0 USEFUL:          0 USELESS:          0
cpu0_L2C AVERAGE MISS LATENCY: 4071 cycles
cpu0_L2C TOTAL        ACCESS:          0 HIT:          0 MISS:          0
cpu0_L2C LOAD         ACCESS:          0 HIT:          0 MISS:          0
cpu0_L2C RFO          ACCESS:          0 HIT:          0 MISS:          0
cpu0_L2C PREFETCH     ACCESS:          0 HIT:          0 MISS:          0
cpu0_L2C WRITE        ACCESS:          0 HIT:          0 MISS:          0
cpu0_L2C TRANSLATION  ACCESS:          0 HIT:          0 MISS:          0
cpu0_L2C PREFETCH REQUESTED:          0 ISSUED:          0 USEFUL:          0 USELESS:          0
cpu0_L2C AVERAGE MISS LATENCY: 4071 cycles
cpu0_STLB TOTAL        ACCESS:     206883 HIT:      94629 MISS:     112254
cpu0_STLB LOAD         ACCESS:     206883 HIT:      94629 MISS:     112254
cpu0_STLB RFO          ACCESS:          0 HIT:          0 MISS:          0
cpu0_STLB PREFETCH     ACCESS:          0 HIT:          0 MISS:          0
cpu0_STLB WRITE        ACCESS:          0 HIT:          0 MISS:          0
cpu0_STLB TRANSLATION  ACCESS:          0 HIT:          0 MISS:          0
cpu0_STLB PREFETCH REQUESTED:          0 ISSUED:          0 USEFUL:          0 USELESS:          0
cpu0_STLB AVERAGE MISS LATENCY: 275.2 cycles
cpu0_STLB TOTAL        ACCESS:          0 HIT:          0 MISS:          0
cpu0_STLB LOAD         ACCESS:          0 HIT:          0 MISS:          0
cpu0_STLB RFO          ACCESS:          0 HIT:          0 MISS:          0
cpu0_STLB PREFETCH     ACCESS:          0 HIT:          0 MISS:          0
cpu0_STLB WRITE        ACCESS:          0 HIT:          0 MISS:          0
cpu0_STLB TRANSLATION  ACCESS:          0 HIT:          0 MISS:          0
cpu0_STLB PREFETCH REQUESTED:          0 ISSUED:          0 USEFUL:          0 USELESS:          0
cpu0_STLB AVERAGE MISS LATENCY: 275.2 cycles
cpu0_STLB TOTAL        ACCESS:          0 HIT:          0 MISS:          0
cpu0_STLB LOAD         ACCESS:          0 HIT:          0 MISS:          0
cpu0_STLB RFO          ACCESS:          0 HIT:          0 MISS:          0
cpu0_STLB PREFETCH     ACCESS:          0 HIT:          0 MISS:          0
cpu0_STLB WRITE        ACCESS:          0 HIT:          0 MISS:          0
cpu0_STLB TRANSLATION  ACCESS:          0 HIT:          0 MISS:          0
cpu0_STLB PREFETCH REQUESTED:          0 ISSUED:          0 USEFUL:          0 USELESS:          0
cpu0_STLB AVERAGE MISS LATENCY: 275.2 cycles
cpu0_STLB TOTAL        ACCESS:          0 HIT:          0 MISS:          0
cpu0_STLB LOAD         ACCESS:          0 HIT:          0 MISS:          0
cpu0_STLB RFO          ACCESS:          0 HIT:          0 MISS:          0
cpu0_STLB PREFETCH     ACCESS:          0 HIT:          0 MISS:          0
cpu0_STLB WRITE        ACCESS:          0 HIT:          0 MISS:          0
cpu0_STLB TRANSLATION  ACCESS:          0 HIT:          0 MISS:          0
cpu0_STLB PREFETCH REQUESTED:          0 ISSUED:          0 USEFUL:          0 USELESS:          0
cpu0_STLB AVERAGE MISS LATENCY: 275.2 cycles
cpu1_DTLB TOTAL        ACCESS:          0 HIT:          0 MISS:          0
cpu1_DTLB LOAD         ACCESS:          0 HIT:          0 MISS:          0
cpu1_DTLB RFO          ACCESS:          0 HIT:          0 MISS:          0
cpu1_DTLB PREFETCH     ACCESS:          0 HIT:          0 MISS:          0
cpu1_DTLB WRITE        ACCESS:          0 HIT:          0 MISS:          0
cpu1_DTLB TRANSLATION  ACCESS:          0 HIT:          0 MISS:          0
cpu1_DTLB PREFETCH REQUESTED:          0 ISSUED:          0 USEFUL:          0 USELESS:          0
cpu1_DTLB AVERAGE MISS LATENCY: 11.29 cycles
cpu1_DTLB TOTAL        ACCESS:  118421806 HIT:   69138307 MISS:   49283499
cpu1_DTLB LOAD         ACCESS:  118421806 HIT:   69138307 MISS:   49283499
cpu1_DTLB RFO          ACCESS:          0 HIT:          0 MISS:          0
cpu1_DTLB PREFETCH     ACCESS:          0 HIT:          0 MISS:          0
cpu1_DTLB WRITE        ACCESS:          0 HIT:          0 MISS:          0
cpu1_DTLB TRANSLATION  ACCESS:          0 HIT:          0 MISS:          0
cpu1_DTLB PREFETCH REQUESTED:          0 ISSUED:          0 USEFUL:          0 USELESS:          0
cpu1_DTLB AVERAGE MISS LATENCY: 11.29 cycles
cpu1_DTLB TOTAL        ACCESS:          0 HIT:          0 MISS:          0
cpu1_DTLB LOAD         ACCESS:          0 HIT:          0 MISS:          0
cpu1_DTLB RFO          ACCESS:          0 HIT:          0 MISS:          0
cpu1_DTLB PREFETCH     ACCESS:          0 HIT:          0 MISS:          0
cpu1_DTLB WRITE        ACCESS:          0 HIT:          0 MISS:          0
cpu1_DTLB TRANSLATION  ACCESS:          0 HIT:          0 MISS:          0
cpu1_DTLB PREFETCH REQUESTED:          0 ISSUED:          0 USEFUL:          0 USELESS:          0
cpu1_DTLB AVERAGE MISS LATENCY: 11.29 cycles
cpu1_DTLB TOTAL        ACCESS:          0 HIT:          0 MISS:          0
cpu1_DTLB LOAD         ACCESS:          0 HIT:          0 MISS:          0
cpu1_DTLB RFO          ACCESS:          0 HIT:          0 MISS:          0
cpu1_DTLB PREFETCH     ACCESS:          0 HIT:          0 MISS:          0
cpu1_DTLB WRITE        ACCESS:          0 HIT:          0 MISS:          0
cpu1_DTLB TRANSLATION  ACCESS:          0 HIT:          0 MISS:          0
cpu1_DTLB PREFETCH REQUESTED:          0 ISSUED:          0 USEFUL:          0 USELESS:          0
cpu1_DTLB AVERAGE MISS LATENCY: 11.29 cycles
cpu1_ITLB TOTAL        ACCESS:          0 HIT:          0 MISS:          0
cpu1_ITLB LOAD         ACCESS:          0 HIT:          0 MISS:          0
cpu1_ITLB RFO          ACCESS:          0 HIT:          0 MISS:          0
cpu1_ITLB PREFETCH     ACCESS:          0 HIT:          0 MISS:          0
cpu1_ITLB WRITE        ACCESS:          0 HIT:          0 MISS:          0
cpu1_ITLB TRANSLATION  ACCESS:          0 HIT:          0 MISS:          0
cpu1_ITLB PREFETCH REQUESTED:          0 ISSUED:          0 USEFUL:          0 USELESS:          0
cpu1_ITLB AVERAGE MISS LATENCY: 861.4 cycles
cpu1_ITLB TOTAL        ACCESS:   72264775 HIT:   72264690 MISS:         85
cpu1_ITLB LOAD         ACCESS:   72264775 HIT:   72264690 MISS:         85
cpu1_ITLB RFO          ACCESS:          0 HIT:          0 MISS:          0
cpu1_ITLB PREFETCH     ACCESS:          0 HIT:          0 MISS:          0
cpu1_ITLB WRITE        ACCESS:          0 HIT:          0 MISS:          0
cpu1_ITLB TRANSLATION  ACCESS:          0 HIT:          0 MISS:          0
cpu1_ITLB PREFETCH REQUESTED:          0 ISSUED:          0 USEFUL:          0 USELESS:          0
cpu1_ITLB AVERAGE MISS LATENCY: 861.4 cycles
cpu1_ITLB TOTAL        ACCESS:          0 HIT:          0 MISS:          0
cpu1_ITLB LOAD         ACCESS:          0 HIT:          0 MISS:          0
cpu1_ITLB RFO          ACCESS:          0 HIT:          0 MISS:          0
cpu1_ITLB PREFETCH     ACCESS:          0 HIT:          0 MISS:          0
cpu1_ITLB WRITE        ACCESS:          0 HIT:          0 MISS:          0
cpu1_ITLB TRANSLATION  ACCESS:          0 HIT:          0 MISS:          0
cpu1_ITLB PREFETCH REQUESTED:          0 ISSUED:          0 USEFUL:          0 USELESS:          0
cpu1_ITLB AVERAGE MISS LATENCY: 861.4 cycles
cpu1_ITLB TOTAL        ACCESS:          0 HIT:          0 MISS:          0
cpu1_ITLB LOAD         ACCESS:          0 HIT:          0 MISS:          0
cpu1_ITLB RFO          ACCESS:          0 HIT:          0 MISS:          0
cpu1_ITLB PREFETCH     ACCESS:          0 HIT:          0 MISS:          0
cpu1_ITLB WRITE        ACCESS:          0 HIT:          0 MISS:          0
cpu1_ITLB TRANSLATION  ACCESS:          0 HIT:          0 MISS:          0
cpu1_ITLB PREFETCH REQUESTED:          0 ISSUED:          0 USEFUL:          0 USELESS:          0
cpu1_ITLB AVERAGE MISS LATENCY: 861.4 cycles
cpu1_L1D TOTAL        ACCESS:          0 HIT:          0 MISS:          0
cpu1_L1D LOAD         ACCESS:          0 HIT:          0 MISS:          0
cpu1_L1D RFO          ACCESS:          0 HIT:          0 MISS:          0
cpu1_L1D PREFETCH     ACCESS:          0 HIT:          0 MISS:          0
cpu1_L1D WRITE        ACCESS:          0 HIT:          0 MISS:          0
cpu1_L1D TRANSLATION  ACCESS:          0 HIT:          0 MISS:          0
cpu1_L1D PREFETCH REQUESTED:          0 ISSUED:          0 USEFUL:          0 USELESS:          0
cpu1_L1D AVERAGE MISS LATENCY: 321.3 cycles
cpu1_L1D TOTAL        ACCESS:  146059650 HIT:   81069627 MISS:   64990023
cpu1_L1D LOAD         ACCESS:   82060468 HIT:   20529387 MISS:   61531081
cpu1_L1D RFO          ACCESS:          0 HIT:          0 MISS:          0
cpu1_L1D PREFETCH     ACCESS:          0 HIT:          0 MISS:          0
cpu1_L1D WRITE        ACCESS:   63892928 HIT:   60539276 MISS:    3353652
cpu1_L1D TRANSLATION  ACCESS:     106254 HIT:        964 MISS:     105290
cpu1_L1D PREFETCH REQUESTED:          0 ISSUED:          0 USEFUL:          0 USELESS:          0
cpu1_L1D AVERAGE MISS LATENCY: 321.3 cycles
cpu1_L1D TOTAL        ACCESS:          0 HIT:          0 MISS:          0
cpu1_L1D LOAD         ACCESS:          0 HIT:          0 MISS:          0
cpu1_L1D RFO          ACCESS:          0 HIT:          0 MISS:          0
cpu1_L1D PREFETCH     ACCESS:          0 HIT:          0 MISS:          0
cpu1_L1D WRITE        ACCESS:          0 HIT:          0 MISS:          0
cpu1_L1D TRANSLATION  ACCESS:          0 HIT:          0 MISS:          0
cpu1_L1D PREFETCH REQUESTED:          0 ISSUED:          0 USEFUL:          0 USELESS:          0
cpu1_L1D AVERAGE MISS LATENCY: 321.3 cycles
cpu1_L1D TOTAL        ACCESS:          0 HIT:          0 MISS:          0
cpu1_L1D LOAD         ACCESS:          0 HIT:          0 MISS:          0
cpu1_L1D RFO          ACCESS:          0 HIT:          0 MISS:          0
cpu1_L1D PREFETCH     ACCESS:          0 HIT:          0 MISS:          0
cpu1_L1D WRITE        ACCESS:          0 HIT:          0 MISS:          0
cpu1_L1D TRANSLATION  ACCESS:          0 HIT:          0 MISS:          0
cpu1_L1D PREFETCH REQUESTED:          0 ISSUED:          0 USEFUL:          0 USELESS:          0
cpu1_L1D AVERAGE MISS LATENCY: 321.3 cycles
cpu1_L1I TOTAL        ACCESS:          0 HIT:          0 MISS:          0
cpu1_L1I LOAD         ACCESS:          0 HIT:          0 MISS:          0
cpu1_L1I RFO          ACCESS:          0 HIT:          0 MISS:          0
cpu1_L1I PREFETCH     ACCESS:          0 HIT:          0 MISS:          0
cpu1_L1I WRITE        ACCESS:          0 HIT:          0 MISS:          0
cpu1_L1I TRANSLATION  ACCESS:          0 HIT:          0 MISS:          0
cpu1_L1I PREFETCH REQUESTED:          0 ISSUED:          0 USEFUL:          0 USELESS:          0
cpu1_L1I AVERAGE MISS LATENCY: 29.31 cycles
cpu1_L1I TOTAL        ACCESS:   95112133 HIT:   95035672 MISS:      76461
cpu1_L1I LOAD         ACCESS:   95112133 HIT:   95035672 MISS:      76461
cpu1_L1I RFO          ACCESS:          0 HIT:          0 MISS:          0
cpu1_L1I PREFETCH     ACCESS:          0 HIT:          0 MISS:          0
cpu1_L1I WRITE        ACCESS:          0 HIT:          0 MISS:          0
cpu1_L1I TRANSLATION  ACCESS:          0 HIT:          0 MISS:          0
cpu1_L1I PREFETCH REQUESTED:          0 ISSUED:          0 USEFUL:          0 USELESS:          0
cpu1_L1I AVERAGE MISS LATENCY: 29.31 cycles
cpu1_L1I TOTAL        ACCESS:          0 HIT:          0 MISS:          0
cpu1_L1I LOAD         ACCESS:          0 HIT:          0 MISS:          0
cpu1_L1I RFO          ACCESS:          0 HIT:          0 MISS:          0
cpu1_L1I PREFETCH     ACCESS:          0 HIT:          0 MISS:          0
cpu1_L1I WRITE        ACCESS:          0 HIT:          0 MISS:          0
cpu1_L1I TRANSLATION  ACCESS:          0 HIT:          0 MISS:          0
cpu1_L1I PREFETCH REQUESTED:          0 ISSUED:          0 USEFUL:          0 USELESS:          0
cpu1_L1I AVERAGE MISS LATENCY: 29.31 cycles
cpu1_L1I TOTAL        ACCESS:          0 HIT:          0 MISS:          0
cpu1_L1I LOAD         ACCESS:          0 HIT:          0 MISS:          0
cpu1_L1I RFO          ACCESS:          0 HIT:          0 MISS:          0
cpu1_L1I PREFETCH     ACCESS:          0 HIT:          0 MISS:          0
cpu1_L1I WRITE        ACCESS:          0 HIT:          0 MISS:          0
cpu1_L1I TRANSLATION  ACCESS:          0 HIT:          0 MISS:          0
cpu1_L1I PREFETCH REQUESTED:          0 ISSUED:          0 USEFUL:          0 USELESS:          0
cpu1_L1I AVERAGE MISS LATENCY: 29.31 cycles
cpu1_L2C TOTAL        ACCESS:          0 HIT:          0 MISS:          0
cpu1_L2C LOAD         ACCESS:          0 HIT:          0 MISS:          0
cpu1_L2C RFO          ACCESS:          0 HIT:          0 MISS:          0
cpu1_L2C PREFETCH     ACCESS:          0 HIT:          0 MISS:          0
cpu1_L2C WRITE        ACCESS:          0 HIT:          0 MISS:          0
cpu1_L2C TRANSLATION  ACCESS:          0 HIT:          0 MISS:          0
cpu1_L2C PREFETCH REQUESTED:          0 ISSUED:          0 USEFUL:          0 USELESS:          0
cpu1_L2C AVERAGE MISS LATENCY: 3390 cycles
cpu1_L2C TOTAL        ACCESS:   68416686 HIT:   62449491 MISS:    5967195
cpu1_L2C LOAD         ACCESS:   60954400 HIT:   55089867 MISS:    5864533
cpu1_L2C RFO          ACCESS:    2501031 HIT:    2483424 MISS:      17607
cpu1_L2C PREFETCH     ACCESS:          0 HIT:          0 MISS:          0
cpu1_L2C WRITE        ACCESS:    4856065 HIT:    4856064 MISS:          1
cpu1_L2C TRANSLATION  ACCESS:     105190 HIT:      20136 MISS:      85054
cpu1_L2C PREFETCH REQUESTED:          0 ISSUED:          0 USEFUL:          0 USELESS:          0
cpu1_L2C AVERAGE MISS LATENCY: 3390 cycles
cpu1_L2C TOTAL        ACCESS:          0 HIT:          0 MISS:          0
cpu1_L2C LOAD         ACCESS:          0 HIT:          0 MISS:          0
cpu1_L2C RFO          ACCESS:          0 HIT:          0 MISS:          0
cpu1_L2C PREFETCH     ACCESS:          0 HIT:          0 MISS:          0
cpu1_L2C WRITE        ACCESS:          0 HIT:          0 MISS:          0
cpu1_L2C TRANSLATION  ACCESS:          0 HIT:          0 MISS:          0
cpu1_L2C PREFETCH REQUESTED:          0 ISSUED:          0 USEFUL:          0 USELESS:          0
cpu1_L2C AVERAGE MISS LATENCY: 3390 cycles
cpu1_L2C TOTAL        ACCESS:          0 HIT:          0 MISS:          0
cpu1_L2C LOAD         ACCESS:          0 HIT:          0 MISS:          0
cpu1_L2C RFO          ACCESS:          0 HIT:          0 MISS:          0
cpu1_L2C PREFETCH     ACCESS:          0 HIT:          0 MISS:          0
cpu1_L2C WRITE        ACCESS:          0 HIT:          0 MISS:          0
cpu1_L2C TRANSLATION  ACCESS:          0 HIT:          0 MISS:          0
cpu1_L2C PREFETCH REQUESTED:          0 ISSUED:          0 USEFUL:          0 USELESS:          0
cpu1_L2C AVERAGE MISS LATENCY: 3390 cycles
cpu1_STLB TOTAL        ACCESS:          0 HIT:          0 MISS:          0
cpu1_STLB LOAD         ACCESS:          0 HIT:          0 MISS:          0
cpu1_STLB RFO          ACCESS:          0 HIT:          0 MISS:          0
cpu1_STLB PREFETCH     ACCESS:          0 HIT:          0 MISS:          0
cpu1_STLB WRITE        ACCESS:          0 HIT:          0 MISS:          0
cpu1_STLB TRANSLATION  ACCESS:          0 HIT:          0 MISS:          0
cpu1_STLB PREFETCH REQUESTED:          0 ISSUED:          0 USEFUL:          0 USELESS:          0
cpu1_STLB AVERAGE MISS LATENCY: 3760 cycles
cpu1_STLB TOTAL        ACCESS:   42160376 HIT:   42092156 MISS:      68220
cpu1_STLB LOAD         ACCESS:   42160376 HIT:   42092156 MISS:      68220
cpu1_STLB RFO          ACCESS:          0 HIT:          0 MISS:          0
cpu1_STLB PREFETCH     ACCESS:          0 HIT:          0 MISS:          0
cpu1_STLB WRITE        ACCESS:          0 HIT:          0 MISS:          0
cpu1_STLB TRANSLATION  ACCESS:          0 HIT:          0 MISS:          0
cpu1_STLB PREFETCH REQUESTED:          0 ISSUED:          0 USEFUL:          0 USELESS:          0
cpu1_STLB AVERAGE MISS LATENCY: 3760 cycles
cpu1_STLB TOTAL        ACCESS:          0 HIT:          0 MISS:          0
cpu1_STLB LOAD         ACCESS:          0 HIT:          0 MISS:          0
cpu1_STLB RFO          ACCESS:          0 HIT:          0 MISS:          0
cpu1_STLB PREFETCH     ACCESS:          0 HIT:          0 MISS:          0
cpu1_STLB WRITE        ACCESS:          0 HIT:          0 MISS:          0
cpu1_STLB TRANSLATION  ACCESS:          0 HIT:          0 MISS:          0
cpu1_STLB PREFETCH REQUESTED:          0 ISSUED:          0 USEFUL:          0 USELESS:          0
cpu1_STLB AVERAGE MISS LATENCY: 3760 cycles
cpu1_STLB TOTAL        ACCESS:          0 HIT:          0 MISS:          0
cpu1_STLB LOAD         ACCESS:          0 HIT:          0 MISS:          0
cpu1_STLB RFO          ACCESS:          0 HIT:          0 MISS:          0
cpu1_STLB PREFETCH     ACCESS:          0 HIT:          0 MISS:          0
cpu1_STLB WRITE        ACCESS:          0 HIT:          0 MISS:          0
cpu1_STLB TRANSLATION  ACCESS:          0 HIT:          0 MISS:          0
cpu1_STLB PREFETCH REQUESTED:          0 ISSUED:          0 USEFUL:          0 USELESS:          0
cpu1_STLB AVERAGE MISS LATENCY: 3760 cycles
cpu2_DTLB TOTAL        ACCESS:          0 HIT:          0 MISS:          0
cpu2_DTLB LOAD         ACCESS:          0 HIT:          0 MISS:          0
cpu2_DTLB RFO          ACCESS:          0 HIT:          0 MISS:          0
cpu2_DTLB PREFETCH     ACCESS:          0 HIT:          0 MISS:          0
cpu2_DTLB WRITE        ACCESS:          0 HIT:          0 MISS:          0
cpu2_DTLB TRANSLATION  ACCESS:          0 HIT:          0 MISS:          0
cpu2_DTLB PREFETCH REQUESTED:          0 ISSUED:          0 USEFUL:          0 USELESS:          0
cpu2_DTLB AVERAGE MISS LATENCY: 31.99 cycles
cpu2_DTLB TOTAL        ACCESS:          0 HIT:          0 MISS:          0
cpu2_DTLB LOAD         ACCESS:          0 HIT:          0 MISS:          0
cpu2_DTLB RFO          ACCESS:          0 HIT:          0 MISS:          0
cpu2_DTLB PREFETCH     ACCESS:          0 HIT:          0 MISS:          0
cpu2_DTLB WRITE        ACCESS:          0 HIT:          0 MISS:          0
cpu2_DTLB TRANSLATION  ACCESS:          0 HIT:          0 MISS:          0
cpu2_DTLB PREFETCH REQUESTED:          0 ISSUED:          0 USEFUL:          0 USELESS:          0
cpu2_DTLB AVERAGE MISS LATENCY: 31.99 cycles
cpu2_DTLB TOTAL        ACCESS:  150547787 HIT:  149006895 MISS:    1540892
cpu2_DTLB LOAD         ACCESS:  150547787 HIT:  149006895 MISS:    1540892
cpu2_DTLB RFO          ACCESS:          0 HIT:          0 MISS:          0
cpu2_DTLB PREFETCH     ACCESS:          0 HIT:          0 MISS:          0
cpu2_DTLB WRITE        ACCESS:          0 HIT:          0 MISS:          0
cpu2_DTLB TRANSLATION  ACCESS:          0 HIT:          0 MISS:          0
cpu2_DTLB PREFETCH REQUESTED:          0 ISSUED:          0 USEFUL:          0 USELESS:          0
cpu2_DTLB AVERAGE MISS LATENCY: 31.99 cycles
cpu2_DTLB TOTAL        ACCESS:          0 HIT:          0 MISS:          0
cpu2_DTLB LOAD         ACCESS:          0 HIT:          0 MISS:          0
cpu2_DTLB RFO          ACCESS:          0 HIT:          0 MISS:          0
cpu2_DTLB PREFETCH     ACCESS:          0 HIT:          0 MISS:          0
cpu2_DTLB WRITE        ACCESS:          0 HIT:          0 MISS:          0
cpu2_DTLB TRANSLATION  ACCESS:          0 HIT:          0 MISS:          0
cpu2_DTLB PREFETCH REQUESTED:          0 ISSUED:          0 USEFUL:          0 USELESS:          0
cpu2_DTLB AVERAGE MISS LATENCY: 31.99 cycles
cpu2_ITLB TOTAL        ACCESS:          0 HIT:          0 MISS:          0
cpu2_ITLB LOAD         ACCESS:          0 HIT:          0 MISS:          0
cpu2_ITLB RFO          ACCESS:          0 HIT:          0 MISS:          0
cpu2_ITLB PREFETCH     ACCESS:          0 HIT:          0 MISS:          0
cpu2_ITLB WRITE        ACCESS:          0 HIT:          0 MISS:          0
cpu2_ITLB TRANSLATION  ACCESS:          0 HIT:          0 MISS:          0
cpu2_ITLB PREFETCH REQUESTED:          0 ISSUED:          0 USEFUL:          0 USELESS:          0
cpu2_ITLB AVERAGE MISS LATENCY: 248.8 cycles
cpu2_ITLB TOTAL        ACCESS:          0 HIT:          0 MISS:          0
cpu2_ITLB LOAD         ACCESS:          0 HIT:          0 MISS:          0
cpu2_ITLB RFO          ACCESS:          0 HIT:          0 MISS:          0
cpu2_ITLB PREFETCH     ACCESS:          0 HIT:          0 MISS:          0
cpu2_ITLB WRITE        ACCESS:          0 HIT:          0 MISS:          0
cpu2_ITLB TRANSLATION  ACCESS:          0 HIT:          0 MISS:          0
cpu2_ITLB PREFETCH REQUESTED:          0 ISSUED:          0 USEFUL:          0 USELESS:          0
cpu2_ITLB AVERAGE MISS LATENCY: 248.8 cycles
cpu2_ITLB TOTAL        ACCESS:   20664216 HIT:   20640116 MISS:      24100
cpu2_ITLB LOAD         ACCESS:   20664216 HIT:   20640116 MISS:      24100
cpu2_ITLB RFO          ACCESS:          0 HIT:          0 MISS:          0
cpu2_ITLB PREFETCH     ACCESS:          0 HIT:          0 MISS:          0
cpu2_ITLB WRITE        ACCESS:          0 HIT:          0 MISS:          0
cpu2_ITLB TRANSLATION  ACCESS:          0 HIT:          0 MISS:          0
cpu2_ITLB PREFETCH REQUESTED:          0 ISSUED:          0 USEFUL:          0 USELESS:          0
cpu2_ITLB AVERAGE MISS LATENCY: 248.8 cycles
cpu2_ITLB TOTAL        ACCESS:          0 HIT:          0 MISS:          0
cpu2_ITLB LOAD         ACCESS:          0 HIT:          0 MISS:          0
cpu2_ITLB RFO          ACCESS:          0 HIT:          0 MISS:          0
cpu2_ITLB PREFETCH     ACCESS:          0 HIT:          0 MISS:          0
cpu2_ITLB WRITE        ACCESS:          0 HIT:          0 MISS:          0
cpu2_ITLB TRANSLATION  ACCESS:          0 HIT:          0 MISS:          0
cpu2_ITLB PREFETCH REQUESTED:          0 ISSUED:          0 USEFUL:          0 USELESS:          0
cpu2_ITLB AVERAGE MISS LATENCY: 248.8 cycles
cpu2_L1D TOTAL        ACCESS:          0 HIT:          0 MISS:          0
cpu2_L1D LOAD         ACCESS:          0 HIT:          0 MISS:          0
cpu2_L1D RFO          ACCESS:          0 HIT:          0 MISS:          0
cpu2_L1D PREFETCH     ACCESS:          0 HIT:          0 MISS:          0
cpu2_L1D WRITE        ACCESS:          0 HIT:          0 MISS:          0
cpu2_L1D TRANSLATION  ACCESS:          0 HIT:          0 MISS:          0
cpu2_L1D PREFETCH REQUESTED:          0 ISSUED:          0 USEFUL:          0 USELESS:          0
cpu2_L1D AVERAGE MISS LATENCY: 946.8 cycles
cpu2_L1D TOTAL        ACCESS:          0 HIT:          0 MISS:          0
cpu2_L1D LOAD         ACCESS:          0 HIT:          0 MISS:          0
cpu2_L1D RFO          ACCESS:          0 HIT:          0 MISS:          0
cpu2_L1D PREFETCH     ACCESS:          0 HIT:          0 MISS:          0
cpu2_L1D WRITE        ACCESS:          0 HIT:          0 MISS:          0
cpu2_L1D TRANSLATION  ACCESS:          0 HIT:          0 MISS:          0
cpu2_L1D PREFETCH REQUESTED:          0 ISSUED:          0 USEFUL:          0 USELESS:          0
cpu2_L1D AVERAGE MISS LATENCY: 946.8 cycles
cpu2_L1D TOTAL        ACCESS:  198519879 HIT:  167004232 MISS:   31515647
cpu2_L1D LOAD         ACCESS:   95771506 HIT:   90854155 MISS:    4917351
cpu2_L1D RFO          ACCESS:          0 HIT:          0 MISS:          0
cpu2_L1D PREFETCH     ACCESS:          0 HIT:          0 MISS:          0
cpu2_L1D WRITE        ACCESS:  102639962 HIT:   76066601 MISS:   26573361
cpu2_L1D TRANSLATION  ACCESS:     108411 HIT:      83476 MISS:      24935
cpu2_L1D PREFETCH REQUESTED:          0 ISSUED:          0 USEFUL:          0 USELESS:          0
cpu2_L1D AVERAGE MISS LATENCY: 946.8 cycles
cpu2_L1D TOTAL        ACCESS:          0 HIT:          0 MISS:          0
cpu2_L1D LOAD         ACCESS:          0 HIT:          0 MISS:          0
cpu2_L1D RFO          ACCESS:          0 HIT:          0 MISS:          0
cpu2_L1D PREFETCH     ACCESS:          0 HIT:          0 MISS:          0
cpu2_L1D WRITE        ACCESS:          0 HIT:          0 MISS:          0
cpu2_L1D TRANSLATION  ACCESS:          0 HIT:          0 MISS:          0
cpu2_L1D PREFETCH REQUESTED:          0 ISSUED:          0 USEFUL:          0 USELESS:          0
cpu2_L1D AVERAGE MISS LATENCY: 946.8 cycles
cpu2_L1I TOTAL        ACCESS:          0 HIT:          0 MISS:          0
cpu2_L1I LOAD         ACCESS:          0 HIT:          0 MISS:          0
cpu2_L1I RFO          ACCESS:          0 HIT:          0 MISS:          0
cpu2_L1I PREFETCH     ACCESS:          0 HIT:          0 MISS:          0
cpu2_L1I WRITE        ACCESS:          0 HIT:          0 MISS:          0
cpu2_L1I TRANSLATION  ACCESS:          0 HIT:          0 MISS:          0
cpu2_L1I PREFETCH REQUESTED:          0 ISSUED:          0 USEFUL:          0 USELESS:          0
cpu2_L1I AVERAGE MISS LATENCY: 678 cycles
cpu2_L1I TOTAL        ACCESS:          0 HIT:          0 MISS:          0
cpu2_L1I LOAD         ACCESS:          0 HIT:          0 MISS:          0
cpu2_L1I RFO          ACCESS:          0 HIT:          0 MISS:          0
[...]
cpu2_L1I WRITE        ACCESS:          0 HIT:          0 MISS:          0
cpu2_L1I TRANSLATION  ACCESS:          0 HIT:          0 MISS:          0
cpu2_L1I PREFETCH REQUESTED:          0 ISSUED:          0 USEFUL:          0 USELESS:          0
cpu2_L1I AVERAGE MISS LATENCY: 678 cycles
cpu2_L1I TOTAL        ACCESS:          0 HIT:          0 MISS:          0
cpu2_L1I LOAD         ACCESS:          0 HIT:          0 MISS:          0
cpu2_L1I RFO          ACCESS:          0 HIT:          0 MISS:          0
cpu2_L1I PREFETCH     ACCESS:          0 HIT:          0 MISS:          0
cpu2_L1I WRITE        ACCESS:          0 HIT:          0 MISS:          0
cpu2_L1I TRANSLATION  ACCESS:          0 HIT:          0 MISS:          0
cpu2_L1I PREFETCH REQUESTED:          0 ISSUED:          0 USEFUL:          0 USELESS:          0
cpu2_L1I AVERAGE MISS LATENCY: 678 cycles
cpu2_L2C TOTAL        ACCESS:          0 HIT:          0 MISS:          0
cpu2_L2C LOAD         ACCESS:          0 HIT:          0 MISS:          0
cpu2_L2C RFO          ACCESS:          0 HIT:          0 MISS:          0
cpu2_L2C PREFETCH     ACCESS:          0 HIT:          0 MISS:          0
cpu2_L2C WRITE        ACCESS:          0 HIT:          0 MISS:          0
cpu2_L2C TRANSLATION  ACCESS:          0 HIT:          0 MISS:          0
cpu2_L2C PREFETCH REQUESTED:          0 ISSUED:          0 USEFUL:          0 USELESS:          0
cpu2_L2C AVERAGE MISS LATENCY: 4975 cycles
cpu2_L2C TOTAL        ACCESS:          0 HIT:          0 MISS:          0
cpu2_L2C LOAD         ACCESS:          0 HIT:          0 MISS:          0
cpu2_L2C RFO          ACCESS:          0 HIT:          0 MISS:          0
cpu2_L2C PREFETCH     ACCESS:          0 HIT:          0 MISS:          0
cpu2_L2C WRITE        ACCESS:          0 HIT:          0 MISS:          0
cpu2_L2C TRANSLATION  ACCESS:          0 HIT:          0 MISS:          0
cpu2_L2C PREFETCH REQUESTED:          0 ISSUED:          0 USEFUL:          0 USELESS:          0
cpu2_L2C AVERAGE MISS LATENCY: 4975 cycles
cpu2_L2C TOTAL        ACCESS:    3044113 HIT:    1951823 MISS:    1092290
cpu2_L2C LOAD         ACCESS:     589895 HIT:     472152 MISS:     117743
cpu2_L2C RFO          ACCESS:    1186649 HIT:     215180 MISS:     971469
cpu2_L2C PREFETCH     ACCESS:          0 HIT:          0 MISS:          0
cpu2_L2C WRITE        ACCESS:    1263350 HIT:    1263307 MISS:         43
cpu2_L2C TRANSLATION  ACCESS:       4219 HIT:       1184 MISS:       3035
cpu2_L2C PREFETCH REQUESTED:          0 ISSUED:          0 USEFUL:          0 USELESS:          0
cpu2_L2C AVERAGE MISS LATENCY: 4975 cycles
cpu2_L2C TOTAL        ACCESS:          0 HIT:          0 MISS:          0
cpu2_L2C LOAD         ACCESS:          0 HIT:          0 MISS:          0
cpu2_L2C RFO          ACCESS:          0 HIT:          0 MISS:          0
cpu2_L2C PREFETCH     ACCESS:          0 HIT:          0 MISS:          0
cpu2_L2C WRITE        ACCESS:          0 HIT:          0 MISS:          0
cpu2_L2C TRANSLATION  ACCESS:          0 HIT:          0 MISS:          0
cpu2_L2C PREFETCH REQUESTED:          0 ISSUED:          0 USEFUL:          0 USELESS:          0
cpu2_L2C AVERAGE MISS LATENCY: 4975 cycles
cpu2_STLB TOTAL        ACCESS:          0 HIT:          0 MISS:          0
cpu2_STLB LOAD         ACCESS:          0 HIT:          0 MISS:          0
cpu2_STLB RFO          ACCESS:          0 HIT:          0 MISS:          0
cpu2_STLB PREFETCH     ACCESS:          0 HIT:          0 MISS:          0
cpu2_STLB WRITE        ACCESS:          0 HIT:          0 MISS:          0
cpu2_STLB TRANSLATION  ACCESS:          0 HIT:          0 MISS:          0
cpu2_STLB PREFETCH REQUESTED:          0 ISSUED:          0 USEFUL:          0 USELESS:          0
cpu2_STLB AVERAGE MISS LATENCY: 556.9 cycles
cpu2_STLB TOTAL        ACCESS:          0 HIT:          0 MISS:          0
cpu2_STLB LOAD         ACCESS:          0 HIT:          0 MISS:          0
cpu2_STLB RFO          ACCESS:          0 HIT:          0 MISS:          0
cpu2_STLB PREFETCH     ACCESS:          0 HIT:          0 MISS:          0
cpu2_STLB WRITE        ACCESS:          0 HIT:          0 MISS:          0
cpu2_STLB TRANSLATION  ACCESS:          0 HIT:          0 MISS:          0
cpu2_STLB PREFETCH REQUESTED:          0 ISSUED:          0 USEFUL:          0 USELESS:          0
cpu2_STLB AVERAGE MISS LATENCY: 556.9 cycles
cpu2_STLB TOTAL        ACCESS:     100647 HIT:      81563 MISS:      19084
cpu2_STLB LOAD         ACCESS:     100647 HIT:      81563 MISS:      19084
cpu2_STLB RFO          ACCESS:          0 HIT:          0 MISS:          0
cpu2_STLB PREFETCH     ACCESS:          0 HIT:          0 MISS:          0
cpu2_STLB WRITE        ACCESS:          0 HIT:          0 MISS:          0
cpu2_STLB TRANSLATION  ACCESS:          0 HIT:          0 MISS:          0
cpu2_STLB PREFETCH REQUESTED:          0 ISSUED:          0 USEFUL:          0 USELESS:          0
cpu2_STLB AVERAGE MISS LATENCY: 556.9 cycles
cpu2_STLB TOTAL        ACCESS:          0 HIT:          0 MISS:          0
cpu2_STLB LOAD         ACCESS:          0 HIT:          0 MISS:          0
cpu2_STLB RFO          ACCESS:          0 HIT:          0 MISS:          0
cpu2_STLB PREFETCH     ACCESS:          0 HIT:          0 MISS:          0
cpu2_STLB WRITE        ACCESS:          0 HIT:          0 MISS:          0
cpu2_STLB TRANSLATION  ACCESS:          0 HIT:          0 MISS:          0
cpu2_STLB PREFETCH REQUESTED:          0 ISSUED:          0 USEFUL:          0 USELESS:          0
cpu2_STLB AVERAGE MISS LATENCY: 556.9 cycles
cpu3_DTLB TOTAL        ACCESS:          0 HIT:          0 MISS:          0
cpu3_DTLB LOAD         ACCESS:          0 HIT:          0 MISS:          0
cpu3_DTLB RFO          ACCESS:          0 HIT:          0 MISS:          0
cpu3_DTLB PREFETCH     ACCESS:          0 HIT:          0 MISS:          0
cpu3_DTLB WRITE        ACCESS:          0 HIT:          0 MISS:          0
cpu3_DTLB TRANSLATION  ACCESS:          0 HIT:          0 MISS:          0
cpu3_DTLB PREFETCH REQUESTED:          0 ISSUED:          0 USEFUL:          0 USELESS:          0
cpu3_DTLB AVERAGE MISS LATENCY: 17.22 cycles
cpu3_DTLB TOTAL        ACCESS:          0 HIT:          0 MISS:          0
cpu3_DTLB LOAD         ACCESS:          0 HIT:          0 MISS:          0
cpu3_DTLB RFO          ACCESS:          0 HIT:          0 MISS:          0
cpu3_DTLB PREFETCH     ACCESS:          0 HIT:          0 MISS:          0
cpu3_DTLB WRITE        ACCESS:          0 HIT:          0 MISS:          0
cpu3_DTLB TRANSLATION  ACCESS:          0 HIT:          0 MISS:          0
cpu3_DTLB PREFETCH REQUESTED:          0 ISSUED:          0 USEFUL:          0 USELESS:          0
cpu3_DTLB AVERAGE MISS LATENCY: 17.22 cycles
cpu3_DTLB TOTAL        ACCESS:          0 HIT:          0 MISS:          0
cpu3_DTLB LOAD         ACCESS:          0 HIT:          0 MISS:          0
cpu3_DTLB RFO          ACCESS:          0 HIT:          0 MISS:          0
cpu3_DTLB PREFETCH     ACCESS:          0 HIT:          0 MISS:          0
cpu3_DTLB WRITE        ACCESS:          0 HIT:          0 MISS:          0
cpu3_DTLB TRANSLATION  ACCESS:          0 HIT:          0 MISS:          0
cpu3_DTLB PREFETCH REQUESTED:          0 ISSUED:          0 USEFUL:          0 USELESS:          0
cpu3_DTLB AVERAGE MISS LATENCY: 17.22 cycles
cpu3_DTLB TOTAL        ACCESS:   17932475 HIT:   17921327 MISS:      11148
cpu3_DTLB LOAD         ACCESS:   17932475 HIT:   17921327 MISS:      11148
cpu3_DTLB RFO          ACCESS:          0 HIT:          0 MISS:          0
cpu3_DTLB PREFETCH     ACCESS:          0 HIT:          0 MISS:          0
cpu3_DTLB WRITE        ACCESS:          0 HIT:          0 MISS:          0
cpu3_DTLB TRANSLATION  ACCESS:          0 HIT:          0 MISS:          0
cpu3_DTLB PREFETCH REQUESTED:          0 ISSUED:          0 USEFUL:          0 USELESS:          0
cpu3_DTLB AVERAGE MISS LATENCY: 17.22 cycles
cpu3_ITLB TOTAL        ACCESS:          0 HIT:          0 MISS:          0
cpu3_ITLB LOAD         ACCESS:          0 HIT:          0 MISS:          0
cpu3_ITLB RFO          ACCESS:          0 HIT:          0 MISS:          0
cpu3_ITLB PREFETCH     ACCESS:          0 HIT:          0 MISS:          0
cpu3_ITLB WRITE        ACCESS:          0 HIT:          0 MISS:          0
cpu3_ITLB TRANSLATION  ACCESS:          0 HIT:          0 MISS:          0
cpu3_ITLB PREFETCH REQUESTED:          0 ISSUED:          0 USEFUL:          0 USELESS:          0
cpu3_ITLB AVERAGE MISS LATENCY: 1126 cycles
cpu3_ITLB TOTAL        ACCESS:          0 HIT:          0 MISS:          0
cpu3_ITLB LOAD         ACCESS:          0 HIT:          0 MISS:          0
cpu3_ITLB RFO          ACCESS:          0 HIT:          0 MISS:          0
cpu3_ITLB PREFETCH     ACCESS:          0 HIT:          0 MISS:          0
cpu3_ITLB WRITE        ACCESS:          0 HIT:          0 MISS:          0
cpu3_ITLB TRANSLATION  ACCESS:          0 HIT:          0 MISS:          0
cpu3_ITLB PREFETCH REQUESTED:          0 ISSUED:          0 USEFUL:          0 USELESS:          0
cpu3_ITLB AVERAGE MISS LATENCY: 1126 cycles
cpu3_ITLB TOTAL        ACCESS:          0 HIT:          0 MISS:          0
cpu3_ITLB LOAD         ACCESS:          0 HIT:          0 MISS:          0
cpu3_ITLB RFO          ACCESS:          0 HIT:          0 MISS:          0
cpu3_ITLB PREFETCH     ACCESS:          0 HIT:          0 MISS:          0
cpu3_ITLB WRITE        ACCESS:          0 HIT:          0 MISS:          0
cpu3_ITLB TRANSLATION  ACCESS:          0 HIT:          0 MISS:          0
cpu3_ITLB PREFETCH REQUESTED:          0 ISSUED:          0 USEFUL:          0 USELESS:          0
cpu3_ITLB AVERAGE MISS LATENCY: 1126 cycles
cpu3_ITLB TOTAL        ACCESS:     512138 HIT:     512138 MISS:          0
cpu3_ITLB LOAD         ACCESS:     512138 HIT:     512138 MISS:          0
cpu3_ITLB RFO          ACCESS:          0 HIT:          0 MISS:          0
cpu3_ITLB PREFETCH     ACCESS:          0 HIT:          0 MISS:          0
cpu3_ITLB WRITE        ACCESS:          0 HIT:          0 MISS:          0
cpu3_ITLB TRANSLATION  ACCESS:          0 HIT:          0 MISS:          0
cpu3_ITLB PREFETCH REQUESTED:          0 ISSUED:          0 USEFUL:          0 USELESS:          0
cpu3_ITLB AVERAGE MISS LATENCY: 1126 cycles
cpu3_L1D TOTAL        ACCESS:          0 HIT:          0 MISS:          0
cpu3_L1D LOAD         ACCESS:          0 HIT:          0 MISS:          0
cpu3_L1D RFO          ACCESS:          0 HIT:          0 MISS:          0
cpu3_L1D PREFETCH     ACCESS:          0 HIT:          0 MISS:          0
cpu3_L1D WRITE        ACCESS:          0 HIT:          0 MISS:          0
cpu3_L1D TRANSLATION  ACCESS:          0 HIT:          0 MISS:          0
cpu3_L1D PREFETCH REQUESTED:          0 ISSUED:          0 USEFUL:          0 USELESS:          0
cpu3_L1D AVERAGE MISS LATENCY: 686.7 cycles
cpu3_L1D TOTAL        ACCESS:          0 HIT:          0 MISS:          0
cpu3_L1D LOAD         ACCESS:          0 HIT:          0 MISS:          0
cpu3_L1D RFO          ACCESS:          0 HIT:          0 MISS:          0
cpu3_L1D PREFETCH     ACCESS:          0 HIT:          0 MISS:          0
cpu3_L1D WRITE        ACCESS:          0 HIT:          0 MISS:          0
cpu3_L1D TRANSLATION  ACCESS:          0 HIT:          0 MISS:          0
cpu3_L1D PREFETCH REQUESTED:          0 ISSUED:          0 USEFUL:          0 USELESS:          0
cpu3_L1D AVERAGE MISS LATENCY: 686.7 cycles
cpu3_L1D TOTAL        ACCESS:          0 HIT:          0 MISS:          0
cpu3_L1D LOAD         ACCESS:          0 HIT:          0 MISS:          0
cpu3_L1D RFO          ACCESS:          0 HIT:          0 MISS:          0
cpu3_L1D PREFETCH     ACCESS:          0 HIT:          0 MISS:          0
cpu3_L1D WRITE        ACCESS:          0 HIT:          0 MISS:          0
cpu3_L1D TRANSLATION  ACCESS:          0 HIT:          0 MISS:          0
cpu3_L1D PREFETCH REQUESTED:          0 ISSUED:          0 USEFUL:          0 USELESS:          0
cpu3_L1D AVERAGE MISS LATENCY: 686.7 cycles
cpu3_L1D TOTAL        ACCESS:   22021279 HIT:   22005255 MISS:      16024
cpu3_L1D LOAD         ACCESS:   16439213 HIT:   16436071 MISS:       3142
cpu3_L1D RFO          ACCESS:          0 HIT:          0 MISS:          0
cpu3_L1D PREFETCH     ACCESS:          0 HIT:          0 MISS:          0
cpu3_L1D WRITE        ACCESS:    5581898 HIT:    5569166 MISS:      12732
cpu3_L1D TRANSLATION  ACCESS:        168 HIT:         18 MISS:        150
cpu3_L1D PREFETCH REQUESTED:          0 ISSUED:          0 USEFUL:          0 USELESS:          0
cpu3_L1D AVERAGE MISS LATENCY: 686.7 cycles
cpu3_L1I TOTAL        ACCESS:          0 HIT:          0 MISS:          0
cpu3_L1I LOAD         ACCESS:          0 HIT:          0 MISS:          0
cpu3_L1I RFO          ACCESS:          0 HIT:          0 MISS:          0
cpu3_L1I PREFETCH     ACCESS:          0 HIT:          0 MISS:          0
cpu3_L1I WRITE        ACCESS:          0 HIT:          0 MISS:          0
cpu3_L1I TRANSLATION  ACCESS:          0 HIT:          0 MISS:          0
cpu3_L1I PREFETCH REQUESTED:          0 ISSUED:          0 USEFUL:          0 USELESS:          0
cpu3_L1I AVERAGE MISS LATENCY: 52.96 cycles
cpu3_L1I TOTAL        ACCESS:          0 HIT:          0 MISS:          0
cpu3_L1I LOAD         ACCESS:          0 HIT:          0 MISS:          0
cpu3_L1I RFO          ACCESS:          0 HIT:          0 MISS:          0
cpu3_L1I PREFETCH     ACCESS:          0 HIT:          0 MISS:          0
cpu3_L1I WRITE        ACCESS:          0 HIT:          0 MISS:          0
cpu3_L1I TRANSLATION  ACCESS:          0 HIT:          0 MISS:          0
cpu3_L1I PREFETCH REQUESTED:          0 ISSUED:          0 USEFUL:          0 USELESS:          0
cpu3_L1I AVERAGE MISS LATENCY: 52.96 cycles
cpu3_L1I TOTAL        ACCESS:          0 HIT:          0 MISS:          0
cpu3_L1I LOAD         ACCESS:          0 HIT:          0 MISS:          0
cpu3_L1I RFO          ACCESS:          0 HIT:          0 MISS:          0
cpu3_L1I PREFETCH     ACCESS:          0 HIT:          0 MISS:          0
cpu3_L1I WRITE        ACCESS:          0 HIT:          0 MISS:          0
cpu3_L1I TRANSLATION  ACCESS:          0 HIT:          0 MISS:          0
cpu3_L1I PREFETCH REQUESTED:          0 ISSUED:          0 USEFUL:          0 USELESS:          0
cpu3_L1I AVERAGE MISS LATENCY: 52.96 cycles
cpu3_L1I TOTAL        ACCESS:     570170 HIT:     568760 MISS:       1410
cpu3_L1I LOAD         ACCESS:     570170 HIT:     568760 MISS:       1410
cpu3_L1I RFO          ACCESS:          0 HIT:          0 MISS:          0
cpu3_L1I PREFETCH     ACCESS:          0 HIT:          0 MISS:          0
cpu3_L1I WRITE        ACCESS:          0 HIT:          0 MISS:          0
cpu3_L1I TRANSLATION  ACCESS:          0 HIT:          0 MISS:          0
cpu3_L1I PREFETCH REQUESTED:          0 ISSUED:          0 USEFUL:          0 USELESS:          0
cpu3_L1I AVERAGE MISS LATENCY: 52.96 cycles
cpu3_L2C TOTAL        ACCESS:          0 HIT:          0 MISS:          0
cpu3_L2C LOAD         ACCESS:          0 HIT:          0 MISS:          0
cpu3_L2C RFO          ACCESS:          0 HIT:          0 MISS:          0
cpu3_L2C PREFETCH     ACCESS:          0 HIT:          0 MISS:          0
cpu3_L2C WRITE        ACCESS:          0 HIT:          0 MISS:          0
cpu3_L2C TRANSLATION  ACCESS:          0 HIT:          0 MISS:          0
cpu3_L2C PREFETCH REQUESTED:          0 ISSUED:          0 USEFUL:          0 USELESS:          0
cpu3_L2C AVERAGE MISS LATENCY: 3738 cycles
cpu3_L2C TOTAL        ACCESS:          0 HIT:          0 MISS:          0
cpu3_L2C LOAD         ACCESS:          0 HIT:          0 MISS:          0
cpu3_L2C RFO          ACCESS:          0 HIT:          0 MISS:          0
cpu3_L2C PREFETCH     ACCESS:          0 HIT:          0 MISS:          0
cpu3_L2C WRITE        ACCESS:          0 HIT:          0 MISS:          0
cpu3_L2C TRANSLATION  ACCESS:          0 HIT:          0 MISS:          0
cpu3_L2C PREFETCH REQUESTED:          0 ISSUED:          0 USEFUL:          0 USELESS:          0
cpu3_L2C AVERAGE MISS LATENCY: 3738 cycles
cpu3_L2C TOTAL        ACCESS:          0 HIT:          0 MISS:          0
cpu3_L2C LOAD         ACCESS:          0 HIT:          0 MISS:          0
cpu3_L2C RFO          ACCESS:          0 HIT:          0 MISS:          0
cpu3_L2C PREFETCH     ACCESS:          0 HIT:          0 MISS:          0
cpu3_L2C WRITE        ACCESS:          0 HIT:          0 MISS:          0
cpu3_L2C TRANSLATION  ACCESS:          0 HIT:          0 MISS:          0
cpu3_L2C PREFETCH REQUESTED:          0 ISSUED:          0 USEFUL:          0 USELESS:          0
cpu3_L2C AVERAGE MISS LATENCY: 3738 cycles
cpu3_L2C TOTAL        ACCESS:       8514 HIT:       4345 MISS:       4169
cpu3_L2C LOAD         ACCESS:       2775 HIT:       1203 MISS:       1572
cpu3_L2C RFO          ACCESS:       2556 HIT:         63 MISS:       2493
cpu3_L2C PREFETCH     ACCESS:          0 HIT:          0 MISS:          0
cpu3_L2C WRITE        ACCESS:       3033 HIT:       3023 MISS:         10
cpu3_L2C TRANSLATION  ACCESS:        150 HIT:         56 MISS:         94
cpu3_L2C PREFETCH REQUESTED:          0 ISSUED:          0 USEFUL:          0 USELESS:          0
cpu3_L2C AVERAGE MISS LATENCY: 3738 cycles
cpu3_STLB TOTAL        ACCESS:          0 HIT:          0 MISS:          0
cpu3_STLB LOAD         ACCESS:          0 HIT:          0 MISS:          0
cpu3_STLB RFO          ACCESS:          0 HIT:          0 MISS:          0
cpu3_STLB PREFETCH     ACCESS:          0 HIT:          0 MISS:          0
cpu3_STLB WRITE        ACCESS:          0 HIT:          0 MISS:          0
cpu3_STLB TRANSLATION  ACCESS:          0 HIT:          0 MISS:          0
cpu3_STLB PREFETCH REQUESTED:          0 ISSUED:          0 USEFUL:          0 USELESS:          0
cpu3_STLB AVERAGE MISS LATENCY: 865.3 cycles
cpu3_STLB TOTAL        ACCESS:          0 HIT:          0 MISS:          0
cpu3_STLB LOAD         ACCESS:          0 HIT:          0 MISS:          0
cpu3_STLB RFO          ACCESS:          0 HIT:          0 MISS:          0
cpu3_STLB PREFETCH     ACCESS:          0 HIT:          0 MISS:          0
cpu3_STLB WRITE        ACCESS:          0 HIT:          0 MISS:          0
cpu3_STLB TRANSLATION  ACCESS:          0 HIT:          0 MISS:          0
cpu3_STLB PREFETCH REQUESTED:          0 ISSUED:          0 USEFUL:          0 USELESS:          0
cpu3_STLB AVERAGE MISS LATENCY: 865.3 cycles
cpu3_STLB TOTAL        ACCESS:          0 HIT:          0 MISS:          0
cpu3_STLB LOAD         ACCESS:          0 HIT:          0 MISS:          0
cpu3_STLB RFO          ACCESS:          0 HIT:          0 MISS:          0
cpu3_STLB PREFETCH     ACCESS:          0 HIT:          0 MISS:          0
cpu3_STLB WRITE        ACCESS:          0 HIT:          0 MISS:          0
cpu3_STLB TRANSLATION  ACCESS:          0 HIT:          0 MISS:          0
cpu3_STLB PREFETCH REQUESTED:          0 ISSUED:          0 USEFUL:          0 USELESS:          0
cpu3_STLB AVERAGE MISS LATENCY: 865.3 cycles
cpu3_STLB TOTAL        ACCESS:       9921 HIT:       9753 MISS:        168
cpu3_STLB LOAD         ACCESS:       9921 HIT:       9753 MISS:        168
cpu3_STLB RFO          ACCESS:          0 HIT:          0 MISS:          0
cpu3_STLB PREFETCH     ACCESS:          0 HIT:          0 MISS:          0
cpu3_STLB WRITE        ACCESS:          0 HIT:          0 MISS:          0
cpu3_STLB TRANSLATION  ACCESS:          0 HIT:          0 MISS:          0
cpu3_STLB PREFETCH REQUESTED:          0 ISSUED:          0 USEFUL:          0 USELESS:          0
cpu3_STLB AVERAGE MISS LATENCY: 865.3 cycles

DRAM Statistics

Channel 0 RQ ROW_BUFFER_HIT:    2816171
  ROW_BUFFER_MISS:   17037531
 AVG DBUS CONGESTED CYCLE: 3.996
WQ ROW_BUFFER_HIT: Channel 0 
  ROW_BUFFER_MISS:     416192
  FULL:   12008029
