Original cmd-> /home/grads/r/rdas40/ECEN676/ChampSim/bin/multi_core/spp_2ch --warmup_instructions=50000000 --simulation_instructions=150000000  /home/grads/r/rdas40/dpc3_traces/620.omnetpp_s-874B.champsimtrace.xz /home/grads/r/rdas40/dpc3_traces/644.nab_s-5853B.champsimtrace.xz /home/grads/r/rdas40/dpc3_traces/623.xalancbmk_s-700B.champsimtrace.xz /home/grads/r/rdas40/dpc3_traces/621.wrf_s-575B.champsimtrace.xz
WARNING: physical memory size is smaller than virtual memory size.
WARNING: option --warmup_instructions is deprecated. Use --warmup-instructions instead.
WARNING: option --simulation_instructions is deprecated. Use --simulation-instructions instead.

*** ChampSim Multicore Out-of-Order Simulator ***
Warmup Instructions: 50000000
Simulation Instructions: 150000000
Number of CPUs: 4
Page size: 4096

Initialize SIGNATURE TABLE
ST_SET: 1
ST_WAY: 256
ST_TAG_BIT: 16
ST_TAG_MASK: ffff

Initialize PATTERN TABLE
PT_SET: 512
PT_WAY: 4
SIG_DELTA_BIT: 7
C_SIG_BIT: 4
C_DELTA_BIT: 4

Initialize PREFETCH FILTER
FILTER_SET: 1024
Initialize SIGNATURE TABLE
ST_SET: 1
ST_WAY: 256
ST_TAG_BIT: 16
ST_TAG_MASK: ffff

Initialize PATTERN TABLE
PT_SET: 512
PT_WAY: 4
SIG_DELTA_BIT: 7
C_SIG_BIT: 4
C_DELTA_BIT: 4

Initialize PREFETCH FILTER
FILTER_SET: 1024
Initialize SIGNATURE TABLE
ST_SET: 1
ST_WAY: 256
ST_TAG_BIT: 16
ST_TAG_MASK: ffff

Initialize PATTERN TABLE
PT_SET: 512
PT_WAY: 4
SIG_DELTA_BIT: 7
C_SIG_BIT: 4
C_DELTA_BIT: 4

Initialize PREFETCH FILTER
FILTER_SET: 1024
Initialize SIGNATURE TABLE
ST_SET: 1
ST_WAY: 256
ST_TAG_BIT: 16
ST_TAG_MASK: ffff

Initialize PATTERN TABLE
PT_SET: 512
PT_WAY: 4
SIG_DELTA_BIT: 7
C_SIG_BIT: 4
C_DELTA_BIT: 4

Initialize PREFETCH FILTER
FILTER_SET: 1024
Off-chip DRAM Size: 8 GiB Channels: 2 Width: 64-bit Data Race: 3200 MT/s
Heartbeat CPU 3 instructions: 10000001 cycles: 2502764 heartbeat IPC: 3.996 cumulative IPC: 3.996 (Simulation time: 00 hr 03 min 06 sec)
Heartbeat CPU 1 instructions: 10000001 cycles: 2990270 heartbeat IPC: 3.344 cumulative IPC: 3.344 (Simulation time: 00 hr 03 min 42 sec)
Heartbeat CPU 2 instructions: 10000003 cycles: 3063787 heartbeat IPC: 3.264 cumulative IPC: 3.264 (Simulation time: 00 hr 03 min 47 sec)
Heartbeat CPU 0 instructions: 10000001 cycles: 4176711 heartbeat IPC: 2.394 cumulative IPC: 2.394 (Simulation time: 00 hr 05 min 09 sec)
Heartbeat CPU 3 instructions: 20000002 cycles: 5005404 heartbeat IPC: 3.996 cumulative IPC: 3.996 (Simulation time: 00 hr 06 min 11 sec)
Heartbeat CPU 2 instructions: 20000002 cycles: 5748795 heartbeat IPC: 3.724 cumulative IPC: 3.479 (Simulation time: 00 hr 07 min 06 sec)
Heartbeat CPU 1 instructions: 20000001 cycles: 5981347 heartbeat IPC: 3.343 cumulative IPC: 3.344 (Simulation time: 00 hr 07 min 24 sec)
Heartbeat CPU 3 instructions: 30000003 cycles: 7507709 heartbeat IPC: 3.996 cumulative IPC: 3.996 (Simulation time: 00 hr 09 min 19 sec)
Heartbeat CPU 0 instructions: 20000004 cycles: 8348177 heartbeat IPC: 2.397 cumulative IPC: 2.396 (Simulation time: 00 hr 10 min 23 sec)
Heartbeat CPU 1 instructions: 30000000 cycles: 8968438 heartbeat IPC: 3.348 cumulative IPC: 3.345 (Simulation time: 00 hr 11 min 10 sec)
Heartbeat CPU 2 instructions: 30000001 cycles: 8968907 heartbeat IPC: 3.105 cumulative IPC: 3.345 (Simulation time: 00 hr 11 min 10 sec)
Heartbeat CPU 3 instructions: 40000000 cycles: 10010344 heartbeat IPC: 3.996 cumulative IPC: 3.996 (Simulation time: 00 hr 12 min 29 sec)
Heartbeat CPU 1 instructions: 40000001 cycles: 11939318 heartbeat IPC: 3.366 cumulative IPC: 3.35 (Simulation time: 00 hr 14 min 55 sec)
Heartbeat CPU 2 instructions: 40000004 cycles: 12222728 heartbeat IPC: 3.073 cumulative IPC: 3.273 (Simulation time: 00 hr 15 min 16 sec)
Heartbeat CPU 3 instructions: 50000001 cycles: 12512991 heartbeat IPC: 3.996 cumulative IPC: 3.996 (Simulation time: 00 hr 15 min 38 sec)
Warmup finished CPU 3 instructions: 50000001 cycles: 12512992 cumulative IPC: 3.996 (Simulation time: 00 hr 15 min 38 sec)
Heartbeat CPU 0 instructions: 30000001 cycles: 12519861 heartbeat IPC: 2.397 cumulative IPC: 2.396 (Simulation time: 00 hr 15 min 39 sec)
Heartbeat CPU 1 instructions: 50000002 cycles: 14911149 heartbeat IPC: 3.365 cumulative IPC: 3.353 (Simulation time: 00 hr 18 min 39 sec)
Warmup finished CPU 1 instructions: 50000002 cycles: 14911150 cumulative IPC: 3.353 (Simulation time: 00 hr 18 min 39 sec)
Heartbeat CPU 3 instructions: 60000002 cycles: 15015674 heartbeat IPC: 3.996 cumulative IPC: 3.996 (Simulation time: 00 hr 18 min 47 sec)
Heartbeat CPU 2 instructions: 50000002 cycles: 15376711 heartbeat IPC: 3.171 cumulative IPC: 3.252 (Simulation time: 00 hr 19 min 14 sec)
Warmup finished CPU 2 instructions: 50000002 cycles: 15376712 cumulative IPC: 3.252 (Simulation time: 00 hr 19 min 14 sec)
Heartbeat CPU 0 instructions: 40000000 cycles: 16706145 heartbeat IPC: 2.389 cumulative IPC: 2.394 (Simulation time: 00 hr 20 min 53 sec)
Heartbeat CPU 3 instructions: 70000001 cycles: 17520583 heartbeat IPC: 3.992 cumulative IPC: 3.995 (Simulation time: 00 hr 21 min 53 sec)
Heartbeat CPU 1 instructions: 60000001 cycles: 17890653 heartbeat IPC: 3.356 cumulative IPC: 3.354 (Simulation time: 00 hr 22 min 21 sec)
Heartbeat CPU 2 instructions: 60000003 cycles: 18085313 heartbeat IPC: 3.692 cumulative IPC: 3.318 (Simulation time: 00 hr 22 min 35 sec)
Heartbeat CPU 3 instructions: 80000002 cycles: 20022742 heartbeat IPC: 3.997 cumulative IPC: 3.995 (Simulation time: 00 hr 25 min 01 sec)
Heartbeat CPU 2 instructions: 70000000 cycles: 20812954 heartbeat IPC: 3.666 cumulative IPC: 3.363 (Simulation time: 00 hr 26 min 01 sec)
Heartbeat CPU 0 instructions: 50000003 cycles: 20873432 heartbeat IPC: 2.4 cumulative IPC: 2.395 (Simulation time: 00 hr 26 min 05 sec)
Warmup finished CPU 0 instructions: 50000003 cycles: 20873433 cumulative IPC: 2.395 (Simulation time: 00 hr 26 min 05 sec)
Warmup complete CPU 0 instructions: 50000003 cycles: 20873433 cumulative IPC: 2.395 (Simulation time: 00 hr 26 min 05 sec)
Warmup complete CPU 1 instructions: 69994295 cycles: 20873433 cumulative IPC: 3.353 (Simulation time: 00 hr 26 min 05 sec)
Warmup complete CPU 2 instructions: 70205690 cycles: 20873433 cumulative IPC: 3.363 (Simulation time: 00 hr 26 min 05 sec)
Warmup complete CPU 3 instructions: 83402762 cycles: 20873433 cumulative IPC: 3.996 (Simulation time: 00 hr 26 min 05 sec)
Heartbeat CPU 1 instructions: 70000000 cycles: 20875500 heartbeat IPC: 3.35 cumulative IPC: 2.76 (Simulation time: 00 hr 26 min 05 sec)
Heartbeat CPU 3 instructions: 90000004 cycles: 23964664 heartbeat IPC: 2.537 cumulative IPC: 2.134 (Simulation time: 00 hr 28 min 42 sec)
Heartbeat CPU 1 instructions: 80000003 cycles: 25291100 heartbeat IPC: 2.265 cumulative IPC: 2.265 (Simulation time: 00 hr 29 min 50 sec)
Heartbeat CPU 2 instructions: 80000001 cycles: 27809952 heartbeat IPC: 1.429 cumulative IPC: 1.412 (Simulation time: 00 hr 31 min 59 sec)
Heartbeat CPU 3 instructions: 100000000 cycles: 28675673 heartbeat IPC: 2.123 cumulative IPC: 2.127 (Simulation time: 00 hr 32 min 43 sec)
Heartbeat CPU 1 instructions: 90000002 cycles: 29942125 heartbeat IPC: 2.15 cumulative IPC: 2.206 (Simulation time: 00 hr 33 min 47 sec)
Heartbeat CPU 3 instructions: 110000001 cycles: 33367541 heartbeat IPC: 2.131 cumulative IPC: 2.129 (Simulation time: 00 hr 36 min 40 sec)
Heartbeat CPU 2 instructions: 90000001 cycles: 33721354 heartbeat IPC: 1.692 cumulative IPC: 1.541 (Simulation time: 00 hr 36 min 58 sec)
Heartbeat CPU 1 instructions: 100000000 cycles: 35022246 heartbeat IPC: 1.968 cumulative IPC: 2.121 (Simulation time: 00 hr 38 min 00 sec)
Heartbeat CPU 0 instructions: 60000003 cycles: 35586733 heartbeat IPC: 0.6797 cumulative IPC: 0.6797 (Simulation time: 00 hr 38 min 28 sec)
Heartbeat CPU 3 instructions: 120000000 cycles: 37986806 heartbeat IPC: 2.165 cumulative IPC: 2.139 (Simulation time: 00 hr 40 min 29 sec)
Heartbeat CPU 1 instructions: 110000004 cycles: 39926963 heartbeat IPC: 2.039 cumulative IPC: 2.1 (Simulation time: 00 hr 42 min 04 sec)
Heartbeat CPU 2 instructions: 100000002 cycles: 40600933 heartbeat IPC: 1.454 cumulative IPC: 1.51 (Simulation time: 00 hr 42 min 37 sec)
Heartbeat CPU 3 instructions: 130000002 cycles: 42638524 heartbeat IPC: 2.15 cumulative IPC: 2.141 (Simulation time: 00 hr 44 min 21 sec)
Heartbeat CPU 1 instructions: 120000003 cycles: 44427654 heartbeat IPC: 2.222 cumulative IPC: 2.123 (Simulation time: 00 hr 45 min 51 sec)
Heartbeat CPU 2 instructions: 110000004 cycles: 47038710 heartbeat IPC: 1.553 cumulative IPC: 1.521 (Simulation time: 00 hr 48 min 04 sec)
Heartbeat CPU 3 instructions: 140000000 cycles: 47302032 heartbeat IPC: 2.144 cumulative IPC: 2.142 (Simulation time: 00 hr 48 min 17 sec)
Heartbeat CPU 1 instructions: 130000003 cycles: 48919634 heartbeat IPC: 2.226 cumulative IPC: 2.14 (Simulation time: 00 hr 49 min 39 sec)
Heartbeat CPU 0 instructions: 70000002 cycles: 50178978 heartbeat IPC: 0.6853 cumulative IPC: 0.6825 (Simulation time: 00 hr 50 min 43 sec)
Heartbeat CPU 3 instructions: 150000004 cycles: 51907125 heartbeat IPC: 2.172 cumulative IPC: 2.146 (Simulation time: 00 hr 52 min 11 sec)
Heartbeat CPU 2 instructions: 120000000 cycles: 53255028 heartbeat IPC: 1.609 cumulative IPC: 1.538 (Simulation time: 00 hr 53 min 19 sec)
Heartbeat CPU 1 instructions: 140000000 cycles: 53495091 heartbeat IPC: 2.186 cumulative IPC: 2.146 (Simulation time: 00 hr 53 min 31 sec)
Heartbeat CPU 3 instructions: 160000003 cycles: 56512508 heartbeat IPC: 2.171 cumulative IPC: 2.149 (Simulation time: 00 hr 56 min 08 sec)
Heartbeat CPU 1 instructions: 150000003 cycles: 58071534 heartbeat IPC: 2.185 cumulative IPC: 2.151 (Simulation time: 00 hr 57 min 33 sec)
Heartbeat CPU 2 instructions: 130000001 cycles: 58410307 heartbeat IPC: 1.94 cumulative IPC: 1.593 (Simulation time: 00 hr 57 min 51 sec)
Heartbeat CPU 3 instructions: 170000003 cycles: 61102706 heartbeat IPC: 2.179 cumulative IPC: 2.153 (Simulation time: 01 hr 00 min 14 sec)
Heartbeat CPU 1 instructions: 160000000 cycles: 62684332 heartbeat IPC: 2.168 cumulative IPC: 2.153 (Simulation time: 01 hr 01 min 38 sec)
Heartbeat CPU 2 instructions: 140000000 cycles: 63702648 heartbeat IPC: 1.89 cumulative IPC: 1.63 (Simulation time: 01 hr 02 min 31 sec)
Heartbeat CPU 0 instructions: 80000002 cycles: 65360667 heartbeat IPC: 0.6587 cumulative IPC: 0.6744 (Simulation time: 01 hr 03 min 50 sec)
Heartbeat CPU 3 instructions: 180000004 cycles: 65700963 heartbeat IPC: 2.175 cumulative IPC: 2.155 (Simulation time: 01 hr 04 min 07 sec)
Heartbeat CPU 1 instructions: 170000003 cycles: 67261406 heartbeat IPC: 2.185 cumulative IPC: 2.156 (Simulation time: 01 hr 05 min 25 sec)
Heartbeat CPU 3 instructions: 190000002 cycles: 70311625 heartbeat IPC: 2.169 cumulative IPC: 2.156 (Simulation time: 01 hr 07 min 58 sec)
Heartbeat CPU 2 instructions: 150000004 cycles: 70788133 heartbeat IPC: 1.411 cumulative IPC: 1.599 (Simulation time: 01 hr 08 min 22 sec)
Heartbeat CPU 1 instructions: 180000000 cycles: 71857416 heartbeat IPC: 2.176 cumulative IPC: 2.158 (Simulation time: 01 hr 09 min 15 sec)
Heartbeat CPU 3 instructions: 200000000 cycles: 74921376 heartbeat IPC: 2.169 cumulative IPC: 2.157 (Simulation time: 01 hr 11 min 58 sec)
Heartbeat CPU 1 instructions: 190000000 cycles: 76452880 heartbeat IPC: 2.176 cumulative IPC: 2.159 (Simulation time: 01 hr 13 min 13 sec)
Heartbeat CPU 2 instructions: 160000002 cycles: 76826106 heartbeat IPC: 1.656 cumulative IPC: 1.605 (Simulation time: 01 hr 13 min 32 sec)
Heartbeat CPU 3 instructions: 210000000 cycles: 79493628 heartbeat IPC: 2.187 cumulative IPC: 2.16 (Simulation time: 01 hr 15 min 46 sec)
Heartbeat CPU 0 instructions: 90000001 cycles: 79769951 heartbeat IPC: 0.694 cumulative IPC: 0.6792 (Simulation time: 01 hr 16 min 00 sec)
Heartbeat CPU 1 instructions: 200000004 cycles: 81030504 heartbeat IPC: 2.185 cumulative IPC: 2.161 (Simulation time: 01 hr 17 min 06 sec)
Heartbeat CPU 2 instructions: 170000004 cycles: 83133817 heartbeat IPC: 1.585 cumulative IPC: 1.603 (Simulation time: 01 hr 18 min 50 sec)
Heartbeat CPU 3 instructions: 220000000 cycles: 84059082 heartbeat IPC: 2.19 cumulative IPC: 2.162 (Simulation time: 01 hr 19 min 37 sec)
Heartbeat CPU 1 instructions: 210000002 cycles: 85634689 heartbeat IPC: 2.172 cumulative IPC: 2.162 (Simulation time: 01 hr 20 min 55 sec)
Heartbeat CPU 3 instructions: 230000001 cycles: 88642579 heartbeat IPC: 2.182 cumulative IPC: 2.163 (Simulation time: 01 hr 23 min 27 sec)
Heartbeat CPU 2 instructions: 180000002 cycles: 89634558 heartbeat IPC: 1.538 cumulative IPC: 1.597 (Simulation time: 01 hr 24 min 16 sec)
Simulation finished CPU 1 instructions: 150000000 cycles: 69282617 cumulative IPC: 2.165 (Simulation time: 01 hr 24 min 43 sec)
Heartbeat CPU 1 instructions: 220000000 cycles: 90157998 heartbeat IPC: 2.211 cumulative IPC: 2.165 (Simulation time: 01 hr 24 min 44 sec)
Simulation finished CPU 3 instructions: 150000000 cycles: 69355156 cumulative IPC: 2.163 (Simulation time: 01 hr 24 min 47 sec)
Heartbeat CPU 3 instructions: 240000000 cycles: 93251092 heartbeat IPC: 2.17 cumulative IPC: 2.164 (Simulation time: 01 hr 27 min 19 sec)
Heartbeat CPU 1 instructions: 230000002 cycles: 94648065 heartbeat IPC: 2.227 cumulative IPC: 2.169 (Simulation time: 01 hr 28 min 30 sec)
Heartbeat CPU 0 instructions: 100000000 cycles: 94944157 heartbeat IPC: 0.659 cumulative IPC: 0.675 (Simulation time: 01 hr 28 min 46 sec)
Heartbeat CPU 2 instructions: 190000001 cycles: 95879453 heartbeat IPC: 1.601 cumulative IPC: 1.597 (Simulation time: 01 hr 29 min 33 sec)
Heartbeat CPU 3 instructions: 250000002 cycles: 97868623 heartbeat IPC: 2.166 cumulative IPC: 2.164 (Simulation time: 01 hr 31 min 14 sec)
Heartbeat CPU 1 instructions: 240000002 cycles: 99156755 heartbeat IPC: 2.218 cumulative IPC: 2.172 (Simulation time: 01 hr 32 min 20 sec)
Heartbeat CPU 2 instructions: 200000002 cycles: 101497769 heartbeat IPC: 1.78 cumulative IPC: 1.61 (Simulation time: 01 hr 34 min 24 sec)
Heartbeat CPU 3 instructions: 260000000 cycles: 102507525 heartbeat IPC: 2.156 cumulative IPC: 2.163 (Simulation time: 01 hr 35 min 20 sec)
Heartbeat CPU 1 instructions: 250000003 cycles: 103638947 heartbeat IPC: 2.231 cumulative IPC: 2.175 (Simulation time: 01 hr 36 min 22 sec)
Heartbeat CPU 2 instructions: 210000001 cycles: 106358979 heartbeat IPC: 2.057 cumulative IPC: 1.635 (Simulation time: 01 hr 38 min 48 sec)
Heartbeat CPU 3 instructions: 270000000 cycles: 107130069 heartbeat IPC: 2.163 cumulative IPC: 2.163 (Simulation time: 01 hr 39 min 29 sec)
Heartbeat CPU 1 instructions: 260000001 cycles: 108121548 heartbeat IPC: 2.231 cumulative IPC: 2.178 (Simulation time: 01 hr 40 min 22 sec)
Heartbeat CPU 0 instructions: 110000004 cycles: 109871817 heartbeat IPC: 0.6699 cumulative IPC: 0.6742 (Simulation time: 01 hr 41 min 50 sec)
Heartbeat CPU 3 instructions: 280000001 cycles: 111754642 heartbeat IPC: 2.162 cumulative IPC: 2.163 (Simulation time: 01 hr 43 min 20 sec)
Heartbeat CPU 1 instructions: 270000001 cycles: 112653925 heartbeat IPC: 2.206 cumulative IPC: 2.179 (Simulation time: 01 hr 44 min 05 sec)
Heartbeat CPU 2 instructions: 220000000 cycles: 113237185 heartbeat IPC: 1.454 cumulative IPC: 1.622 (Simulation time: 01 hr 44 min 35 sec)
Simulation finished CPU 2 instructions: 150000003 cycles: 92500670 cumulative IPC: 1.622 (Simulation time: 01 hr 44 min 42 sec)
Heartbeat CPU 3 instructions: 290000004 cycles: 116386769 heartbeat IPC: 2.159 cumulative IPC: 2.163 (Simulation time: 01 hr 47 min 14 sec)
Heartbeat CPU 1 instructions: 280000001 cycles: 117079453 heartbeat IPC: 2.26 cumulative IPC: 2.183 (Simulation time: 01 hr 47 min 49 sec)
Heartbeat CPU 2 instructions: 230000000 cycles: 119652933 heartbeat IPC: 1.559 cumulative IPC: 1.618 (Simulation time: 01 hr 50 min 00 sec)
Heartbeat CPU 3 instructions: 300000000 cycles: 121000799 heartbeat IPC: 2.167 cumulative IPC: 2.163 (Simulation time: 01 hr 51 min 09 sec)
Heartbeat CPU 1 instructions: 290000000 cycles: 121428128 heartbeat IPC: 2.3 cumulative IPC: 2.188 (Simulation time: 01 hr 51 min 31 sec)
Heartbeat CPU 1 instructions: 300000004 cycles: 124934185 heartbeat IPC: 2.852 cumulative IPC: 2.21 (Simulation time: 01 hr 54 min 44 sec)
Heartbeat CPU 0 instructions: 120000004 cycles: 125298595 heartbeat IPC: 0.6482 cumulative IPC: 0.6703 (Simulation time: 01 hr 55 min 04 sec)
Heartbeat CPU 3 instructions: 310000001 cycles: 125614397 heartbeat IPC: 2.168 cumulative IPC: 2.163 (Simulation time: 01 hr 55 min 21 sec)
Heartbeat CPU 2 instructions: 240000001 cycles: 125797877 heartbeat IPC: 1.627 cumulative IPC: 1.618 (Simulation time: 01 hr 55 min 32 sec)
Heartbeat CPU 1 instructions: 310000000 cycles: 128467511 heartbeat IPC: 2.83 cumulative IPC: 2.231 (Simulation time: 01 hr 57 min 58 sec)
Heartbeat CPU 3 instructions: 320000001 cycles: 130222085 heartbeat IPC: 2.17 cumulative IPC: 2.164 (Simulation time: 01 hr 59 min 26 sec)
Heartbeat CPU 2 instructions: 250000001 cycles: 131864366 heartbeat IPC: 1.648 cumulative IPC: 1.62 (Simulation time: 02 hr 00 min 49 sec)
Heartbeat CPU 1 instructions: 320000000 cycles: 133146867 heartbeat IPC: 2.137 cumulative IPC: 2.227 (Simulation time: 02 hr 01 min 55 sec)
Heartbeat CPU 3 instructions: 330000001 cycles: 134818913 heartbeat IPC: 2.175 cumulative IPC: 2.164 (Simulation time: 02 hr 03 min 20 sec)
Heartbeat CPU 2 instructions: 260000002 cycles: 137720573 heartbeat IPC: 1.708 cumulative IPC: 1.624 (Simulation time: 02 hr 05 min 51 sec)
Heartbeat CPU 1 instructions: 330000001 cycles: 137904555 heartbeat IPC: 2.102 cumulative IPC: 2.222 (Simulation time: 02 hr 06 min 01 sec)
Heartbeat CPU 3 instructions: 340000000 cycles: 139991102 heartbeat IPC: 1.933 cumulative IPC: 2.154 (Simulation time: 02 hr 07 min 53 sec)
Heartbeat CPU 0 instructions: 130000002 cycles: 141640406 heartbeat IPC: 0.6119 cumulative IPC: 0.6624 (Simulation time: 02 hr 09 min 25 sec)
Heartbeat CPU 2 instructions: 270000000 cycles: 142536510 heartbeat IPC: 2.076 cumulative IPC: 1.642 (Simulation time: 02 hr 10 min 14 sec)
Heartbeat CPU 1 instructions: 340000002 cycles: 142539873 heartbeat IPC: 2.157 cumulative IPC: 2.219 (Simulation time: 02 hr 10 min 14 sec)
Heartbeat CPU 3 instructions: 350000002 cycles: 145156456 heartbeat IPC: 1.936 cumulative IPC: 2.145 (Simulation time: 02 hr 12 min 46 sec)
Heartbeat CPU 1 instructions: 350000000 cycles: 146238312 heartbeat IPC: 2.704 cumulative IPC: 2.234 (Simulation time: 02 hr 13 min 51 sec)
Heartbeat CPU 2 instructions: 280000000 cycles: 147289895 heartbeat IPC: 2.104 cumulative IPC: 1.66 (Simulation time: 02 hr 14 min 53 sec)
Heartbeat CPU 1 instructions: 360000002 cycles: 149685799 heartbeat IPC: 2.901 cumulative IPC: 2.251 (Simulation time: 02 hr 17 min 15 sec)
Heartbeat CPU 3 instructions: 360000002 cycles: 150183632 heartbeat IPC: 1.989 cumulative IPC: 2.139 (Simulation time: 02 hr 17 min 43 sec)
Heartbeat CPU 2 instructions: 290000003 cycles: 152661839 heartbeat IPC: 1.862 cumulative IPC: 1.668 (Simulation time: 02 hr 20 min 06 sec)
Heartbeat CPU 1 instructions: 370000002 cycles: 153202171 heartbeat IPC: 2.844 cumulative IPC: 2.267 (Simulation time: 02 hr 20 min 37 sec)
Heartbeat CPU 3 instructions: 370000000 cycles: 155168518 heartbeat IPC: 2.006 cumulative IPC: 2.134 (Simulation time: 02 hr 22 min 27 sec)
Heartbeat CPU 0 instructions: 140000001 cycles: 156602012 heartbeat IPC: 0.6684 cumulative IPC: 0.6631 (Simulation time: 02 hr 23 min 43 sec)
Heartbeat CPU 1 instructions: 380000004 cycles: 156715470 heartbeat IPC: 2.846 cumulative IPC: 2.282 (Simulation time: 02 hr 23 min 49 sec)
Heartbeat CPU 2 instructions: 300000004 cycles: 160036637 heartbeat IPC: 1.356 cumulative IPC: 1.651 (Simulation time: 02 hr 26 min 53 sec)
Heartbeat CPU 3 instructions: 380000002 cycles: 160095306 heartbeat IPC: 2.03 cumulative IPC: 2.13 (Simulation time: 02 hr 26 min 57 sec)
Heartbeat CPU 1 instructions: 390000001 cycles: 160189525 heartbeat IPC: 2.878 cumulative IPC: 2.297 (Simulation time: 02 hr 27 min 02 sec)
Heartbeat CPU 1 instructions: 400000004 cycles: 163799868 heartbeat IPC: 2.77 cumulative IPC: 2.309 (Simulation time: 02 hr 30 min 15 sec)
Heartbeat CPU 1 instructions: 410000002 cycles: 167733688 heartbeat IPC: 2.542 cumulative IPC: 2.315 (Simulation time: 02 hr 33 min 21 sec)
Heartbeat CPU 2 instructions: 310000001 cycles: 168444712 heartbeat IPC: 1.189 cumulative IPC: 1.625 (Simulation time: 02 hr 33 min 54 sec)
Heartbeat CPU 3 instructions: 390000001 cycles: 169286502 heartbeat IPC: 1.088 cumulative IPC: 2.066 (Simulation time: 02 hr 34 min 43 sec)
Heartbeat CPU 1 instructions: 420000004 cycles: 171325514 heartbeat IPC: 2.784 cumulative IPC: 2.326 (Simulation time: 02 hr 36 min 45 sec)
Heartbeat CPU 3 instructions: 400000004 cycles: 173462335 heartbeat IPC: 2.395 cumulative IPC: 2.075 (Simulation time: 02 hr 38 min 41 sec)
Heartbeat CPU 1 instructions: 430000000 cycles: 174808339 heartbeat IPC: 2.871 cumulative IPC: 2.339 (Simulation time: 02 hr 39 min 57 sec)
Heartbeat CPU 2 instructions: 320000001 cycles: 175490012 heartbeat IPC: 1.419 cumulative IPC: 1.616 (Simulation time: 02 hr 40 min 37 sec)
Heartbeat CPU 3 instructions: 410000003 cycles: 177656976 heartbeat IPC: 2.384 cumulative IPC: 2.083 (Simulation time: 02 hr 42 min 42 sec)
Heartbeat CPU 1 instructions: 440000000 cycles: 178290613 heartbeat IPC: 2.872 cumulative IPC: 2.35 (Simulation time: 02 hr 43 min 19 sec)
Heartbeat CPU 0 instructions: 150000003 cycles: 178474081 heartbeat IPC: 0.4572 cumulative IPC: 0.6345 (Simulation time: 02 hr 43 min 30 sec)
Heartbeat CPU 1 instructions: 450000003 cycles: 181780062 heartbeat IPC: 2.866 cumulative IPC: 2.362 (Simulation time: 02 hr 46 min 40 sec)
Heartbeat CPU 3 instructions: 420000000 cycles: 181846594 heartbeat IPC: 2.387 cumulative IPC: 2.091 (Simulation time: 02 hr 46 min 44 sec)
Heartbeat CPU 2 instructions: 330000000 cycles: 182143007 heartbeat IPC: 1.503 cumulative IPC: 1.611 (Simulation time: 02 hr 47 min 01 sec)
Heartbeat CPU 1 instructions: 460000003 cycles: 185272109 heartbeat IPC: 2.864 cumulative IPC: 2.372 (Simulation time: 02 hr 50 min 02 sec)
Heartbeat CPU 3 instructions: 430000001 cycles: 186099777 heartbeat IPC: 2.351 cumulative IPC: 2.098 (Simulation time: 02 hr 50 min 50 sec)
Heartbeat CPU 2 instructions: 340000000 cycles: 188458904 heartbeat IPC: 1.583 cumulative IPC: 1.61 (Simulation time: 02 hr 53 min 07 sec)
Heartbeat CPU 1 instructions: 470000002 cycles: 188751639 heartbeat IPC: 2.874 cumulative IPC: 2.383 (Simulation time: 02 hr 53 min 24 sec)
Heartbeat CPU 3 instructions: 440000003 cycles: 190383290 heartbeat IPC: 2.335 cumulative IPC: 2.104 (Simulation time: 02 hr 54 min 59 sec)
Heartbeat CPU 1 instructions: 480000001 cycles: 192221419 heartbeat IPC: 2.882 cumulative IPC: 2.393 (Simulation time: 02 hr 56 min 46 sec)
Heartbeat CPU 2 instructions: 350000003 cycles: 194569487 heartbeat IPC: 1.637 cumulative IPC: 1.611 (Simulation time: 02 hr 59 min 05 sec)
Heartbeat CPU 3 instructions: 450000000 cycles: 194649121 heartbeat IPC: 2.344 cumulative IPC: 2.11 (Simulation time: 02 hr 59 min 09 sec)
Heartbeat CPU 1 instructions: 490000002 cycles: 195685274 heartbeat IPC: 2.887 cumulative IPC: 2.403 (Simulation time: 03 hr 00 min 10 sec)
Heartbeat CPU 0 instructions: 160000002 cycles: 196737011 heartbeat IPC: 0.5476 cumulative IPC: 0.6255 (Simulation time: 03 hr 01 min 12 sec)
Heartbeat CPU 3 instructions: 460000004 cycles: 198819649 heartbeat IPC: 2.398 cumulative IPC: 2.116 (Simulation time: 03 hr 03 min 14 sec)
Heartbeat CPU 1 instructions: 500000002 cycles: 199170022 heartbeat IPC: 2.87 cumulative IPC: 2.412 (Simulation time: 03 hr 03 min 35 sec)
Heartbeat CPU 2 instructions: 360000001 cycles: 200695102 heartbeat IPC: 1.632 cumulative IPC: 1.612 (Simulation time: 03 hr 05 min 08 sec)
Heartbeat CPU 1 instructions: 510000004 cycles: 202631971 heartbeat IPC: 2.889 cumulative IPC: 2.421 (Simulation time: 03 hr 07 min 03 sec)
Heartbeat CPU 3 instructions: 470000002 cycles: 202779009 heartbeat IPC: 2.526 cumulative IPC: 2.125 (Simulation time: 03 hr 07 min 12 sec)
Heartbeat CPU 1 instructions: 520000004 cycles: 206107132 heartbeat IPC: 2.878 cumulative IPC: 2.429 (Simulation time: 03 hr 10 min 29 sec)
Heartbeat CPU 2 instructions: 370000000 cycles: 206728297 heartbeat IPC: 1.657 cumulative IPC: 1.613 (Simulation time: 03 hr 11 min 06 sec)
Heartbeat CPU 3 instructions: 480000000 cycles: 206911170 heartbeat IPC: 2.42 cumulative IPC: 2.132 (Simulation time: 03 hr 11 min 17 sec)
Heartbeat CPU 1 instructions: 530000002 cycles: 209589051 heartbeat IPC: 2.872 cumulative IPC: 2.438 (Simulation time: 03 hr 13 min 57 sec)
Heartbeat CPU 2 instructions: 380000001 cycles: 211738952 heartbeat IPC: 1.996 cumulative IPC: 1.623 (Simulation time: 03 hr 16 min 03 sec)
Heartbeat CPU 3 instructions: 490000002 cycles: 212194283 heartbeat IPC: 1.893 cumulative IPC: 2.125 (Simulation time: 03 hr 16 min 30 sec)
Heartbeat CPU 1 instructions: 540000002 cycles: 213134608 heartbeat IPC: 2.82 cumulative IPC: 2.445 (Simulation time: 03 hr 17 min 26 sec)
Heartbeat CPU 0 instructions: 170000002 cycles: 214222409 heartbeat IPC: 0.5719 cumulative IPC: 0.6206 (Simulation time: 03 hr 18 min 30 sec)
Heartbeat CPU 2 instructions: 390000000 cycles: 216417369 heartbeat IPC: 2.137 cumulative IPC: 1.635 (Simulation time: 03 hr 20 min 40 sec)
Heartbeat CPU 1 instructions: 550000001 cycles: 216675565 heartbeat IPC: 2.824 cumulative IPC: 2.451 (Simulation time: 03 hr 20 min 56 sec)
Heartbeat CPU 3 instructions: 500000000 cycles: 217640421 heartbeat IPC: 1.836 cumulative IPC: 2.117 (Simulation time: 03 hr 21 min 52 sec)
Heartbeat CPU 1 instructions: 560000002 cycles: 220211717 heartbeat IPC: 2.828 cumulative IPC: 2.458 (Simulation time: 03 hr 24 min 23 sec)
Heartbeat CPU 2 instructions: 400000000 cycles: 221353593 heartbeat IPC: 2.026 cumulative IPC: 1.645 (Simulation time: 03 hr 25 min 30 sec)
Heartbeat CPU 3 instructions: 510000002 cycles: 223016534 heartbeat IPC: 1.86 cumulative IPC: 2.11 (Simulation time: 03 hr 27 min 07 sec)
Heartbeat CPU 1 instructions: 570000001 cycles: 223723306 heartbeat IPC: 2.848 cumulative IPC: 2.465 (Simulation time: 03 hr 27 min 48 sec)
Heartbeat CPU 2 instructions: 410000001 cycles: 226672078 heartbeat IPC: 1.88 cumulative IPC: 1.651 (Simulation time: 03 hr 30 min 39 sec)
Heartbeat CPU 1 instructions: 580000004 cycles: 227273646 heartbeat IPC: 2.817 cumulative IPC: 2.471 (Simulation time: 03 hr 31 min 14 sec)
Heartbeat CPU 3 instructions: 520000000 cycles: 228373828 heartbeat IPC: 1.867 cumulative IPC: 2.104 (Simulation time: 03 hr 32 min 16 sec)
Heartbeat CPU 0 instructions: 180000001 cycles: 230391758 heartbeat IPC: 0.6185 cumulative IPC: 0.6205 (Simulation time: 03 hr 34 min 10 sec)
Heartbeat CPU 1 instructions: 590000000 cycles: 230870266 heartbeat IPC: 2.78 cumulative IPC: 2.476 (Simulation time: 03 hr 34 min 37 sec)
Heartbeat CPU 3 instructions: 530000003 cycles: 233696892 heartbeat IPC: 1.879 cumulative IPC: 2.098 (Simulation time: 03 hr 37 min 07 sec)
Heartbeat CPU 2 instructions: 420000002 cycles: 233886438 heartbeat IPC: 1.386 cumulative IPC: 1.642 (Simulation time: 03 hr 37 min 17 sec)
Heartbeat CPU 1 instructions: 600000002 cycles: 234394043 heartbeat IPC: 2.838 cumulative IPC: 2.482 (Simulation time: 03 hr 37 min 45 sec)
Heartbeat CPU 1 instructions: 610000000 cycles: 237927825 heartbeat IPC: 2.83 cumulative IPC: 2.488 (Simulation time: 03 hr 40 min 59 sec)
Heartbeat CPU 3 instructions: 540000000 cycles: 239030621 heartbeat IPC: 1.875 cumulative IPC: 2.093 (Simulation time: 03 hr 42 min 00 sec)
Heartbeat CPU 2 instructions: 430000002 cycles: 240721087 heartbeat IPC: 1.463 cumulative IPC: 1.637 (Simulation time: 03 hr 43 min 33 sec)
Heartbeat CPU 1 instructions: 620000003 cycles: 241453391 heartbeat IPC: 2.836 cumulative IPC: 2.493 (Simulation time: 03 hr 44 min 14 sec)
Heartbeat CPU 3 instructions: 550000002 cycles: 244430873 heartbeat IPC: 1.852 cumulative IPC: 2.087 (Simulation time: 03 hr 46 min 59 sec)
Heartbeat CPU 1 instructions: 630000002 cycles: 245032079 heartbeat IPC: 2.794 cumulative IPC: 2.498 (Simulation time: 03 hr 47 min 33 sec)
Heartbeat CPU 2 instructions: 440000000 cycles: 247099934 heartbeat IPC: 1.568 cumulative IPC: 1.635 (Simulation time: 03 hr 49 min 27 sec)
Heartbeat CPU 0 instructions: 190000003 cycles: 247348077 heartbeat IPC: 0.5898 cumulative IPC: 0.6182 (Simulation time: 03 hr 49 min 41 sec)
Heartbeat CPU 1 instructions: 640000004 cycles: 248566102 heartbeat IPC: 2.83 cumulative IPC: 2.503 (Simulation time: 03 hr 50 min 50 sec)
Heartbeat CPU 3 instructions: 560000004 cycles: 249802058 heartbeat IPC: 1.862 cumulative IPC: 2.082 (Simulation time: 03 hr 51 min 59 sec)
Heartbeat CPU 1 instructions: 650000002 cycles: 252116331 heartbeat IPC: 2.817 cumulative IPC: 2.508 (Simulation time: 03 hr 54 min 08 sec)
Heartbeat CPU 2 instructions: 450000001 cycles: 253319775 heartbeat IPC: 1.608 cumulative IPC: 1.634 (Simulation time: 03 hr 55 min 16 sec)
Heartbeat CPU 3 instructions: 570000004 cycles: 255213456 heartbeat IPC: 1.848 cumulative IPC: 2.076 (Simulation time: 03 hr 57 min 09 sec)
Heartbeat CPU 1 instructions: 660000001 cycles: 255666785 heartbeat IPC: 2.817 cumulative IPC: 2.513 (Simulation time: 03 hr 57 min 35 sec)
Heartbeat CPU 2 instructions: 460000002 cycles: 258142298 heartbeat IPC: 2.074 cumulative IPC: 1.643 (Simulation time: 04 hr 00 min 00 sec)
Heartbeat CPU 1 instructions: 670000003 cycles: 259250217 heartbeat IPC: 2.791 cumulative IPC: 2.517 (Simulation time: 04 hr 01 min 04 sec)
Heartbeat CPU 3 instructions: 580000000 cycles: 260614344 heartbeat IPC: 1.852 cumulative IPC: 2.071 (Simulation time: 04 hr 02 min 22 sec)
Heartbeat CPU 1 instructions: 680000004 cycles: 262811882 heartbeat IPC: 2.808 cumulative IPC: 2.521 (Simulation time: 04 hr 04 min 23 sec)
Heartbeat CPU 0 instructions: 200000001 cycles: 264318075 heartbeat IPC: 0.5893 cumulative IPC: 0.6162 (Simulation time: 04 hr 05 min 41 sec)
Simulation finished CPU 0 instructions: 150000003 cycles: 243444644 cumulative IPC: 0.6162 (Simulation time: 04 hr 05 min 41 sec)
Simulation complete CPU 0 instructions: 150000003 cycles: 243444644 cumulative IPC: 0.6162 (Simulation time: 04 hr 05 min 41 sec)
Simulation complete CPU 1 instructions: 614301831 cycles: 243444644 cumulative IPC: 2.523 (Simulation time: 04 hr 05 min 41 sec)
Simulation complete CPU 2 instructions: 398363806 cycles: 243444644 cumulative IPC: 1.636 (Simulation time: 04 hr 05 min 41 sec)
Simulation complete CPU 3 instructions: 503453233 cycles: 243444644 cumulative IPC: 2.068 (Simulation time: 04 hr 05 min 41 sec)

ChampSim completed all CPUs

=== Simulation ===
CPU 0 runs /home/grads/r/rdas40/dpc3_traces/620.omnetpp_s-874B.champsimtrace.xzCPU 1 runs /home/grads/r/rdas40/dpc3_traces/644.nab_s-5853B.champsimtrace.xzCPU 2 runs /home/grads/r/rdas40/dpc3_traces/623.xalancbmk_s-700B.champsimtrace.xzCPU 3 runs /home/grads/r/rdas40/dpc3_traces/621.wrf_s-575B.champsimtrace.xz
Total Simulation Statistics (not including warmup)

CPU 0 cumulative IPC: 0.6162 instructions: 150000003 cycles: 243444644
CPU 0 Branch Prediction Accuracy: 94.9% MPKI: 10.6 Average ROB Occupancy at Mispredict: 78.92
Branch type MPKI
BRANCH_DIRECT_JUMP: 0.923
BRANCH_INDIRECT: 0.128
BRANCH_CONDITIONAL: 8.42
BRANCH_DIRECT_CALL: 0.00016
BRANCH_INDIRECT_CALL: 0.734
BRANCH_RETURN: 0.399


CPU 1 cumulative IPC: 2.523 instructions: 614301831 cycles: 243444644
CPU 1 Branch Prediction Accuracy: 87.35% MPKI: 12.25 Average ROB Occupancy at Mispredict: 161.1
Branch type MPKI
BRANCH_DIRECT_JUMP: 0.00012
BRANCH_INDIRECT: 0
BRANCH_CONDITIONAL: 6.72
BRANCH_DIRECT_CALL: 1.63e-06
BRANCH_INDIRECT_CALL: 0
BRANCH_RETURN: 5.53


CPU 2 cumulative IPC: 1.636 instructions: 398363806 cycles: 243444644
CPU 2 Branch Prediction Accuracy: 97.28% MPKI: 7.808 Average ROB Occupancy at Mispredict: 41
Branch type MPKI
BRANCH_DIRECT_JUMP: 0.107
BRANCH_INDIRECT: 0.333
BRANCH_CONDITIONAL: 5.61
BRANCH_DIRECT_CALL: 0.000442
BRANCH_INDIRECT_CALL: 0.364
BRANCH_RETURN: 1.4


CPU 3 cumulative IPC: 2.068 instructions: 503453233 cycles: 243444644
CPU 3 Branch Prediction Accuracy: 95.52% MPKI: 6.181 Average ROB Occupancy at Mispredict: 91.94
Branch type MPKI
BRANCH_DIRECT_JUMP: 0.000425
BRANCH_INDIRECT: 1.19e-05
BRANCH_CONDITIONAL: 5.9
BRANCH_DIRECT_CALL: 0.00233
BRANCH_INDIRECT_CALL: 0
BRANCH_RETURN: 0.283

LLC TOTAL        ACCESS:    4966168 HIT:    2521427 MISS:    2444741
LLC LOAD         ACCESS:    1678132 HIT:     683023 MISS:     995109
LLC RFO          ACCESS:     256910 HIT:     175776 MISS:      81134
LLC PREFETCH     ACCESS:    1469082 HIT:     594023 MISS:     875059
LLC WRITE        ACCESS:     965742 HIT:     963989 MISS:       1753
LLC TRANSLATION  ACCESS:     596302 HIT:     104616 MISS:     491686
LLC PREFETCH REQUESTED:          0 ISSUED:          0 USEFUL:          0 USELESS:          0
LLC AVERAGE MISS LATENCY: 309.7 cycles
LLC TOTAL        ACCESS:     308367 HIT:     171973 MISS:     136394
LLC LOAD         ACCESS:      90903 HIT:      71223 MISS:      19680
LLC RFO          ACCESS:        237 HIT:        130 MISS:        107
LLC PREFETCH     ACCESS:     211223 HIT:     100417 MISS:     110806
LLC WRITE        ACCESS:       4247 HIT:        178 MISS:       4069
LLC TRANSLATION  ACCESS:       1757 HIT:         25 MISS:       1732
LLC PREFETCH REQUESTED:          0 ISSUED:          0 USEFUL:          0 USELESS:          0
LLC AVERAGE MISS LATENCY: 309.7 cycles
LLC TOTAL        ACCESS:    8776954 HIT:    7959720 MISS:     817234
LLC LOAD         ACCESS:     824057 HIT:     713822 MISS:     110235
LLC RFO          ACCESS:     505483 HIT:      50535 MISS:     454948
LLC PREFETCH     ACCESS:    6763099 HIT:    6549218 MISS:     213881
LLC WRITE        ACCESS:     613471 HIT:     602118 MISS:      11353
LLC TRANSLATION  ACCESS:      70844 HIT:      44027 MISS:      26817
LLC PREFETCH REQUESTED:          0 ISSUED:          0 USEFUL:          0 USELESS:          0
LLC AVERAGE MISS LATENCY: 309.7 cycles
LLC TOTAL        ACCESS:    1375973 HIT:     764376 MISS:     611597
LLC LOAD         ACCESS:     188038 HIT:     114957 MISS:      73081
LLC RFO          ACCESS:     293551 HIT:      74797 MISS:     218754
LLC PREFETCH     ACCESS:     578578 HIT:     280062 MISS:     298516
LLC WRITE        ACCESS:     313481 HIT:     293538 MISS:      19943
LLC TRANSLATION  ACCESS:       2325 HIT:       1022 MISS:       1303
LLC PREFETCH REQUESTED:          0 ISSUED:          0 USEFUL:          0 USELESS:          0
LLC AVERAGE MISS LATENCY: 309.7 cycles
cpu0_DTLB TOTAL        ACCESS:   38153002 HIT:   34864732 MISS:    3288270
cpu0_DTLB LOAD         ACCESS:   38153002 HIT:   34864732 MISS:    3288270
cpu0_DTLB RFO          ACCESS:          0 HIT:          0 MISS:          0
cpu0_DTLB PREFETCH     ACCESS:          0 HIT:          0 MISS:          0
cpu0_DTLB WRITE        ACCESS:          0 HIT:          0 MISS:          0
cpu0_DTLB TRANSLATION  ACCESS:          0 HIT:          0 MISS:          0
cpu0_DTLB PREFETCH REQUESTED:          0 ISSUED:          0 USEFUL:          0 USELESS:          0
cpu0_DTLB AVERAGE MISS LATENCY: 46.73 cycles
cpu0_DTLB TOTAL        ACCESS:          0 HIT:          0 MISS:          0
cpu0_DTLB LOAD         ACCESS:          0 HIT:          0 MISS:          0
cpu0_DTLB RFO          ACCESS:          0 HIT:          0 MISS:          0
cpu0_DTLB PREFETCH     ACCESS:          0 HIT:          0 MISS:          0
cpu0_DTLB WRITE        ACCESS:          0 HIT:          0 MISS:          0
cpu0_DTLB TRANSLATION  ACCESS:          0 HIT:          0 MISS:          0
cpu0_DTLB PREFETCH REQUESTED:          0 ISSUED:          0 USEFUL:          0 USELESS:          0
cpu0_DTLB AVERAGE MISS LATENCY: 46.73 cycles
cpu0_DTLB TOTAL        ACCESS:          0 HIT:          0 MISS:          0
cpu0_DTLB LOAD         ACCESS:          0 HIT:          0 MISS:          0
cpu0_DTLB RFO          ACCESS:          0 HIT:          0 MISS:          0
cpu0_DTLB PREFETCH     ACCESS:          0 HIT:          0 MISS:          0
cpu0_DTLB WRITE        ACCESS:          0 HIT:          0 MISS:          0
cpu0_DTLB TRANSLATION  ACCESS:          0 HIT:          0 MISS:          0
cpu0_DTLB PREFETCH REQUESTED:          0 ISSUED:          0 USEFUL:          0 USELESS:          0
cpu0_DTLB AVERAGE MISS LATENCY: 46.73 cycles
cpu0_DTLB TOTAL        ACCESS:          0 HIT:          0 MISS:          0
cpu0_DTLB LOAD         ACCESS:          0 HIT:          0 MISS:          0
cpu0_DTLB RFO          ACCESS:          0 HIT:          0 MISS:          0
cpu0_DTLB PREFETCH     ACCESS:          0 HIT:          0 MISS:          0
cpu0_DTLB WRITE        ACCESS:          0 HIT:          0 MISS:          0
cpu0_DTLB TRANSLATION  ACCESS:          0 HIT:          0 MISS:          0
cpu0_DTLB PREFETCH REQUESTED:          0 ISSUED:          0 USEFUL:          0 USELESS:          0
cpu0_DTLB AVERAGE MISS LATENCY: 46.73 cycles
cpu0_ITLB TOTAL        ACCESS:   10766989 HIT:   10494647 MISS:     272342
cpu0_ITLB LOAD         ACCESS:   10766989 HIT:   10494647 MISS:     272342
cpu0_ITLB RFO          ACCESS:          0 HIT:          0 MISS:          0
cpu0_ITLB PREFETCH     ACCESS:          0 HIT:          0 MISS:          0
cpu0_ITLB WRITE        ACCESS:          0 HIT:          0 MISS:          0
cpu0_ITLB TRANSLATION  ACCESS:          0 HIT:          0 MISS:          0
cpu0_ITLB PREFETCH REQUESTED:          0 ISSUED:          0 USEFUL:          0 USELESS:          0
cpu0_ITLB AVERAGE MISS LATENCY: 5.208 cycles
cpu0_ITLB TOTAL        ACCESS:          0 HIT:          0 MISS:          0
cpu0_ITLB LOAD         ACCESS:          0 HIT:          0 MISS:          0
cpu0_ITLB RFO          ACCESS:          0 HIT:          0 MISS:          0
cpu0_ITLB PREFETCH     ACCESS:          0 HIT:          0 MISS:          0
cpu0_ITLB WRITE        ACCESS:          0 HIT:          0 MISS:          0
cpu0_ITLB TRANSLATION  ACCESS:          0 HIT:          0 MISS:          0
cpu0_ITLB PREFETCH REQUESTED:          0 ISSUED:          0 USEFUL:          0 USELESS:          0
cpu0_ITLB AVERAGE MISS LATENCY: 5.208 cycles
cpu0_ITLB TOTAL        ACCESS:          0 HIT:          0 MISS:          0
cpu0_ITLB LOAD         ACCESS:          0 HIT:          0 MISS:          0
cpu0_ITLB RFO          ACCESS:          0 HIT:          0 MISS:          0
cpu0_ITLB PREFETCH     ACCESS:          0 HIT:          0 MISS:          0
cpu0_ITLB WRITE        ACCESS:          0 HIT:          0 MISS:          0
cpu0_ITLB TRANSLATION  ACCESS:          0 HIT:          0 MISS:          0
cpu0_ITLB PREFETCH REQUESTED:          0 ISSUED:          0 USEFUL:          0 USELESS:          0
cpu0_ITLB AVERAGE MISS LATENCY: 5.208 cycles
cpu0_ITLB TOTAL        ACCESS:          0 HIT:          0 MISS:          0
cpu0_ITLB LOAD         ACCESS:          0 HIT:          0 MISS:          0
cpu0_ITLB RFO          ACCESS:          0 HIT:          0 MISS:          0
cpu0_ITLB PREFETCH     ACCESS:          0 HIT:          0 MISS:          0
cpu0_ITLB WRITE        ACCESS:          0 HIT:          0 MISS:          0
cpu0_ITLB TRANSLATION  ACCESS:          0 HIT:          0 MISS:          0
cpu0_ITLB PREFETCH REQUESTED:          0 ISSUED:          0 USEFUL:          0 USELESS:          0
cpu0_ITLB AVERAGE MISS LATENCY: 5.208 cycles
cpu0_L1D TOTAL        ACCESS:   49684291 HIT:   44916538 MISS:    4767753
cpu0_L1D LOAD         ACCESS:   22831941 HIT:   19835451 MISS:    2996490
cpu0_L1D RFO          ACCESS:          0 HIT:          0 MISS:          0
cpu0_L1D PREFETCH     ACCESS:          0 HIT:          0 MISS:          0
cpu0_L1D WRITE        ACCESS:   25961126 HIT:   24935882 MISS:    1025244
cpu0_L1D TRANSLATION  ACCESS:     891224 HIT:     145205 MISS:     746019
cpu0_L1D PREFETCH REQUESTED:          0 ISSUED:          0 USEFUL:          0 USELESS:          0
cpu0_L1D AVERAGE MISS LATENCY: 89.18 cycles
cpu0_L1D TOTAL        ACCESS:          0 HIT:          0 MISS:          0
cpu0_L1D LOAD         ACCESS:          0 HIT:          0 MISS:          0
cpu0_L1D RFO          ACCESS:          0 HIT:          0 MISS:          0
cpu0_L1D PREFETCH     ACCESS:          0 HIT:          0 MISS:          0
cpu0_L1D WRITE        ACCESS:          0 HIT:          0 MISS:          0
cpu0_L1D TRANSLATION  ACCESS:          0 HIT:          0 MISS:          0
cpu0_L1D PREFETCH REQUESTED:          0 ISSUED:          0 USEFUL:          0 USELESS:          0
cpu0_L1D AVERAGE MISS LATENCY: 89.18 cycles
cpu0_L1D TOTAL        ACCESS:          0 HIT:          0 MISS:          0
cpu0_L1D LOAD         ACCESS:          0 HIT:          0 MISS:          0
cpu0_L1D RFO          ACCESS:          0 HIT:          0 MISS:          0
cpu0_L1D PREFETCH     ACCESS:          0 HIT:          0 MISS:          0
cpu0_L1D WRITE        ACCESS:          0 HIT:          0 MISS:          0
cpu0_L1D TRANSLATION  ACCESS:          0 HIT:          0 MISS:          0
cpu0_L1D PREFETCH REQUESTED:          0 ISSUED:          0 USEFUL:          0 USELESS:          0
cpu0_L1D AVERAGE MISS LATENCY: 89.18 cycles
cpu0_L1D TOTAL        ACCESS:          0 HIT:          0 MISS:          0
cpu0_L1D LOAD         ACCESS:          0 HIT:          0 MISS:          0
cpu0_L1D RFO          ACCESS:          0 HIT:          0 MISS:          0
cpu0_L1D PREFETCH     ACCESS:          0 HIT:          0 MISS:          0
cpu0_L1D WRITE        ACCESS:          0 HIT:          0 MISS:          0
cpu0_L1D TRANSLATION  ACCESS:          0 HIT:          0 MISS:          0
cpu0_L1D PREFETCH REQUESTED:          0 ISSUED:          0 USEFUL:          0 USELESS:          0
cpu0_L1D AVERAGE MISS LATENCY: 89.18 cycles
cpu0_L1I TOTAL        ACCESS:   12852315 HIT:   12778328 MISS:      73987
cpu0_L1I LOAD         ACCESS:   12852315 HIT:   12778328 MISS:      73987
cpu0_L1I RFO          ACCESS:          0 HIT:          0 MISS:          0
cpu0_L1I PREFETCH     ACCESS:          0 HIT:          0 MISS:          0
cpu0_L1I WRITE        ACCESS:          0 HIT:          0 MISS:          0
cpu0_L1I TRANSLATION  ACCESS:          0 HIT:          0 MISS:          0
cpu0_L1I PREFETCH REQUESTED:          0 ISSUED:          0 USEFUL:          0 USELESS:          0
cpu0_L1I AVERAGE MISS LATENCY: 14.6 cycles
cpu0_L1I TOTAL        ACCESS:          0 HIT:          0 MISS:          0
cpu0_L1I LOAD         ACCESS:          0 HIT:          0 MISS:          0
cpu0_L1I RFO          ACCESS:          0 HIT:          0 MISS:          0
cpu0_L1I PREFETCH     ACCESS:          0 HIT:          0 MISS:          0
cpu0_L1I WRITE        ACCESS:          0 HIT:          0 MISS:          0
cpu0_L1I TRANSLATION  ACCESS:          0 HIT:          0 MISS:          0
cpu0_L1I PREFETCH REQUESTED:          0 ISSUED:          0 USEFUL:          0 USELESS:          0
cpu0_L1I AVERAGE MISS LATENCY: 14.6 cycles
cpu0_L1I TOTAL        ACCESS:          0 HIT:          0 MISS:          0
cpu0_L1I LOAD         ACCESS:          0 HIT:          0 MISS:          0
cpu0_L1I RFO          ACCESS:          0 HIT:          0 MISS:          0
cpu0_L1I PREFETCH     ACCESS:          0 HIT:          0 MISS:          0
cpu0_L1I WRITE        ACCESS:          0 HIT:          0 MISS:          0
cpu0_L1I TRANSLATION  ACCESS:          0 HIT:          0 MISS:          0
cpu0_L1I PREFETCH REQUESTED:          0 ISSUED:          0 USEFUL:          0 USELESS:          0
cpu0_L1I AVERAGE MISS LATENCY: 14.6 cycles
cpu0_L1I TOTAL        ACCESS:          0 HIT:          0 MISS:          0
cpu0_L1I LOAD         ACCESS:          0 HIT:          0 MISS:          0
cpu0_L1I RFO          ACCESS:          0 HIT:          0 MISS:          0
cpu0_L1I PREFETCH     ACCESS:          0 HIT:          0 MISS:          0
cpu0_L1I WRITE        ACCESS:          0 HIT:          0 MISS:          0
cpu0_L1I TRANSLATION  ACCESS:          0 HIT:          0 MISS:          0
cpu0_L1I PREFETCH REQUESTED:          0 ISSUED:          0 USEFUL:          0 USELESS:          0
cpu0_L1I AVERAGE MISS LATENCY: 14.6 cycles
cpu0_L2C TOTAL        ACCESS:    7750435 HIT:    3170817 MISS:    4579618
cpu0_L2C LOAD         ACCESS:    2539638 HIT:     858610 MISS:    1681028
cpu0_L2C RFO          ACCESS:     365280 HIT:     108317 MISS:     256963
cpu0_L2C PREFETCH     ACCESS:    2698239 HIT:     654769 MISS:    2043470
cpu0_L2C WRITE        ACCESS:    1402057 HIT:    1400202 MISS:       1855
cpu0_L2C TRANSLATION  ACCESS:     745221 HIT:     148919 MISS:     596302
cpu0_L2C PREFETCH REQUESTED:    2698239 ISSUED:    2698239 USEFUL:       6667 USELESS:      12083
cpu0_L2C AVERAGE MISS LATENCY: 87.95 cycles
cpu0_L2C TOTAL        ACCESS:          0 HIT:          0 MISS:          0
cpu0_L2C LOAD         ACCESS:          0 HIT:          0 MISS:          0
cpu0_L2C RFO          ACCESS:          0 HIT:          0 MISS:          0
cpu0_L2C PREFETCH     ACCESS:          0 HIT:          0 MISS:          0
cpu0_L2C WRITE        ACCESS:          0 HIT:          0 MISS:          0
cpu0_L2C TRANSLATION  ACCESS:          0 HIT:          0 MISS:          0
cpu0_L2C PREFETCH REQUESTED:    2698239 ISSUED:    2698239 USEFUL:       6667 USELESS:      12083
cpu0_L2C AVERAGE MISS LATENCY: 87.95 cycles
cpu0_L2C TOTAL        ACCESS:          0 HIT:          0 MISS:          0
cpu0_L2C LOAD         ACCESS:          0 HIT:          0 MISS:          0
cpu0_L2C RFO          ACCESS:          0 HIT:          0 MISS:          0
cpu0_L2C PREFETCH     ACCESS:          0 HIT:          0 MISS:          0
cpu0_L2C WRITE        ACCESS:          0 HIT:          0 MISS:          0
cpu0_L2C TRANSLATION  ACCESS:          0 HIT:          0 MISS:          0
cpu0_L2C PREFETCH REQUESTED:    2698239 ISSUED:    2698239 USEFUL:       6667 USELESS:      12083
cpu0_L2C AVERAGE MISS LATENCY: 87.95 cycles
cpu0_L2C TOTAL        ACCESS:          0 HIT:          0 MISS:          0
cpu0_L2C LOAD         ACCESS:          0 HIT:          0 MISS:          0
cpu0_L2C RFO          ACCESS:          0 HIT:          0 MISS:          0
cpu0_L2C PREFETCH     ACCESS:          0 HIT:          0 MISS:          0
cpu0_L2C WRITE        ACCESS:          0 HIT:          0 MISS:          0
cpu0_L2C TRANSLATION  ACCESS:          0 HIT:          0 MISS:          0
cpu0_L2C PREFETCH REQUESTED:    2698239 ISSUED:    2698239 USEFUL:       6667 USELESS:      12083
cpu0_L2C AVERAGE MISS LATENCY: 87.95 cycles
cpu0_STLB TOTAL        ACCESS:    3013093 HIT:    2370670 MISS:     642423
cpu0_STLB LOAD         ACCESS:    3013093 HIT:    2370670 MISS:     642423
cpu0_STLB RFO          ACCESS:          0 HIT:          0 MISS:          0
cpu0_STLB PREFETCH     ACCESS:          0 HIT:          0 MISS:          0
cpu0_STLB WRITE        ACCESS:          0 HIT:          0 MISS:          0
cpu0_STLB TRANSLATION  ACCESS:          0 HIT:          0 MISS:          0
cpu0_STLB PREFETCH REQUESTED:          0 ISSUED:          0 USEFUL:          0 USELESS:          0
cpu0_STLB AVERAGE MISS LATENCY: 212.7 cycles
cpu0_STLB TOTAL        ACCESS:          0 HIT:          0 MISS:          0
cpu0_STLB LOAD         ACCESS:          0 HIT:          0 MISS:          0
cpu0_STLB RFO          ACCESS:          0 HIT:          0 MISS:          0
cpu0_STLB PREFETCH     ACCESS:          0 HIT:          0 MISS:          0
cpu0_STLB WRITE        ACCESS:          0 HIT:          0 MISS:          0
cpu0_STLB TRANSLATION  ACCESS:          0 HIT:          0 MISS:          0
cpu0_STLB PREFETCH REQUESTED:          0 ISSUED:          0 USEFUL:          0 USELESS:          0
cpu0_STLB AVERAGE MISS LATENCY: 212.7 cycles
cpu0_STLB TOTAL        ACCESS:          0 HIT:          0 MISS:          0
cpu0_STLB LOAD         ACCESS:          0 HIT:          0 MISS:          0
cpu0_STLB RFO          ACCESS:          0 HIT:          0 MISS:          0
cpu0_STLB PREFETCH     ACCESS:          0 HIT:          0 MISS:          0
cpu0_STLB WRITE        ACCESS:          0 HIT:          0 MISS:          0
cpu0_STLB TRANSLATION  ACCESS:          0 HIT:          0 MISS:          0
cpu0_STLB PREFETCH REQUESTED:          0 ISSUED:          0 USEFUL:          0 USELESS:          0
cpu0_STLB AVERAGE MISS LATENCY: 212.7 cycles
cpu0_STLB TOTAL        ACCESS:          0 HIT:          0 MISS:          0
cpu0_STLB LOAD         ACCESS:          0 HIT:          0 MISS:          0
cpu0_STLB RFO          ACCESS:          0 HIT:          0 MISS:          0
cpu0_STLB PREFETCH     ACCESS:          0 HIT:          0 MISS:          0
cpu0_STLB WRITE        ACCESS:          0 HIT:          0 MISS:          0
cpu0_STLB TRANSLATION  ACCESS:          0 HIT:          0 MISS:          0
cpu0_STLB PREFETCH REQUESTED:          0 ISSUED:          0 USEFUL:          0 USELESS:          0
cpu0_STLB AVERAGE MISS LATENCY: 212.7 cycles
cpu1_DTLB TOTAL        ACCESS:          0 HIT:          0 MISS:          0
cpu1_DTLB LOAD         ACCESS:          0 HIT:          0 MISS:          0
cpu1_DTLB RFO          ACCESS:          0 HIT:          0 MISS:          0
cpu1_DTLB PREFETCH     ACCESS:          0 HIT:          0 MISS:          0
cpu1_DTLB WRITE        ACCESS:          0 HIT:          0 MISS:          0
cpu1_DTLB TRANSLATION  ACCESS:          0 HIT:          0 MISS:          0
cpu1_DTLB PREFETCH REQUESTED:          0 ISSUED:          0 USEFUL:          0 USELESS:          0
cpu1_DTLB AVERAGE MISS LATENCY: 9.867 cycles
cpu1_DTLB TOTAL        ACCESS:  112296054 HIT:  111700126 MISS:     595928
cpu1_DTLB LOAD         ACCESS:  112296054 HIT:  111700126 MISS:     595928
cpu1_DTLB RFO          ACCESS:          0 HIT:          0 MISS:          0
cpu1_DTLB PREFETCH     ACCESS:          0 HIT:          0 MISS:          0
cpu1_DTLB WRITE        ACCESS:          0 HIT:          0 MISS:          0
cpu1_DTLB TRANSLATION  ACCESS:          0 HIT:          0 MISS:          0
cpu1_DTLB PREFETCH REQUESTED:          0 ISSUED:          0 USEFUL:          0 USELESS:          0
cpu1_DTLB AVERAGE MISS LATENCY: 9.867 cycles
cpu1_DTLB TOTAL        ACCESS:          0 HIT:          0 MISS:          0
cpu1_DTLB LOAD         ACCESS:          0 HIT:          0 MISS:          0
cpu1_DTLB RFO          ACCESS:          0 HIT:          0 MISS:          0
cpu1_DTLB PREFETCH     ACCESS:          0 HIT:          0 MISS:          0
cpu1_DTLB WRITE        ACCESS:          0 HIT:          0 MISS:          0
cpu1_DTLB TRANSLATION  ACCESS:          0 HIT:          0 MISS:          0
cpu1_DTLB PREFETCH REQUESTED:          0 ISSUED:          0 USEFUL:          0 USELESS:          0
cpu1_DTLB AVERAGE MISS LATENCY: 9.867 cycles
cpu1_DTLB TOTAL        ACCESS:          0 HIT:          0 MISS:          0
cpu1_DTLB LOAD         ACCESS:          0 HIT:          0 MISS:          0
cpu1_DTLB RFO          ACCESS:          0 HIT:          0 MISS:          0
cpu1_DTLB PREFETCH     ACCESS:          0 HIT:          0 MISS:          0
cpu1_DTLB WRITE        ACCESS:          0 HIT:          0 MISS:          0
cpu1_DTLB TRANSLATION  ACCESS:          0 HIT:          0 MISS:          0
cpu1_DTLB PREFETCH REQUESTED:          0 ISSUED:          0 USEFUL:          0 USELESS:          0
cpu1_DTLB AVERAGE MISS LATENCY: 9.867 cycles
cpu1_ITLB TOTAL        ACCESS:          0 HIT:          0 MISS:          0
cpu1_ITLB LOAD         ACCESS:          0 HIT:          0 MISS:          0
cpu1_ITLB RFO          ACCESS:          0 HIT:          0 MISS:          0
cpu1_ITLB PREFETCH     ACCESS:          0 HIT:          0 MISS:          0
cpu1_ITLB WRITE        ACCESS:          0 HIT:          0 MISS:          0
cpu1_ITLB TRANSLATION  ACCESS:          0 HIT:          0 MISS:          0
cpu1_ITLB PREFETCH REQUESTED:          0 ISSUED:          0 USEFUL:          0 USELESS:          0
cpu1_ITLB AVERAGE MISS LATENCY: -nan cycles
cpu1_ITLB TOTAL        ACCESS:       5615 HIT:       5615 MISS:          0
cpu1_ITLB LOAD         ACCESS:       5615 HIT:       5615 MISS:          0
cpu1_ITLB RFO          ACCESS:          0 HIT:          0 MISS:          0
cpu1_ITLB PREFETCH     ACCESS:          0 HIT:          0 MISS:          0
cpu1_ITLB WRITE        ACCESS:          0 HIT:          0 MISS:          0
cpu1_ITLB TRANSLATION  ACCESS:          0 HIT:          0 MISS:          0
cpu1_ITLB PREFETCH REQUESTED:          0 ISSUED:          0 USEFUL:          0 USELESS:          0
cpu1_ITLB AVERAGE MISS LATENCY: -nan cycles
cpu1_ITLB TOTAL        ACCESS:          0 HIT:          0 MISS:          0
cpu1_ITLB LOAD         ACCESS:          0 HIT:          0 MISS:          0
cpu1_ITLB RFO          ACCESS:          0 HIT:          0 MISS:          0
cpu1_ITLB PREFETCH     ACCESS:          0 HIT:          0 MISS:          0
cpu1_ITLB WRITE        ACCESS:          0 HIT:          0 MISS:          0
cpu1_ITLB TRANSLATION  ACCESS:          0 HIT:          0 MISS:          0
cpu1_ITLB PREFETCH REQUESTED:          0 ISSUED:          0 USEFUL:          0 USELESS:          0
cpu1_ITLB AVERAGE MISS LATENCY: -nan cycles
cpu1_ITLB TOTAL        ACCESS:          0 HIT:          0 MISS:          0
cpu1_ITLB LOAD         ACCESS:          0 HIT:          0 MISS:          0
cpu1_ITLB RFO          ACCESS:          0 HIT:          0 MISS:          0
cpu1_ITLB PREFETCH     ACCESS:          0 HIT:          0 MISS:          0
cpu1_ITLB WRITE        ACCESS:          0 HIT:          0 MISS:          0
cpu1_ITLB TRANSLATION  ACCESS:          0 HIT:          0 MISS:          0
cpu1_ITLB PREFETCH REQUESTED:          0 ISSUED:          0 USEFUL:          0 USELESS:          0
cpu1_ITLB AVERAGE MISS LATENCY: -nan cycles
cpu1_L1D TOTAL        ACCESS:          0 HIT:          0 MISS:          0
cpu1_L1D LOAD         ACCESS:          0 HIT:          0 MISS:          0
cpu1_L1D RFO          ACCESS:          0 HIT:          0 MISS:          0
cpu1_L1D PREFETCH     ACCESS:          0 HIT:          0 MISS:          0
cpu1_L1D WRITE        ACCESS:          0 HIT:          0 MISS:          0
cpu1_L1D TRANSLATION  ACCESS:          0 HIT:          0 MISS:          0
cpu1_L1D PREFETCH REQUESTED:          0 ISSUED:          0 USEFUL:          0 USELESS:          0
cpu1_L1D AVERAGE MISS LATENCY: 13.08 cycles
cpu1_L1D TOTAL        ACCESS:  150823760 HIT:  148215079 MISS:    2608681
cpu1_L1D LOAD         ACCESS:   84351881 HIT:   81774397 MISS:    2577484
cpu1_L1D RFO          ACCESS:          0 HIT:          0 MISS:          0
cpu1_L1D PREFETCH     ACCESS:          0 HIT:          0 MISS:          0
cpu1_L1D WRITE        ACCESS:   66467437 HIT:   66440617 MISS:      26820
cpu1_L1D TRANSLATION  ACCESS:       4442 HIT:         65 MISS:       4377
cpu1_L1D PREFETCH REQUESTED:          0 ISSUED:          0 USEFUL:          0 USELESS:          0
cpu1_L1D AVERAGE MISS LATENCY: 13.08 cycles
cpu1_L1D TOTAL        ACCESS:          0 HIT:          0 MISS:          0
cpu1_L1D LOAD         ACCESS:          0 HIT:          0 MISS:          0
cpu1_L1D RFO          ACCESS:          0 HIT:          0 MISS:          0
cpu1_L1D PREFETCH     ACCESS:          0 HIT:          0 MISS:          0
cpu1_L1D WRITE        ACCESS:          0 HIT:          0 MISS:          0
cpu1_L1D TRANSLATION  ACCESS:          0 HIT:          0 MISS:          0
cpu1_L1D PREFETCH REQUESTED:          0 ISSUED:          0 USEFUL:          0 USELESS:          0
cpu1_L1D AVERAGE MISS LATENCY: 13.08 cycles
cpu1_L1D TOTAL        ACCESS:          0 HIT:          0 MISS:          0
cpu1_L1D LOAD         ACCESS:          0 HIT:          0 MISS:          0
cpu1_L1D RFO          ACCESS:          0 HIT:          0 MISS:          0
cpu1_L1D PREFETCH     ACCESS:          0 HIT:          0 MISS:          0
cpu1_L1D WRITE        ACCESS:          0 HIT:          0 MISS:          0
cpu1_L1D TRANSLATION  ACCESS:          0 HIT:          0 MISS:          0
cpu1_L1D PREFETCH REQUESTED:          0 ISSUED:          0 USEFUL:          0 USELESS:          0
cpu1_L1D AVERAGE MISS LATENCY: 13.08 cycles
cpu1_L1I TOTAL        ACCESS:          0 HIT:          0 MISS:          0
cpu1_L1I LOAD         ACCESS:          0 HIT:          0 MISS:          0
cpu1_L1I RFO          ACCESS:          0 HIT:          0 MISS:          0
cpu1_L1I PREFETCH     ACCESS:          0 HIT:          0 MISS:          0
cpu1_L1I WRITE        ACCESS:          0 HIT:          0 MISS:          0
cpu1_L1I TRANSLATION  ACCESS:          0 HIT:          0 MISS:          0
cpu1_L1I PREFETCH REQUESTED:          0 ISSUED:          0 USEFUL:          0 USELESS:          0
cpu1_L1I AVERAGE MISS LATENCY: 205 cycles
cpu1_L1I TOTAL        ACCESS:       6973 HIT:       6971 MISS:          2
cpu1_L1I LOAD         ACCESS:       6973 HIT:       6971 MISS:          2
cpu1_L1I RFO          ACCESS:          0 HIT:          0 MISS:          0
cpu1_L1I PREFETCH     ACCESS:          0 HIT:          0 MISS:          0
cpu1_L1I WRITE        ACCESS:          0 HIT:          0 MISS:          0
cpu1_L1I TRANSLATION  ACCESS:          0 HIT:          0 MISS:          0
cpu1_L1I PREFETCH REQUESTED:          0 ISSUED:          0 USEFUL:          0 USELESS:          0
cpu1_L1I AVERAGE MISS LATENCY: 205 cycles
cpu1_L1I TOTAL        ACCESS:          0 HIT:          0 MISS:          0
cpu1_L1I LOAD         ACCESS:          0 HIT:          0 MISS:          0
cpu1_L1I RFO          ACCESS:          0 HIT:          0 MISS:          0
cpu1_L1I PREFETCH     ACCESS:          0 HIT:          0 MISS:          0
cpu1_L1I WRITE        ACCESS:          0 HIT:          0 MISS:          0
cpu1_L1I TRANSLATION  ACCESS:          0 HIT:          0 MISS:          0
cpu1_L1I PREFETCH REQUESTED:          0 ISSUED:          0 USEFUL:          0 USELESS:          0
cpu1_L1I AVERAGE MISS LATENCY: 205 cycles
cpu1_L1I TOTAL        ACCESS:          0 HIT:          0 MISS:          0
cpu1_L1I LOAD         ACCESS:          0 HIT:          0 MISS:          0
cpu1_L1I RFO          ACCESS:          0 HIT:          0 MISS:          0
cpu1_L1I PREFETCH     ACCESS:          0 HIT:          0 MISS:          0
cpu1_L1I WRITE        ACCESS:          0 HIT:          0 MISS:          0
cpu1_L1I TRANSLATION  ACCESS:          0 HIT:          0 MISS:          0
cpu1_L1I PREFETCH REQUESTED:          0 ISSUED:          0 USEFUL:          0 USELESS:          0
cpu1_L1I AVERAGE MISS LATENCY: 205 cycles
cpu1_L2C TOTAL        ACCESS:          0 HIT:          0 MISS:          0
cpu1_L2C LOAD         ACCESS:          0 HIT:          0 MISS:          0
cpu1_L2C RFO          ACCESS:          0 HIT:          0 MISS:          0
cpu1_L2C PREFETCH     ACCESS:          0 HIT:          0 MISS:          0
cpu1_L2C WRITE        ACCESS:          0 HIT:          0 MISS:          0
cpu1_L2C TRANSLATION  ACCESS:          0 HIT:          0 MISS:          0
cpu1_L2C PREFETCH REQUESTED:    3825973 ISSUED:    3825973 USEFUL:      30281 USELESS:        585
cpu1_L2C AVERAGE MISS LATENCY: 42.05 cycles
cpu1_L2C TOTAL        ACCESS:    7293846 HIT:    6976946 MISS:     316900
cpu1_L2C LOAD         ACCESS:    2570073 HIT:    2478889 MISS:      91184
cpu1_L2C RFO          ACCESS:       7176 HIT:       6939 MISS:        237
cpu1_L2C PREFETCH     ACCESS:    3825973 HIT:    3602254 MISS:     223719
cpu1_L2C WRITE        ACCESS:     886247 HIT:     886244 MISS:          3
cpu1_L2C TRANSLATION  ACCESS:       4377 HIT:       2620 MISS:       1757
cpu1_L2C PREFETCH REQUESTED:    3825973 ISSUED:    3825973 USEFUL:      30281 USELESS:        585
cpu1_L2C AVERAGE MISS LATENCY: 42.05 cycles
cpu1_L2C TOTAL        ACCESS:          0 HIT:          0 MISS:          0
cpu1_L2C LOAD         ACCESS:          0 HIT:          0 MISS:          0
cpu1_L2C RFO          ACCESS:          0 HIT:          0 MISS:          0
cpu1_L2C PREFETCH     ACCESS:          0 HIT:          0 MISS:          0
cpu1_L2C WRITE        ACCESS:          0 HIT:          0 MISS:          0
cpu1_L2C TRANSLATION  ACCESS:          0 HIT:          0 MISS:          0
cpu1_L2C PREFETCH REQUESTED:    3825973 ISSUED:    3825973 USEFUL:      30281 USELESS:        585
cpu1_L2C AVERAGE MISS LATENCY: 42.05 cycles
cpu1_L2C TOTAL        ACCESS:          0 HIT:          0 MISS:          0
cpu1_L2C LOAD         ACCESS:          0 HIT:          0 MISS:          0
cpu1_L2C RFO          ACCESS:          0 HIT:          0 MISS:          0
cpu1_L2C PREFETCH     ACCESS:          0 HIT:          0 MISS:          0
cpu1_L2C WRITE        ACCESS:          0 HIT:          0 MISS:          0
cpu1_L2C TRANSLATION  ACCESS:          0 HIT:          0 MISS:          0
cpu1_L2C PREFETCH REQUESTED:    3825973 ISSUED:    3825973 USEFUL:      30281 USELESS:        585
cpu1_L2C AVERAGE MISS LATENCY: 42.05 cycles
cpu1_STLB TOTAL        ACCESS:          0 HIT:          0 MISS:          0
cpu1_STLB LOAD         ACCESS:          0 HIT:          0 MISS:          0
cpu1_STLB RFO          ACCESS:          0 HIT:          0 MISS:          0
cpu1_STLB PREFETCH     ACCESS:          0 HIT:          0 MISS:          0
cpu1_STLB WRITE        ACCESS:          0 HIT:          0 MISS:          0
cpu1_STLB TRANSLATION  ACCESS:          0 HIT:          0 MISS:          0
cpu1_STLB PREFETCH REQUESTED:          0 ISSUED:          0 USEFUL:          0 USELESS:          0
cpu1_STLB AVERAGE MISS LATENCY: 350.3 cycles
cpu1_STLB TOTAL        ACCESS:     580325 HIT:     575961 MISS:       4364
cpu1_STLB LOAD         ACCESS:     580325 HIT:     575961 MISS:       4364
cpu1_STLB RFO          ACCESS:          0 HIT:          0 MISS:          0
cpu1_STLB PREFETCH     ACCESS:          0 HIT:          0 MISS:          0
cpu1_STLB WRITE        ACCESS:          0 HIT:          0 MISS:          0
cpu1_STLB TRANSLATION  ACCESS:          0 HIT:          0 MISS:          0
cpu1_STLB PREFETCH REQUESTED:          0 ISSUED:          0 USEFUL:          0 USELESS:          0
cpu1_STLB AVERAGE MISS LATENCY: 350.3 cycles
cpu1_STLB TOTAL        ACCESS:          0 HIT:          0 MISS:          0
cpu1_STLB LOAD         ACCESS:          0 HIT:          0 MISS:          0
cpu1_STLB RFO          ACCESS:          0 HIT:          0 MISS:          0
cpu1_STLB PREFETCH     ACCESS:          0 HIT:          0 MISS:          0
cpu1_STLB WRITE        ACCESS:          0 HIT:          0 MISS:          0
cpu1_STLB TRANSLATION  ACCESS:          0 HIT:          0 MISS:          0
cpu1_STLB PREFETCH REQUESTED:          0 ISSUED:          0 USEFUL:          0 USELESS:          0
cpu1_STLB AVERAGE MISS LATENCY: 350.3 cycles
cpu1_STLB TOTAL        ACCESS:          0 HIT:          0 MISS:          0
cpu1_STLB LOAD         ACCESS:          0 HIT:          0 MISS:          0
cpu1_STLB RFO          ACCESS:          0 HIT:          0 MISS:          0
cpu1_STLB PREFETCH     ACCESS:          0 HIT:          0 MISS:          0
cpu1_STLB WRITE        ACCESS:          0 HIT:          0 MISS:          0
cpu1_STLB TRANSLATION  ACCESS:          0 HIT:          0 MISS:          0
cpu1_STLB PREFETCH REQUESTED:          0 ISSUED:          0 USEFUL:          0 USELESS:          0
cpu1_STLB AVERAGE MISS LATENCY: 350.3 cycles
cpu2_DTLB TOTAL        ACCESS:          0 HIT:          0 MISS:          0
cpu2_DTLB LOAD         ACCESS:          0 HIT:          0 MISS:          0
cpu2_DTLB RFO          ACCESS:          0 HIT:          0 MISS:          0
cpu2_DTLB PREFETCH     ACCESS:          0 HIT:          0 MISS:          0
cpu2_DTLB WRITE        ACCESS:          0 HIT:          0 MISS:          0
cpu2_DTLB TRANSLATION  ACCESS:          0 HIT:          0 MISS:          0
cpu2_DTLB PREFETCH REQUESTED:          0 ISSUED:          0 USEFUL:          0 USELESS:          0
cpu2_DTLB AVERAGE MISS LATENCY: 6.134 cycles
cpu2_DTLB TOTAL        ACCESS:          0 HIT:          0 MISS:          0
cpu2_DTLB LOAD         ACCESS:          0 HIT:          0 MISS:          0
cpu2_DTLB RFO          ACCESS:          0 HIT:          0 MISS:          0
cpu2_DTLB PREFETCH     ACCESS:          0 HIT:          0 MISS:          0
cpu2_DTLB WRITE        ACCESS:          0 HIT:          0 MISS:          0
cpu2_DTLB TRANSLATION  ACCESS:          0 HIT:          0 MISS:          0
cpu2_DTLB PREFETCH REQUESTED:          0 ISSUED:          0 USEFUL:          0 USELESS:          0
cpu2_DTLB AVERAGE MISS LATENCY: 6.134 cycles
cpu2_DTLB TOTAL        ACCESS:   79282083 HIT:   64651873 MISS:   14630210
cpu2_DTLB LOAD         ACCESS:   79282083 HIT:   64651873 MISS:   14630210
cpu2_DTLB RFO          ACCESS:          0 HIT:          0 MISS:          0
cpu2_DTLB PREFETCH     ACCESS:          0 HIT:          0 MISS:          0
cpu2_DTLB WRITE        ACCESS:          0 HIT:          0 MISS:          0
cpu2_DTLB TRANSLATION  ACCESS:          0 HIT:          0 MISS:          0
cpu2_DTLB PREFETCH REQUESTED:          0 ISSUED:          0 USEFUL:          0 USELESS:          0
cpu2_DTLB AVERAGE MISS LATENCY: 6.134 cycles
cpu2_DTLB TOTAL        ACCESS:          0 HIT:          0 MISS:          0
cpu2_DTLB LOAD         ACCESS:          0 HIT:          0 MISS:          0
cpu2_DTLB RFO          ACCESS:          0 HIT:          0 MISS:          0
cpu2_DTLB PREFETCH     ACCESS:          0 HIT:          0 MISS:          0
cpu2_DTLB WRITE        ACCESS:          0 HIT:          0 MISS:          0
cpu2_DTLB TRANSLATION  ACCESS:          0 HIT:          0 MISS:          0
cpu2_DTLB PREFETCH REQUESTED:          0 ISSUED:          0 USEFUL:          0 USELESS:          0
cpu2_DTLB AVERAGE MISS LATENCY: 6.134 cycles
cpu2_ITLB TOTAL        ACCESS:          0 HIT:          0 MISS:          0
cpu2_ITLB LOAD         ACCESS:          0 HIT:          0 MISS:          0
cpu2_ITLB RFO          ACCESS:          0 HIT:          0 MISS:          0
cpu2_ITLB PREFETCH     ACCESS:          0 HIT:          0 MISS:          0
cpu2_ITLB WRITE        ACCESS:          0 HIT:          0 MISS:          0
cpu2_ITLB TRANSLATION  ACCESS:          0 HIT:          0 MISS:          0
cpu2_ITLB PREFETCH REQUESTED:          0 ISSUED:          0 USEFUL:          0 USELESS:          0
cpu2_ITLB AVERAGE MISS LATENCY: 4.178 cycles
cpu2_ITLB TOTAL        ACCESS:          0 HIT:          0 MISS:          0
cpu2_ITLB LOAD         ACCESS:          0 HIT:          0 MISS:          0
cpu2_ITLB RFO          ACCESS:          0 HIT:          0 MISS:          0
cpu2_ITLB PREFETCH     ACCESS:          0 HIT:          0 MISS:          0
cpu2_ITLB WRITE        ACCESS:          0 HIT:          0 MISS:          0
cpu2_ITLB TRANSLATION  ACCESS:          0 HIT:          0 MISS:          0
cpu2_ITLB PREFETCH REQUESTED:          0 ISSUED:          0 USEFUL:          0 USELESS:          0
cpu2_ITLB AVERAGE MISS LATENCY: 4.178 cycles
cpu2_ITLB TOTAL        ACCESS:   12404112 HIT:   12125019 MISS:     279093
cpu2_ITLB LOAD         ACCESS:   12404112 HIT:   12125019 MISS:     279093
cpu2_ITLB RFO          ACCESS:          0 HIT:          0 MISS:          0
cpu2_ITLB PREFETCH     ACCESS:          0 HIT:          0 MISS:          0
cpu2_ITLB WRITE        ACCESS:          0 HIT:          0 MISS:          0
cpu2_ITLB TRANSLATION  ACCESS:          0 HIT:          0 MISS:          0
cpu2_ITLB PREFETCH REQUESTED:          0 ISSUED:          0 USEFUL:          0 USELESS:          0
cpu2_ITLB AVERAGE MISS LATENCY: 4.178 cycles
cpu2_ITLB TOTAL        ACCESS:          0 HIT:          0 MISS:          0
cpu2_ITLB LOAD         ACCESS:          0 HIT:          0 MISS:          0
cpu2_ITLB RFO          ACCESS:          0 HIT:          0 MISS:          0
cpu2_ITLB PREFETCH     ACCESS:          0 HIT:          0 MISS:          0
cpu2_ITLB WRITE        ACCESS:          0 HIT:          0 MISS:          0
cpu2_ITLB TRANSLATION  ACCESS:          0 HIT:          0 MISS:          0
cpu2_ITLB PREFETCH REQUESTED:          0 ISSUED:          0 USEFUL:          0 USELESS:          0
cpu2_ITLB AVERAGE MISS LATENCY: 4.178 cycles
cpu2_L1D TOTAL        ACCESS:          0 HIT:          0 MISS:          0
cpu2_L1D LOAD         ACCESS:          0 HIT:          0 MISS:          0
cpu2_L1D RFO          ACCESS:          0 HIT:          0 MISS:          0
cpu2_L1D PREFETCH     ACCESS:          0 HIT:          0 MISS:          0
cpu2_L1D WRITE        ACCESS:          0 HIT:          0 MISS:          0
cpu2_L1D TRANSLATION  ACCESS:          0 HIT:          0 MISS:          0
cpu2_L1D PREFETCH REQUESTED:          0 ISSUED:          0 USEFUL:          0 USELESS:          0
cpu2_L1D AVERAGE MISS LATENCY: 15.33 cycles
cpu2_L1D TOTAL        ACCESS:          0 HIT:          0 MISS:          0
cpu2_L1D LOAD         ACCESS:          0 HIT:          0 MISS:          0
cpu2_L1D RFO          ACCESS:          0 HIT:          0 MISS:          0
cpu2_L1D PREFETCH     ACCESS:          0 HIT:          0 MISS:          0
cpu2_L1D WRITE        ACCESS:          0 HIT:          0 MISS:          0
cpu2_L1D TRANSLATION  ACCESS:          0 HIT:          0 MISS:          0
cpu2_L1D PREFETCH REQUESTED:          0 ISSUED:          0 USEFUL:          0 USELESS:          0
cpu2_L1D AVERAGE MISS LATENCY: 15.33 cycles
cpu2_L1D TOTAL        ACCESS:   99267111 HIT:   73453703 MISS:   25813408
cpu2_L1D LOAD         ACCESS:   71774253 HIT:   48919818 MISS:   22854435
cpu2_L1D RFO          ACCESS:          0 HIT:          0 MISS:          0
cpu2_L1D PREFETCH     ACCESS:          0 HIT:          0 MISS:          0
cpu2_L1D WRITE        ACCESS:   26863537 HIT:   24506247 MISS:    2357290
cpu2_L1D TRANSLATION  ACCESS:     629321 HIT:      27638 MISS:     601683
cpu2_L1D PREFETCH REQUESTED:          0 ISSUED:          0 USEFUL:          0 USELESS:          0
cpu2_L1D AVERAGE MISS LATENCY: 15.33 cycles
cpu2_L1D TOTAL        ACCESS:          0 HIT:          0 MISS:          0
cpu2_L1D LOAD         ACCESS:          0 HIT:          0 MISS:          0
cpu2_L1D RFO          ACCESS:          0 HIT:          0 MISS:          0
cpu2_L1D PREFETCH     ACCESS:          0 HIT:          0 MISS:          0
cpu2_L1D WRITE        ACCESS:          0 HIT:          0 MISS:          0
cpu2_L1D TRANSLATION  ACCESS:          0 HIT:          0 MISS:          0
cpu2_L1D PREFETCH REQUESTED:          0 ISSUED:          0 USEFUL:          0 USELESS:          0
cpu2_L1D AVERAGE MISS LATENCY: 15.33 cycles
cpu2_L1I TOTAL        ACCESS:          0 HIT:          0 MISS:          0
cpu2_L1I LOAD         ACCESS:          0 HIT:          0 MISS:          0
cpu2_L1I RFO          ACCESS:          0 HIT:          0 MISS:          0
cpu2_L1I PREFETCH     ACCESS:          0 HIT:          0 MISS:          0
cpu2_L1I WRITE        ACCESS:          0 HIT:          0 MISS:          0
cpu2_L1I TRANSLATION  ACCESS:          0 HIT:          0 MISS:          0
cpu2_L1I PREFETCH REQUESTED:          0 ISSUED:          0 USEFUL:          0 USELESS:          0
cpu2_L1I AVERAGE MISS LATENCY: 8.625 cycles
cpu2_L1I TOTAL        ACCESS:          0 HIT:          0 MISS:          0
cpu2_L1I LOAD         ACCESS:          0 HIT:          0 MISS:          0
cpu2_L1I RFO          ACCESS:          0 HIT:          0 MISS:          0
cpu2_L1I PREFETCH     ACCESS:          0 HIT:          0 MISS:          0
cpu2_L1I WRITE        ACCESS:          0 HIT:          0 MISS:          0
cpu2_L1I TRANSLATION  ACCESS:          0 HIT:          0 MISS:          0
cpu2_L1I PREFETCH REQUESTED:          0 ISSUED:          0 USEFUL:          0 USELESS:          0
cpu2_L1I AVERAGE MISS LATENCY: 8.625 cycles
cpu2_L1I TOTAL        ACCESS:   14758659 HIT:   13469551 MISS:    1289108
cpu2_L1I LOAD         ACCESS:   14758659 HIT:   13469551 MISS:    1289108
cpu2_L1I RFO          ACCESS:          0 HIT:          0 MISS:          0
cpu2_L1I PREFETCH     ACCESS:          0 HIT:          0 MISS:          0
cpu2_L1I WRITE        ACCESS:          0 HIT:          0 MISS:          0
cpu2_L1I TRANSLATION  ACCESS:          0 HIT:          0 MISS:          0
cpu2_L1I PREFETCH REQUESTED:          0 ISSUED:          0 USEFUL:          0 USELESS:          0
cpu2_L1I AVERAGE MISS LATENCY: 8.625 cycles
cpu2_L1I TOTAL        ACCESS:          0 HIT:          0 MISS:          0
cpu2_L1I LOAD         ACCESS:          0 HIT:          0 MISS:          0
cpu2_L1I RFO          ACCESS:          0 HIT:          0 MISS:          0
cpu2_L1I PREFETCH     ACCESS:          0 HIT:          0 MISS:          0
cpu2_L1I WRITE        ACCESS:          0 HIT:          0 MISS:          0
cpu2_L1I TRANSLATION  ACCESS:          0 HIT:          0 MISS:          0
cpu2_L1I PREFETCH REQUESTED:          0 ISSUED:          0 USEFUL:          0 USELESS:          0
cpu2_L1I AVERAGE MISS LATENCY: 8.625 cycles
cpu2_L2C TOTAL        ACCESS:          0 HIT:          0 MISS:          0
cpu2_L2C LOAD         ACCESS:          0 HIT:          0 MISS:          0
cpu2_L2C RFO          ACCESS:          0 HIT:          0 MISS:          0
cpu2_L2C PREFETCH     ACCESS:          0 HIT:          0 MISS:          0
cpu2_L2C WRITE        ACCESS:          0 HIT:          0 MISS:          0
cpu2_L2C TRANSLATION  ACCESS:          0 HIT:          0 MISS:          0
cpu2_L2C PREFETCH REQUESTED:   20423145 ISSUED:   20249063 USEFUL:      10320 USELESS:       5153
cpu2_L2C AVERAGE MISS LATENCY: 25.65 cycles
cpu2_L2C TOTAL        ACCESS:          0 HIT:          0 MISS:          0
cpu2_L2C LOAD         ACCESS:          0 HIT:          0 MISS:          0
cpu2_L2C RFO          ACCESS:          0 HIT:          0 MISS:          0
cpu2_L2C PREFETCH     ACCESS:          0 HIT:          0 MISS:          0
cpu2_L2C WRITE        ACCESS:          0 HIT:          0 MISS:          0
cpu2_L2C TRANSLATION  ACCESS:          0 HIT:          0 MISS:          0
cpu2_L2C PREFETCH REQUESTED:   20423145 ISSUED:   20249063 USEFUL:      10320 USELESS:       5153
cpu2_L2C AVERAGE MISS LATENCY: 25.65 cycles
cpu2_L2C TOTAL        ACCESS:   41070616 HIT:   32603118 MISS:    8467498
cpu2_L2C LOAD         ACCESS:   18671005 HIT:   17839473 MISS:     831532
cpu2_L2C RFO          ACCESS:     610240 HIT:     104721 MISS:     505519
cpu2_L2C PREFETCH     ACCESS:   20249079 HIT:   13189477 MISS:    7059602
cpu2_L2C WRITE        ACCESS:     938793 HIT:     938792 MISS:          1
cpu2_L2C TRANSLATION  ACCESS:     601499 HIT:     530655 MISS:      70844
cpu2_L2C PREFETCH REQUESTED:   20423145 ISSUED:   20249063 USEFUL:      10320 USELESS:       5153
cpu2_L2C AVERAGE MISS LATENCY: 25.65 cycles
cpu2_L2C TOTAL        ACCESS:          0 HIT:          0 MISS:          0
cpu2_L2C LOAD         ACCESS:          0 HIT:          0 MISS:          0
cpu2_L2C RFO          ACCESS:          0 HIT:          0 MISS:          0
cpu2_L2C PREFETCH     ACCESS:          0 HIT:          0 MISS:          0
cpu2_L2C WRITE        ACCESS:          0 HIT:          0 MISS:          0
cpu2_L2C TRANSLATION  ACCESS:          0 HIT:          0 MISS:          0
cpu2_L2C PREFETCH REQUESTED:   20423145 ISSUED:   20249063 USEFUL:      10320 USELESS:       5153
cpu2_L2C AVERAGE MISS LATENCY: 25.65 cycles
cpu2_STLB TOTAL        ACCESS:          0 HIT:          0 MISS:          0
cpu2_STLB LOAD         ACCESS:          0 HIT:          0 MISS:          0
cpu2_STLB RFO          ACCESS:          0 HIT:          0 MISS:          0
cpu2_STLB PREFETCH     ACCESS:          0 HIT:          0 MISS:          0
cpu2_STLB WRITE        ACCESS:          0 HIT:          0 MISS:          0
cpu2_STLB TRANSLATION  ACCESS:          0 HIT:          0 MISS:          0
cpu2_STLB PREFETCH REQUESTED:          0 ISSUED:          0 USEFUL:          0 USELESS:          0
cpu2_STLB AVERAGE MISS LATENCY: 35.79 cycles
cpu2_STLB TOTAL        ACCESS:          0 HIT:          0 MISS:          0
cpu2_STLB LOAD         ACCESS:          0 HIT:          0 MISS:          0
cpu2_STLB RFO          ACCESS:          0 HIT:          0 MISS:          0
cpu2_STLB PREFETCH     ACCESS:          0 HIT:          0 MISS:          0
cpu2_STLB WRITE        ACCESS:          0 HIT:          0 MISS:          0
cpu2_STLB TRANSLATION  ACCESS:          0 HIT:          0 MISS:          0
cpu2_STLB PREFETCH REQUESTED:          0 ISSUED:          0 USEFUL:          0 USELESS:          0
cpu2_STLB AVERAGE MISS LATENCY: 35.79 cycles
cpu2_STLB TOTAL        ACCESS:   10909779 HIT:   10282584 MISS:     627195
cpu2_STLB LOAD         ACCESS:   10909779 HIT:   10282584 MISS:     627195
cpu2_STLB RFO          ACCESS:          0 HIT:          0 MISS:          0
cpu2_STLB PREFETCH     ACCESS:          0 HIT:          0 MISS:          0
cpu2_STLB WRITE        ACCESS:          0 HIT:          0 MISS:          0
cpu2_STLB TRANSLATION  ACCESS:          0 HIT:          0 MISS:          0
cpu2_STLB PREFETCH REQUESTED:          0 ISSUED:          0 USEFUL:          0 USELESS:          0
cpu2_STLB AVERAGE MISS LATENCY: 35.79 cycles
cpu2_STLB TOTAL        ACCESS:          0 HIT:          0 MISS:          0
cpu2_STLB LOAD         ACCESS:          0 HIT:          0 MISS:          0
cpu2_STLB RFO          ACCESS:          0 HIT:          0 MISS:          0
cpu2_STLB PREFETCH     ACCESS:          0 HIT:          0 MISS:          0
cpu2_STLB WRITE        ACCESS:          0 HIT:          0 MISS:          0
cpu2_STLB TRANSLATION  ACCESS:          0 HIT:          0 MISS:          0
cpu2_STLB PREFETCH REQUESTED:          0 ISSUED:          0 USEFUL:          0 USELESS:          0
cpu2_STLB AVERAGE MISS LATENCY: 35.79 cycles
cpu3_DTLB TOTAL        ACCESS:          0 HIT:          0 MISS:          0
cpu3_DTLB LOAD         ACCESS:          0 HIT:          0 MISS:          0
cpu3_DTLB RFO          ACCESS:          0 HIT:          0 MISS:          0
cpu3_DTLB PREFETCH     ACCESS:          0 HIT:          0 MISS:          0
cpu3_DTLB WRITE        ACCESS:          0 HIT:          0 MISS:          0
cpu3_DTLB TRANSLATION  ACCESS:          0 HIT:          0 MISS:          0
cpu3_DTLB PREFETCH REQUESTED:          0 ISSUED:          0 USEFUL:          0 USELESS:          0
cpu3_DTLB AVERAGE MISS LATENCY: 6.411 cycles
cpu3_DTLB TOTAL        ACCESS:          0 HIT:          0 MISS:          0
cpu3_DTLB LOAD         ACCESS:          0 HIT:          0 MISS:          0
cpu3_DTLB RFO          ACCESS:          0 HIT:          0 MISS:          0
cpu3_DTLB PREFETCH     ACCESS:          0 HIT:          0 MISS:          0
cpu3_DTLB WRITE        ACCESS:          0 HIT:          0 MISS:          0
cpu3_DTLB TRANSLATION  ACCESS:          0 HIT:          0 MISS:          0
cpu3_DTLB PREFETCH REQUESTED:          0 ISSUED:          0 USEFUL:          0 USELESS:          0
cpu3_DTLB AVERAGE MISS LATENCY: 6.411 cycles
cpu3_DTLB TOTAL        ACCESS:          0 HIT:          0 MISS:          0
cpu3_DTLB LOAD         ACCESS:          0 HIT:          0 MISS:          0
cpu3_DTLB RFO          ACCESS:          0 HIT:          0 MISS:          0
cpu3_DTLB PREFETCH     ACCESS:          0 HIT:          0 MISS:          0
cpu3_DTLB WRITE        ACCESS:          0 HIT:          0 MISS:          0
cpu3_DTLB TRANSLATION  ACCESS:          0 HIT:          0 MISS:          0
cpu3_DTLB PREFETCH REQUESTED:          0 ISSUED:          0 USEFUL:          0 USELESS:          0
cpu3_DTLB AVERAGE MISS LATENCY: 6.411 cycles
cpu3_DTLB TOTAL        ACCESS:   76504129 HIT:   75725785 MISS:     778344
cpu3_DTLB LOAD         ACCESS:   76504129 HIT:   75725785 MISS:     778344
cpu3_DTLB RFO          ACCESS:          0 HIT:          0 MISS:          0
cpu3_DTLB PREFETCH     ACCESS:          0 HIT:          0 MISS:          0
cpu3_DTLB WRITE        ACCESS:          0 HIT:          0 MISS:          0
cpu3_DTLB TRANSLATION  ACCESS:          0 HIT:          0 MISS:          0
cpu3_DTLB PREFETCH REQUESTED:          0 ISSUED:          0 USEFUL:          0 USELESS:          0
cpu3_DTLB AVERAGE MISS LATENCY: 6.411 cycles
cpu3_ITLB TOTAL        ACCESS:          0 HIT:          0 MISS:          0
cpu3_ITLB LOAD         ACCESS:          0 HIT:          0 MISS:          0
cpu3_ITLB RFO          ACCESS:          0 HIT:          0 MISS:          0
cpu3_ITLB PREFETCH     ACCESS:          0 HIT:          0 MISS:          0
cpu3_ITLB WRITE        ACCESS:          0 HIT:          0 MISS:          0
cpu3_ITLB TRANSLATION  ACCESS:          0 HIT:          0 MISS:          0
cpu3_ITLB PREFETCH REQUESTED:          0 ISSUED:          0 USEFUL:          0 USELESS:          0
cpu3_ITLB AVERAGE MISS LATENCY: 214.3 cycles
cpu3_ITLB TOTAL        ACCESS:          0 HIT:          0 MISS:          0
[...]
cpu2_L1I PREFETCH REQUESTED:          0 ISSUED:          0 USEFUL:          0 USELESS:          0
cpu2_L1I AVERAGE MISS LATENCY: 8.625 cycles
cpu2_L1I TOTAL        ACCESS:          0 HIT:          0 MISS:          0
cpu2_L1I LOAD         ACCESS:          0 HIT:          0 MISS:          0
cpu2_L1I RFO          ACCESS:          0 HIT:          0 MISS:          0
cpu2_L1I PREFETCH     ACCESS:          0 HIT:          0 MISS:          0
cpu2_L1I WRITE        ACCESS:          0 HIT:          0 MISS:          0
cpu2_L1I TRANSLATION  ACCESS:          0 HIT:          0 MISS:          0
cpu2_L1I PREFETCH REQUESTED:          0 ISSUED:          0 USEFUL:          0 USELESS:          0
cpu2_L1I AVERAGE MISS LATENCY: 8.625 cycles
cpu2_L2C TOTAL        ACCESS:          0 HIT:          0 MISS:          0
cpu2_L2C LOAD         ACCESS:          0 HIT:          0 MISS:          0
cpu2_L2C RFO          ACCESS:          0 HIT:          0 MISS:          0
cpu2_L2C PREFETCH     ACCESS:          0 HIT:          0 MISS:          0
cpu2_L2C WRITE        ACCESS:          0 HIT:          0 MISS:          0
cpu2_L2C TRANSLATION  ACCESS:          0 HIT:          0 MISS:          0
cpu2_L2C PREFETCH REQUESTED:   20423145 ISSUED:   20249063 USEFUL:      10320 USELESS:       5153
cpu2_L2C AVERAGE MISS LATENCY: 25.65 cycles
cpu2_L2C TOTAL        ACCESS:          0 HIT:          0 MISS:          0
cpu2_L2C LOAD         ACCESS:          0 HIT:          0 MISS:          0
cpu2_L2C RFO          ACCESS:          0 HIT:          0 MISS:          0
cpu2_L2C PREFETCH     ACCESS:          0 HIT:          0 MISS:          0
cpu2_L2C WRITE        ACCESS:          0 HIT:          0 MISS:          0
cpu2_L2C TRANSLATION  ACCESS:          0 HIT:          0 MISS:          0
cpu2_L2C PREFETCH REQUESTED:   20423145 ISSUED:   20249063 USEFUL:      10320 USELESS:       5153
cpu2_L2C AVERAGE MISS LATENCY: 25.65 cycles
cpu2_L2C TOTAL        ACCESS:   16740204 HIT:   13244571 MISS:    3495633
cpu2_L2C LOAD         ACCESS:    7782737 HIT:    7455363 MISS:     327374
cpu2_L2C RFO          ACCESS:     204234 HIT:      39759 MISS:     164475
cpu2_L2C PREFETCH     ACCESS:    8158867 HIT:    5185217 MISS:    2973650
cpu2_L2C WRITE        ACCESS:     336587 HIT:     336587 MISS:          0
cpu2_L2C TRANSLATION  ACCESS:     257779 HIT:     227645 MISS:      30134
cpu2_L2C PREFETCH REQUESTED:   20423145 ISSUED:   20249063 USEFUL:      10320 USELESS:       5153
cpu2_L2C AVERAGE MISS LATENCY: 25.65 cycles
cpu2_L2C TOTAL        ACCESS:          0 HIT:          0 MISS:          0
cpu2_L2C LOAD         ACCESS:          0 HIT:          0 MISS:          0
cpu2_L2C RFO          ACCESS:          0 HIT:          0 MISS:          0
cpu2_L2C PREFETCH     ACCESS:          0 HIT:          0 MISS:          0
cpu2_L2C WRITE        ACCESS:          0 HIT:          0 MISS:          0
cpu2_L2C TRANSLATION  ACCESS:          0 HIT:          0 MISS:          0
cpu2_L2C PREFETCH REQUESTED:   20423145 ISSUED:   20249063 USEFUL:      10320 USELESS:       5153
cpu2_L2C AVERAGE MISS LATENCY: 25.65 cycles
cpu2_STLB TOTAL        ACCESS:          0 HIT:          0 MISS:          0
cpu2_STLB LOAD         ACCESS:          0 HIT:          0 MISS:          0
cpu2_STLB RFO          ACCESS:          0 HIT:          0 MISS:          0
cpu2_STLB PREFETCH     ACCESS:          0 HIT:          0 MISS:          0
cpu2_STLB WRITE        ACCESS:          0 HIT:          0 MISS:          0
cpu2_STLB TRANSLATION  ACCESS:          0 HIT:          0 MISS:          0
cpu2_STLB PREFETCH REQUESTED:          0 ISSUED:          0 USEFUL:          0 USELESS:          0
cpu2_STLB AVERAGE MISS LATENCY: 35.79 cycles
cpu2_STLB TOTAL        ACCESS:          0 HIT:          0 MISS:          0
cpu2_STLB LOAD         ACCESS:          0 HIT:          0 MISS:          0
cpu2_STLB RFO          ACCESS:          0 HIT:          0 MISS:          0
cpu2_STLB PREFETCH     ACCESS:          0 HIT:          0 MISS:          0
cpu2_STLB WRITE        ACCESS:          0 HIT:          0 MISS:          0
cpu2_STLB TRANSLATION  ACCESS:          0 HIT:          0 MISS:          0
cpu2_STLB PREFETCH REQUESTED:          0 ISSUED:          0 USEFUL:          0 USELESS:          0
cpu2_STLB AVERAGE MISS LATENCY: 35.79 cycles
cpu2_STLB TOTAL        ACCESS:    4511263 HIT:    4242035 MISS:     269228
cpu2_STLB LOAD         ACCESS:    4511263 HIT:    4242035 MISS:     269228
cpu2_STLB RFO          ACCESS:          0 HIT:          0 MISS:          0
cpu2_STLB PREFETCH     ACCESS:          0 HIT:          0 MISS:          0
cpu2_STLB WRITE        ACCESS:          0 HIT:          0 MISS:          0
cpu2_STLB TRANSLATION  ACCESS:          0 HIT:          0 MISS:          0
cpu2_STLB PREFETCH REQUESTED:          0 ISSUED:          0 USEFUL:          0 USELESS:          0
cpu2_STLB AVERAGE MISS LATENCY: 35.79 cycles
cpu2_STLB TOTAL        ACCESS:          0 HIT:          0 MISS:          0
cpu2_STLB LOAD         ACCESS:          0 HIT:          0 MISS:          0
cpu2_STLB RFO          ACCESS:          0 HIT:          0 MISS:          0
cpu2_STLB PREFETCH     ACCESS:          0 HIT:          0 MISS:          0
cpu2_STLB WRITE        ACCESS:          0 HIT:          0 MISS:          0
cpu2_STLB TRANSLATION  ACCESS:          0 HIT:          0 MISS:          0
cpu2_STLB PREFETCH REQUESTED:          0 ISSUED:          0 USEFUL:          0 USELESS:          0
cpu2_STLB AVERAGE MISS LATENCY: 35.79 cycles
cpu3_DTLB TOTAL        ACCESS:          0 HIT:          0 MISS:          0
cpu3_DTLB LOAD         ACCESS:          0 HIT:          0 MISS:          0
cpu3_DTLB RFO          ACCESS:          0 HIT:          0 MISS:          0
cpu3_DTLB PREFETCH     ACCESS:          0 HIT:          0 MISS:          0
cpu3_DTLB WRITE        ACCESS:          0 HIT:          0 MISS:          0
cpu3_DTLB TRANSLATION  ACCESS:          0 HIT:          0 MISS:          0
cpu3_DTLB PREFETCH REQUESTED:          0 ISSUED:          0 USEFUL:          0 USELESS:          0
cpu3_DTLB AVERAGE MISS LATENCY: 6.411 cycles
cpu3_DTLB TOTAL        ACCESS:          0 HIT:          0 MISS:          0
cpu3_DTLB LOAD         ACCESS:          0 HIT:          0 MISS:          0
cpu3_DTLB RFO          ACCESS:          0 HIT:          0 MISS:          0
cpu3_DTLB PREFETCH     ACCESS:          0 HIT:          0 MISS:          0
cpu3_DTLB WRITE        ACCESS:          0 HIT:          0 MISS:          0
cpu3_DTLB TRANSLATION  ACCESS:          0 HIT:          0 MISS:          0
cpu3_DTLB PREFETCH REQUESTED:          0 ISSUED:          0 USEFUL:          0 USELESS:          0
cpu3_DTLB AVERAGE MISS LATENCY: 6.411 cycles
cpu3_DTLB TOTAL        ACCESS:          0 HIT:          0 MISS:          0
cpu3_DTLB LOAD         ACCESS:          0 HIT:          0 MISS:          0
cpu3_DTLB RFO          ACCESS:          0 HIT:          0 MISS:          0
cpu3_DTLB PREFETCH     ACCESS:          0 HIT:          0 MISS:          0
cpu3_DTLB WRITE        ACCESS:          0 HIT:          0 MISS:          0
cpu3_DTLB TRANSLATION  ACCESS:          0 HIT:          0 MISS:          0
cpu3_DTLB PREFETCH REQUESTED:          0 ISSUED:          0 USEFUL:          0 USELESS:          0
cpu3_DTLB AVERAGE MISS LATENCY: 6.411 cycles
cpu3_DTLB TOTAL        ACCESS:   17833742 HIT:   17823388 MISS:      10354
cpu3_DTLB LOAD         ACCESS:   17833742 HIT:   17823388 MISS:      10354
cpu3_DTLB RFO          ACCESS:          0 HIT:          0 MISS:          0
cpu3_DTLB PREFETCH     ACCESS:          0 HIT:          0 MISS:          0
cpu3_DTLB WRITE        ACCESS:          0 HIT:          0 MISS:          0
cpu3_DTLB TRANSLATION  ACCESS:          0 HIT:          0 MISS:          0
cpu3_DTLB PREFETCH REQUESTED:          0 ISSUED:          0 USEFUL:          0 USELESS:          0
cpu3_DTLB AVERAGE MISS LATENCY: 6.411 cycles
cpu3_ITLB TOTAL        ACCESS:          0 HIT:          0 MISS:          0
cpu3_ITLB LOAD         ACCESS:          0 HIT:          0 MISS:          0
cpu3_ITLB RFO          ACCESS:          0 HIT:          0 MISS:          0
cpu3_ITLB PREFETCH     ACCESS:          0 HIT:          0 MISS:          0
cpu3_ITLB WRITE        ACCESS:          0 HIT:          0 MISS:          0
cpu3_ITLB TRANSLATION  ACCESS:          0 HIT:          0 MISS:          0
cpu3_ITLB PREFETCH REQUESTED:          0 ISSUED:          0 USEFUL:          0 USELESS:          0
cpu3_ITLB AVERAGE MISS LATENCY: 214.3 cycles
cpu3_ITLB TOTAL        ACCESS:          0 HIT:          0 MISS:          0
cpu3_ITLB LOAD         ACCESS:          0 HIT:          0 MISS:          0
cpu3_ITLB RFO          ACCESS:          0 HIT:          0 MISS:          0
cpu3_ITLB PREFETCH     ACCESS:          0 HIT:          0 MISS:          0
cpu3_ITLB WRITE        ACCESS:          0 HIT:          0 MISS:          0
cpu3_ITLB TRANSLATION  ACCESS:          0 HIT:          0 MISS:          0
cpu3_ITLB PREFETCH REQUESTED:          0 ISSUED:          0 USEFUL:          0 USELESS:          0
cpu3_ITLB AVERAGE MISS LATENCY: 214.3 cycles
cpu3_ITLB TOTAL        ACCESS:          0 HIT:          0 MISS:          0
cpu3_ITLB LOAD         ACCESS:          0 HIT:          0 MISS:          0
cpu3_ITLB RFO          ACCESS:          0 HIT:          0 MISS:          0
cpu3_ITLB PREFETCH     ACCESS:          0 HIT:          0 MISS:          0
cpu3_ITLB WRITE        ACCESS:          0 HIT:          0 MISS:          0
cpu3_ITLB TRANSLATION  ACCESS:          0 HIT:          0 MISS:          0
cpu3_ITLB PREFETCH REQUESTED:          0 ISSUED:          0 USEFUL:          0 USELESS:          0
cpu3_ITLB AVERAGE MISS LATENCY: 214.3 cycles
cpu3_ITLB TOTAL        ACCESS:     497889 HIT:     497889 MISS:          0
cpu3_ITLB LOAD         ACCESS:     497889 HIT:     497889 MISS:          0
cpu3_ITLB RFO          ACCESS:          0 HIT:          0 MISS:          0
cpu3_ITLB PREFETCH     ACCESS:          0 HIT:          0 MISS:          0
cpu3_ITLB WRITE        ACCESS:          0 HIT:          0 MISS:          0
cpu3_ITLB TRANSLATION  ACCESS:          0 HIT:          0 MISS:          0
cpu3_ITLB PREFETCH REQUESTED:          0 ISSUED:          0 USEFUL:          0 USELESS:          0
cpu3_ITLB AVERAGE MISS LATENCY: 214.3 cycles
cpu3_L1D TOTAL        ACCESS:          0 HIT:          0 MISS:          0
cpu3_L1D LOAD         ACCESS:          0 HIT:          0 MISS:          0
cpu3_L1D RFO          ACCESS:          0 HIT:          0 MISS:          0
cpu3_L1D PREFETCH     ACCESS:          0 HIT:          0 MISS:          0
cpu3_L1D WRITE        ACCESS:          0 HIT:          0 MISS:          0
cpu3_L1D TRANSLATION  ACCESS:          0 HIT:          0 MISS:          0
cpu3_L1D PREFETCH REQUESTED:          0 ISSUED:          0 USEFUL:          0 USELESS:          0
cpu3_L1D AVERAGE MISS LATENCY: 45.64 cycles
cpu3_L1D TOTAL        ACCESS:          0 HIT:          0 MISS:          0
cpu3_L1D LOAD         ACCESS:          0 HIT:          0 MISS:          0
cpu3_L1D RFO          ACCESS:          0 HIT:          0 MISS:          0
cpu3_L1D PREFETCH     ACCESS:          0 HIT:          0 MISS:          0
cpu3_L1D WRITE        ACCESS:          0 HIT:          0 MISS:          0
cpu3_L1D TRANSLATION  ACCESS:          0 HIT:          0 MISS:          0
cpu3_L1D PREFETCH REQUESTED:          0 ISSUED:          0 USEFUL:          0 USELESS:          0
cpu3_L1D AVERAGE MISS LATENCY: 45.64 cycles
cpu3_L1D TOTAL        ACCESS:          0 HIT:          0 MISS:          0
cpu3_L1D LOAD         ACCESS:          0 HIT:          0 MISS:          0
cpu3_L1D RFO          ACCESS:          0 HIT:          0 MISS:          0
cpu3_L1D PREFETCH     ACCESS:          0 HIT:          0 MISS:          0
cpu3_L1D WRITE        ACCESS:          0 HIT:          0 MISS:          0
cpu3_L1D TRANSLATION  ACCESS:          0 HIT:          0 MISS:          0
cpu3_L1D PREFETCH REQUESTED:          0 ISSUED:          0 USEFUL:          0 USELESS:          0
cpu3_L1D AVERAGE MISS LATENCY: 45.64 cycles
cpu3_L1D TOTAL        ACCESS:   21890715 HIT:   21882450 MISS:       8265
cpu3_L1D LOAD         ACCESS:   16328241 HIT:   16325743 MISS:       2498
cpu3_L1D RFO          ACCESS:          0 HIT:          0 MISS:          0
cpu3_L1D PREFETCH     ACCESS:          0 HIT:          0 MISS:          0
cpu3_L1D WRITE        ACCESS:    5562303 HIT:    5556689 MISS:       5614
cpu3_L1D TRANSLATION  ACCESS:        171 HIT:         18 MISS:        153
cpu3_L1D PREFETCH REQUESTED:          0 ISSUED:          0 USEFUL:          0 USELESS:          0
cpu3_L1D AVERAGE MISS LATENCY: 45.64 cycles
cpu3_L1I TOTAL        ACCESS:          0 HIT:          0 MISS:          0
cpu3_L1I LOAD         ACCESS:          0 HIT:          0 MISS:          0
cpu3_L1I RFO          ACCESS:          0 HIT:          0 MISS:          0
cpu3_L1I PREFETCH     ACCESS:          0 HIT:          0 MISS:          0
cpu3_L1I WRITE        ACCESS:          0 HIT:          0 MISS:          0
cpu3_L1I TRANSLATION  ACCESS:          0 HIT:          0 MISS:          0
cpu3_L1I PREFETCH REQUESTED:          0 ISSUED:          0 USEFUL:          0 USELESS:          0
cpu3_L1I AVERAGE MISS LATENCY: 7.871 cycles
cpu3_L1I TOTAL        ACCESS:          0 HIT:          0 MISS:          0
cpu3_L1I LOAD         ACCESS:          0 HIT:          0 MISS:          0
cpu3_L1I RFO          ACCESS:          0 HIT:          0 MISS:          0
cpu3_L1I PREFETCH     ACCESS:          0 HIT:          0 MISS:          0
cpu3_L1I WRITE        ACCESS:          0 HIT:          0 MISS:          0
cpu3_L1I TRANSLATION  ACCESS:          0 HIT:          0 MISS:          0
cpu3_L1I PREFETCH REQUESTED:          0 ISSUED:          0 USEFUL:          0 USELESS:          0
cpu3_L1I AVERAGE MISS LATENCY: 7.871 cycles
cpu3_L1I TOTAL        ACCESS:          0 HIT:          0 MISS:          0
cpu3_L1I LOAD         ACCESS:          0 HIT:          0 MISS:          0
cpu3_L1I RFO          ACCESS:          0 HIT:          0 MISS:          0
cpu3_L1I PREFETCH     ACCESS:          0 HIT:          0 MISS:          0
cpu3_L1I WRITE        ACCESS:          0 HIT:          0 MISS:          0
cpu3_L1I TRANSLATION  ACCESS:          0 HIT:          0 MISS:          0
cpu3_L1I PREFETCH REQUESTED:          0 ISSUED:          0 USEFUL:          0 USELESS:          0
cpu3_L1I AVERAGE MISS LATENCY: 7.871 cycles
cpu3_L1I TOTAL        ACCESS:     550938 HIT:     549501 MISS:       1437
cpu3_L1I LOAD         ACCESS:     550938 HIT:     549501 MISS:       1437
cpu3_L1I RFO          ACCESS:          0 HIT:          0 MISS:          0
cpu3_L1I PREFETCH     ACCESS:          0 HIT:          0 MISS:          0
cpu3_L1I WRITE        ACCESS:          0 HIT:          0 MISS:          0
cpu3_L1I TRANSLATION  ACCESS:          0 HIT:          0 MISS:          0
cpu3_L1I PREFETCH REQUESTED:          0 ISSUED:          0 USEFUL:          0 USELESS:          0
cpu3_L1I AVERAGE MISS LATENCY: 7.871 cycles
cpu3_L2C TOTAL        ACCESS:          0 HIT:          0 MISS:          0
cpu3_L2C LOAD         ACCESS:          0 HIT:          0 MISS:          0
cpu3_L2C RFO          ACCESS:          0 HIT:          0 MISS:          0
cpu3_L2C PREFETCH     ACCESS:          0 HIT:          0 MISS:          0
cpu3_L2C WRITE        ACCESS:          0 HIT:          0 MISS:          0
cpu3_L2C TRANSLATION  ACCESS:          0 HIT:          0 MISS:          0
cpu3_L2C PREFETCH REQUESTED:    3921432 ISSUED:    3902204 USEFUL:      46775 USELESS:       1368
cpu3_L2C AVERAGE MISS LATENCY: 234.7 cycles
cpu3_L2C TOTAL        ACCESS:          0 HIT:          0 MISS:          0
cpu3_L2C LOAD         ACCESS:          0 HIT:          0 MISS:          0
cpu3_L2C RFO          ACCESS:          0 HIT:          0 MISS:          0
cpu3_L2C PREFETCH     ACCESS:          0 HIT:          0 MISS:          0
cpu3_L2C WRITE        ACCESS:          0 HIT:          0 MISS:          0
cpu3_L2C TRANSLATION  ACCESS:          0 HIT:          0 MISS:          0
cpu3_L2C PREFETCH REQUESTED:    3921432 ISSUED:    3902204 USEFUL:      46775 USELESS:       1368
cpu3_L2C AVERAGE MISS LATENCY: 234.7 cycles
cpu3_L2C TOTAL        ACCESS:          0 HIT:          0 MISS:          0
cpu3_L2C LOAD         ACCESS:          0 HIT:          0 MISS:          0
cpu3_L2C RFO          ACCESS:          0 HIT:          0 MISS:          0
cpu3_L2C PREFETCH     ACCESS:          0 HIT:          0 MISS:          0
cpu3_L2C WRITE        ACCESS:          0 HIT:          0 MISS:          0
cpu3_L2C TRANSLATION  ACCESS:          0 HIT:          0 MISS:          0
cpu3_L2C PREFETCH REQUESTED:    3921432 ISSUED:    3902204 USEFUL:      46775 USELESS:       1368
cpu3_L2C AVERAGE MISS LATENCY: 234.7 cycles
cpu3_L2C TOTAL        ACCESS:      11542 HIT:       5623 MISS:       5919
cpu3_L2C LOAD         ACCESS:       2780 HIT:       1257 MISS:       1523
cpu3_L2C RFO          ACCESS:       2556 HIT:         69 MISS:       2487
cpu3_L2C PREFETCH     ACCESS:       3003 HIT:       1189 MISS:       1814
cpu3_L2C WRITE        ACCESS:       3050 HIT:       3050 MISS:          0
cpu3_L2C TRANSLATION  ACCESS:        153 HIT:         58 MISS:         95
cpu3_L2C PREFETCH REQUESTED:    3921432 ISSUED:    3902204 USEFUL:      46775 USELESS:       1368
cpu3_L2C AVERAGE MISS LATENCY: 234.7 cycles
cpu3_STLB TOTAL        ACCESS:          0 HIT:          0 MISS:          0
cpu3_STLB LOAD         ACCESS:          0 HIT:          0 MISS:          0
cpu3_STLB RFO          ACCESS:          0 HIT:          0 MISS:          0
cpu3_STLB PREFETCH     ACCESS:          0 HIT:          0 MISS:          0
cpu3_STLB WRITE        ACCESS:          0 HIT:          0 MISS:          0
cpu3_STLB TRANSLATION  ACCESS:          0 HIT:          0 MISS:          0
cpu3_STLB PREFETCH REQUESTED:          0 ISSUED:          0 USEFUL:          0 USELESS:          0
cpu3_STLB AVERAGE MISS LATENCY: 348.5 cycles
cpu3_STLB TOTAL        ACCESS:          0 HIT:          0 MISS:          0
cpu3_STLB LOAD         ACCESS:          0 HIT:          0 MISS:          0
cpu3_STLB RFO          ACCESS:          0 HIT:          0 MISS:          0
cpu3_STLB PREFETCH     ACCESS:          0 HIT:          0 MISS:          0
cpu3_STLB WRITE        ACCESS:          0 HIT:          0 MISS:          0
cpu3_STLB TRANSLATION  ACCESS:          0 HIT:          0 MISS:          0
cpu3_STLB PREFETCH REQUESTED:          0 ISSUED:          0 USEFUL:          0 USELESS:          0
cpu3_STLB AVERAGE MISS LATENCY: 348.5 cycles
cpu3_STLB TOTAL        ACCESS:          0 HIT:          0 MISS:          0
cpu3_STLB LOAD         ACCESS:          0 HIT:          0 MISS:          0
cpu3_STLB RFO          ACCESS:          0 HIT:          0 MISS:          0
cpu3_STLB PREFETCH     ACCESS:          0 HIT:          0 MISS:          0
cpu3_STLB WRITE        ACCESS:          0 HIT:          0 MISS:          0
cpu3_STLB TRANSLATION  ACCESS:          0 HIT:          0 MISS:          0
cpu3_STLB PREFETCH REQUESTED:          0 ISSUED:          0 USEFUL:          0 USELESS:          0
cpu3_STLB AVERAGE MISS LATENCY: 348.5 cycles
cpu3_STLB TOTAL        ACCESS:       9138 HIT:       8968 MISS:        170
cpu3_STLB LOAD         ACCESS:       9138 HIT:       8968 MISS:        170
cpu3_STLB RFO          ACCESS:          0 HIT:          0 MISS:          0
cpu3_STLB PREFETCH     ACCESS:          0 HIT:          0 MISS:          0
cpu3_STLB WRITE        ACCESS:          0 HIT:          0 MISS:          0
cpu3_STLB TRANSLATION  ACCESS:          0 HIT:          0 MISS:          0
cpu3_STLB PREFETCH REQUESTED:          0 ISSUED:          0 USEFUL:          0 USELESS:          0
cpu3_STLB AVERAGE MISS LATENCY: 348.5 cycles

DRAM Statistics

Channel 0 RQ ROW_BUFFER_HIT:     230653
  ROW_BUFFER_MISS:    1603780
 AVG DBUS CONGESTED CYCLE: 3.905
WQ ROW_BUFFER_HIT: Channel 0 
  ROW_BUFFER_MISS:      83391
  FULL:     606967

Channel 1 RQ ROW_BUFFER_HIT:     230826
  ROW_BUFFER_MISS:    1608509
 AVG DBUS CONGESTED CYCLE: 3.905
WQ ROW_BUFFER_HIT: Channel 1 
  ROW_BUFFER_MISS:      83569
  FULL:     606400
