Original cmd-> /home/grads/r/rdas40/ECEN676/ChampSim/bin/multi_core/spp_2ch --warmup_instructions=50000000 --simulation_instructions=150000000  /home/grads/r/rdas40/dpc3_traces/620.omnetpp_s-874B.champsimtrace.xz /home/grads/r/rdas40/dpc3_traces/607.cactuBSSN_s-2421B.champsimtrace.xz /home/grads/r/rdas40/dpc3_traces/623.xalancbmk_s-700B.champsimtrace.xz /home/grads/r/rdas40/dpc3_traces/621.wrf_s-575B.champsimtrace.xz
WARNING: physical memory size is smaller than virtual memory size.
WARNING: option --warmup_instructions is deprecated. Use --warmup-instructions instead.
WARNING: option --simulation_instructions is deprecated. Use --simulation-instructions instead.

*** ChampSim Multicore Out-of-Order Simulator ***
Warmup Instructions: 50000000
Simulation Instructions: 150000000
Number of CPUs: 4
Page size: 4096

Initialize SIGNATURE TABLE
ST_SET: 1
ST_WAY: 256
ST_TAG_BIT: 16
ST_TAG_MASK: ffff

Initialize PATTERN TABLE
PT_SET: 512
PT_WAY: 4
SIG_DELTA_BIT: 7
C_SIG_BIT: 4
C_DELTA_BIT: 4

Initialize PREFETCH FILTER
FILTER_SET: 1024
Initialize SIGNATURE TABLE
ST_SET: 1
ST_WAY: 256
ST_TAG_BIT: 16
ST_TAG_MASK: ffff

Initialize PATTERN TABLE
PT_SET: 512
PT_WAY: 4
SIG_DELTA_BIT: 7
C_SIG_BIT: 4
C_DELTA_BIT: 4

Initialize PREFETCH FILTER
FILTER_SET: 1024
Initialize SIGNATURE TABLE
ST_SET: 1
ST_WAY: 256
ST_TAG_BIT: 16
ST_TAG_MASK: ffff

Initialize PATTERN TABLE
PT_SET: 512
PT_WAY: 4
SIG_DELTA_BIT: 7
C_SIG_BIT: 4
C_DELTA_BIT: 4

Initialize PREFETCH FILTER
FILTER_SET: 1024
Initialize SIGNATURE TABLE
ST_SET: 1
ST_WAY: 256
ST_TAG_BIT: 16
ST_TAG_MASK: ffff

Initialize PATTERN TABLE
PT_SET: 512
PT_WAY: 4
SIG_DELTA_BIT: 7
C_SIG_BIT: 4
C_DELTA_BIT: 4

Initialize PREFETCH FILTER
FILTER_SET: 1024
Off-chip DRAM Size: 8 GiB Channels: 2 Width: 64-bit Data Race: 3200 MT/s
Heartbeat CPU 3 instructions: 10000001 cycles: 2502764 heartbeat IPC: 3.996 cumulative IPC: 3.996 (Simulation time: 00 hr 03 min 12 sec)
Heartbeat CPU 2 instructions: 10000002 cycles: 3063870 heartbeat IPC: 3.264 cumulative IPC: 3.264 (Simulation time: 00 hr 03 min 54 sec)
Heartbeat CPU 1 instructions: 10000004 cycles: 3682482 heartbeat IPC: 2.716 cumulative IPC: 2.716 (Simulation time: 00 hr 04 min 41 sec)
Heartbeat CPU 0 instructions: 10000002 cycles: 4175801 heartbeat IPC: 2.395 cumulative IPC: 2.395 (Simulation time: 00 hr 05 min 19 sec)
Heartbeat CPU 3 instructions: 20000001 cycles: 5005398 heartbeat IPC: 3.996 cumulative IPC: 3.996 (Simulation time: 00 hr 06 min 24 sec)
Heartbeat CPU 2 instructions: 20000002 cycles: 5748995 heartbeat IPC: 3.724 cumulative IPC: 3.479 (Simulation time: 00 hr 07 min 22 sec)
Heartbeat CPU 1 instructions: 20000000 cycles: 7364290 heartbeat IPC: 2.716 cumulative IPC: 2.716 (Simulation time: 00 hr 09 min 29 sec)
Heartbeat CPU 3 instructions: 30000003 cycles: 7507701 heartbeat IPC: 3.996 cumulative IPC: 3.996 (Simulation time: 00 hr 09 min 40 sec)
Heartbeat CPU 0 instructions: 20000001 cycles: 8348924 heartbeat IPC: 2.396 cumulative IPC: 2.396 (Simulation time: 00 hr 10 min 46 sec)
Heartbeat CPU 2 instructions: 30000000 cycles: 8968269 heartbeat IPC: 3.106 cumulative IPC: 3.345 (Simulation time: 00 hr 11 min 35 sec)
Heartbeat CPU 3 instructions: 40000000 cycles: 10010464 heartbeat IPC: 3.996 cumulative IPC: 3.996 (Simulation time: 00 hr 12 min 56 sec)
Heartbeat CPU 1 instructions: 30000003 cycles: 11045303 heartbeat IPC: 2.717 cumulative IPC: 2.716 (Simulation time: 00 hr 14 min 17 sec)
Heartbeat CPU 2 instructions: 40000004 cycles: 12222322 heartbeat IPC: 3.073 cumulative IPC: 3.273 (Simulation time: 00 hr 15 min 49 sec)
Heartbeat CPU 3 instructions: 50000001 cycles: 12513183 heartbeat IPC: 3.996 cumulative IPC: 3.996 (Simulation time: 00 hr 16 min 12 sec)
Warmup finished CPU 3 instructions: 50000001 cycles: 12513184 cumulative IPC: 3.996 (Simulation time: 00 hr 16 min 12 sec)
Heartbeat CPU 0 instructions: 30000001 cycles: 12522257 heartbeat IPC: 2.396 cumulative IPC: 2.396 (Simulation time: 00 hr 16 min 13 sec)
Heartbeat CPU 1 instructions: 40000003 cycles: 14726963 heartbeat IPC: 2.716 cumulative IPC: 2.716 (Simulation time: 00 hr 19 min 05 sec)
Heartbeat CPU 3 instructions: 60000001 cycles: 15015894 heartbeat IPC: 3.996 cumulative IPC: 3.996 (Simulation time: 00 hr 19 min 28 sec)
Heartbeat CPU 2 instructions: 50000002 cycles: 15375811 heartbeat IPC: 3.171 cumulative IPC: 3.252 (Simulation time: 00 hr 19 min 56 sec)
Warmup finished CPU 2 instructions: 50000002 cycles: 15375812 cumulative IPC: 3.252 (Simulation time: 00 hr 19 min 56 sec)
Heartbeat CPU 0 instructions: 40000000 cycles: 16708600 heartbeat IPC: 2.389 cumulative IPC: 2.394 (Simulation time: 00 hr 21 min 39 sec)
Heartbeat CPU 3 instructions: 70000000 cycles: 17520815 heartbeat IPC: 3.992 cumulative IPC: 3.995 (Simulation time: 00 hr 22 min 41 sec)
Heartbeat CPU 2 instructions: 60000001 cycles: 18084723 heartbeat IPC: 3.692 cumulative IPC: 3.318 (Simulation time: 00 hr 23 min 24 sec)
Heartbeat CPU 1 instructions: 50000002 cycles: 18411824 heartbeat IPC: 2.714 cumulative IPC: 2.716 (Simulation time: 00 hr 23 min 50 sec)
Warmup finished CPU 1 instructions: 50000002 cycles: 18411825 cumulative IPC: 2.716 (Simulation time: 00 hr 23 min 50 sec)
Heartbeat CPU 3 instructions: 80000000 cycles: 20022962 heartbeat IPC: 3.997 cumulative IPC: 3.995 (Simulation time: 00 hr 25 min 55 sec)
Heartbeat CPU 2 instructions: 70000001 cycles: 20810455 heartbeat IPC: 3.669 cumulative IPC: 3.364 (Simulation time: 00 hr 26 min 56 sec)
Heartbeat CPU 0 instructions: 50000003 cycles: 20874898 heartbeat IPC: 2.4 cumulative IPC: 2.395 (Simulation time: 00 hr 27 min 01 sec)
Warmup finished CPU 0 instructions: 50000003 cycles: 20874899 cumulative IPC: 2.395 (Simulation time: 00 hr 27 min 01 sec)
Warmup complete CPU 0 instructions: 50000003 cycles: 20874899 cumulative IPC: 2.395 (Simulation time: 00 hr 27 min 01 sec)
Warmup complete CPU 1 instructions: 56445627 cycles: 20874899 cumulative IPC: 2.704 (Simulation time: 00 hr 27 min 01 sec)
Warmup complete CPU 2 instructions: 70220304 cycles: 20874899 cumulative IPC: 3.364 (Simulation time: 00 hr 27 min 01 sec)
Warmup complete CPU 3 instructions: 83407744 cycles: 20874899 cumulative IPC: 3.996 (Simulation time: 00 hr 27 min 01 sec)
Heartbeat CPU 1 instructions: 60000004 cycles: 23333692 heartbeat IPC: 2.032 cumulative IPC: 1.446 (Simulation time: 00 hr 29 min 05 sec)
Heartbeat CPU 3 instructions: 90000004 cycles: 23968075 heartbeat IPC: 2.535 cumulative IPC: 2.131 (Simulation time: 00 hr 29 min 38 sec)
Heartbeat CPU 3 instructions: 100000000 cycles: 28686125 heartbeat IPC: 2.12 cumulative IPC: 2.124 (Simulation time: 00 hr 33 min 45 sec)
Heartbeat CPU 2 instructions: 80000001 cycles: 28892737 heartbeat IPC: 1.237 cumulative IPC: 1.22 (Simulation time: 00 hr 33 min 56 sec)
Heartbeat CPU 1 instructions: 70000000 cycles: 30162469 heartbeat IPC: 1.464 cumulative IPC: 1.459 (Simulation time: 00 hr 35 min 06 sec)
Heartbeat CPU 3 instructions: 110000001 cycles: 33387212 heartbeat IPC: 2.127 cumulative IPC: 2.125 (Simulation time: 00 hr 37 min 58 sec)
Heartbeat CPU 2 instructions: 90000001 cycles: 35599554 heartbeat IPC: 1.491 cumulative IPC: 1.343 (Simulation time: 00 hr 39 min 58 sec)
Heartbeat CPU 1 instructions: 80000004 cycles: 37092253 heartbeat IPC: 1.443 cumulative IPC: 1.452 (Simulation time: 00 hr 41 min 11 sec)
Heartbeat CPU 3 instructions: 120000000 cycles: 38011830 heartbeat IPC: 2.162 cumulative IPC: 2.135 (Simulation time: 00 hr 41 min 59 sec)
Heartbeat CPU 3 instructions: 130000002 cycles: 42669353 heartbeat IPC: 2.147 cumulative IPC: 2.138 (Simulation time: 00 hr 46 min 06 sec)
Heartbeat CPU 0 instructions: 60000003 cycles: 43100059 heartbeat IPC: 0.4499 cumulative IPC: 0.4499 (Simulation time: 00 hr 46 min 29 sec)
Heartbeat CPU 2 instructions: 100000002 cycles: 43419934 heartbeat IPC: 1.279 cumulative IPC: 1.321 (Simulation time: 00 hr 46 min 46 sec)
Heartbeat CPU 1 instructions: 90000000 cycles: 43823412 heartbeat IPC: 1.486 cumulative IPC: 1.462 (Simulation time: 00 hr 47 min 08 sec)
Heartbeat CPU 3 instructions: 140000000 cycles: 47354499 heartbeat IPC: 2.134 cumulative IPC: 2.137 (Simulation time: 00 hr 50 min 14 sec)
Heartbeat CPU 2 instructions: 110000004 cycles: 50313859 heartbeat IPC: 1.451 cumulative IPC: 1.351 (Simulation time: 00 hr 52 min 49 sec)
Heartbeat CPU 1 instructions: 100000000 cycles: 50923165 heartbeat IPC: 1.408 cumulative IPC: 1.449 (Simulation time: 00 hr 53 min 21 sec)
Heartbeat CPU 3 instructions: 150000004 cycles: 51974443 heartbeat IPC: 2.165 cumulative IPC: 2.141 (Simulation time: 00 hr 54 min 17 sec)
Heartbeat CPU 3 instructions: 160000003 cycles: 56585864 heartbeat IPC: 2.169 cumulative IPC: 2.145 (Simulation time: 00 hr 58 min 20 sec)
Heartbeat CPU 2 instructions: 120000000 cycles: 56990747 heartbeat IPC: 1.498 cumulative IPC: 1.378 (Simulation time: 00 hr 58 min 42 sec)
Heartbeat CPU 1 instructions: 110000003 cycles: 58180297 heartbeat IPC: 1.378 cumulative IPC: 1.436 (Simulation time: 00 hr 59 min 45 sec)
Heartbeat CPU 3 instructions: 170000003 cycles: 61177855 heartbeat IPC: 2.178 cumulative IPC: 2.149 (Simulation time: 01 hr 02 min 30 sec)
Heartbeat CPU 2 instructions: 130000001 cycles: 62684455 heartbeat IPC: 1.756 cumulative IPC: 1.43 (Simulation time: 01 hr 03 min 55 sec)
Heartbeat CPU 1 instructions: 120000004 cycles: 65136833 heartbeat IPC: 1.437 cumulative IPC: 1.436 (Simulation time: 01 hr 06 min 13 sec)
Heartbeat CPU 0 instructions: 70000002 cycles: 65782457 heartbeat IPC: 0.4409 cumulative IPC: 0.4454 (Simulation time: 01 hr 06 min 49 sec)
Heartbeat CPU 3 instructions: 180000004 cycles: 65785572 heartbeat IPC: 2.17 cumulative IPC: 2.151 (Simulation time: 01 hr 06 min 49 sec)
Heartbeat CPU 2 instructions: 140000000 cycles: 68605767 heartbeat IPC: 1.689 cumulative IPC: 1.462 (Simulation time: 01 hr 09 min 24 sec)
Heartbeat CPU 3 instructions: 190000002 cycles: 70395286 heartbeat IPC: 2.169 cumulative IPC: 2.152 (Simulation time: 01 hr 10 min 55 sec)
Heartbeat CPU 1 instructions: 130000001 cycles: 71932416 heartbeat IPC: 1.472 cumulative IPC: 1.441 (Simulation time: 01 hr 12 min 12 sec)
Heartbeat CPU 3 instructions: 200000000 cycles: 75034640 heartbeat IPC: 2.155 cumulative IPC: 2.153 (Simulation time: 01 hr 14 min 57 sec)
Heartbeat CPU 2 instructions: 150000002 cycles: 76621996 heartbeat IPC: 1.247 cumulative IPC: 1.431 (Simulation time: 01 hr 16 min 22 sec)
Heartbeat CPU 1 instructions: 140000001 cycles: 78744729 heartbeat IPC: 1.468 cumulative IPC: 1.444 (Simulation time: 01 hr 18 min 15 sec)
Heartbeat CPU 3 instructions: 210000000 cycles: 79615318 heartbeat IPC: 2.183 cumulative IPC: 2.155 (Simulation time: 01 hr 19 min 00 sec)
Heartbeat CPU 2 instructions: 160000002 cycles: 84198741 heartbeat IPC: 1.32 cumulative IPC: 1.418 (Simulation time: 01 hr 23 min 01 sec)
Heartbeat CPU 3 instructions: 220000000 cycles: 84227489 heartbeat IPC: 2.168 cumulative IPC: 2.156 (Simulation time: 01 hr 23 min 02 sec)
Heartbeat CPU 1 instructions: 150000004 cycles: 85693562 heartbeat IPC: 1.439 cumulative IPC: 1.443 (Simulation time: 01 hr 24 min 20 sec)
Heartbeat CPU 0 instructions: 80000002 cycles: 88679222 heartbeat IPC: 0.4367 cumulative IPC: 0.4424 (Simulation time: 01 hr 27 min 00 sec)
Heartbeat CPU 3 instructions: 230000001 cycles: 88819006 heartbeat IPC: 2.178 cumulative IPC: 2.158 (Simulation time: 01 hr 27 min 08 sec)
Simulation finished CPU 3 instructions: 150000004 cycles: 69529156 cumulative IPC: 2.157 (Simulation time: 01 hr 28 min 30 sec)
Heartbeat CPU 2 instructions: 170000004 cycles: 91395406 heartbeat IPC: 1.39 cumulative IPC: 1.415 (Simulation time: 01 hr 29 min 23 sec)
Heartbeat CPU 1 instructions: 160000003 cycles: 92394386 heartbeat IPC: 1.492 cumulative IPC: 1.448 (Simulation time: 01 hr 30 min 16 sec)
Heartbeat CPU 3 instructions: 240000000 cycles: 93429014 heartbeat IPC: 2.169 cumulative IPC: 2.158 (Simulation time: 01 hr 31 min 11 sec)
Heartbeat CPU 3 instructions: 250000002 cycles: 98046300 heartbeat IPC: 2.166 cumulative IPC: 2.159 (Simulation time: 01 hr 35 min 15 sec)
Heartbeat CPU 2 instructions: 180000002 cycles: 98284469 heartbeat IPC: 1.452 cumulative IPC: 1.418 (Simulation time: 01 hr 35 min 27 sec)
Heartbeat CPU 1 instructions: 170000000 cycles: 99464488 heartbeat IPC: 1.414 cumulative IPC: 1.445 (Simulation time: 01 hr 36 min 29 sec)
Heartbeat CPU 3 instructions: 260000000 cycles: 102715979 heartbeat IPC: 2.141 cumulative IPC: 2.158 (Simulation time: 01 hr 39 min 20 sec)
Heartbeat CPU 2 instructions: 190000001 cycles: 105050447 heartbeat IPC: 1.478 cumulative IPC: 1.423 (Simulation time: 01 hr 41 min 23 sec)
Heartbeat CPU 1 instructions: 180000004 cycles: 106744856 heartbeat IPC: 1.374 cumulative IPC: 1.439 (Simulation time: 01 hr 42 min 53 sec)
Heartbeat CPU 3 instructions: 270000000 cycles: 107341330 heartbeat IPC: 2.162 cumulative IPC: 2.158 (Simulation time: 01 hr 43 min 24 sec)
Heartbeat CPU 2 instructions: 200000002 cycles: 111061941 heartbeat IPC: 1.663 cumulative IPC: 1.439 (Simulation time: 01 hr 46 min 48 sec)
Heartbeat CPU 0 instructions: 90000001 cycles: 111296284 heartbeat IPC: 0.4421 cumulative IPC: 0.4424 (Simulation time: 01 hr 47 min 01 sec)
Heartbeat CPU 3 instructions: 280000001 cycles: 111970477 heartbeat IPC: 2.16 cumulative IPC: 2.158 (Simulation time: 01 hr 47 min 40 sec)
Heartbeat CPU 1 instructions: 190000004 cycles: 113670897 heartbeat IPC: 1.444 cumulative IPC: 1.439 (Simulation time: 01 hr 49 min 16 sec)
Heartbeat CPU 2 instructions: 210000001 cycles: 116447174 heartbeat IPC: 1.857 cumulative IPC: 1.463 (Simulation time: 01 hr 51 min 51 sec)
Heartbeat CPU 3 instructions: 290000004 cycles: 116604047 heartbeat IPC: 2.158 cumulative IPC: 2.158 (Simulation time: 01 hr 51 min 59 sec)
Heartbeat CPU 1 instructions: 200000002 cycles: 120547504 heartbeat IPC: 1.454 cumulative IPC: 1.44 (Simulation time: 01 hr 55 min 28 sec)
Heartbeat CPU 3 instructions: 300000000 cycles: 121224855 heartbeat IPC: 2.164 cumulative IPC: 2.158 (Simulation time: 01 hr 56 min 00 sec)
Heartbeat CPU 2 instructions: 220000000 cycles: 124320100 heartbeat IPC: 1.27 cumulative IPC: 1.448 (Simulation time: 01 hr 58 min 42 sec)
Simulation finished CPU 2 instructions: 150000004 cycles: 103602491 cumulative IPC: 1.448 (Simulation time: 01 hr 58 min 50 sec)
Simulation finished CPU 1 instructions: 150000001 cycles: 104228539 cumulative IPC: 1.439 (Simulation time: 01 hr 59 min 23 sec)
Heartbeat CPU 3 instructions: 310000001 cycles: 125845435 heartbeat IPC: 2.164 cumulative IPC: 2.159 (Simulation time: 02 hr 00 min 02 sec)
Heartbeat CPU 1 instructions: 210000002 cycles: 127674336 heartbeat IPC: 1.403 cumulative IPC: 1.438 (Simulation time: 02 hr 01 min 38 sec)
Heartbeat CPU 3 instructions: 320000001 cycles: 130474256 heartbeat IPC: 2.16 cumulative IPC: 2.159 (Simulation time: 02 hr 04 min 03 sec)
Heartbeat CPU 2 instructions: 230000000 cycles: 131345473 heartbeat IPC: 1.423 cumulative IPC: 1.446 (Simulation time: 02 hr 04 min 48 sec)
Heartbeat CPU 3 instructions: 330000001 cycles: 135086642 heartbeat IPC: 2.168 cumulative IPC: 2.159 (Simulation time: 02 hr 08 min 04 sec)
Heartbeat CPU 0 instructions: 100000000 cycles: 135242794 heartbeat IPC: 0.4176 cumulative IPC: 0.4372 (Simulation time: 02 hr 08 min 12 sec)
Heartbeat CPU 1 instructions: 220000000 cycles: 135408801 heartbeat IPC: 1.293 cumulative IPC: 1.428 (Simulation time: 02 hr 08 min 21 sec)
Heartbeat CPU 2 instructions: 240000001 cycles: 138105859 heartbeat IPC: 1.479 cumulative IPC: 1.448 (Simulation time: 02 hr 10 min 39 sec)
Heartbeat CPU 3 instructions: 340000000 cycles: 140992946 heartbeat IPC: 1.693 cumulative IPC: 2.136 (Simulation time: 02 hr 13 min 13 sec)
Heartbeat CPU 1 instructions: 230000002 cycles: 142941093 heartbeat IPC: 1.328 cumulative IPC: 1.422 (Simulation time: 02 hr 14 min 57 sec)
Heartbeat CPU 2 instructions: 250000001 cycles: 144834900 heartbeat IPC: 1.486 cumulative IPC: 1.45 (Simulation time: 02 hr 16 min 38 sec)
Heartbeat CPU 3 instructions: 350000002 cycles: 146471958 heartbeat IPC: 1.825 cumulative IPC: 2.123 (Simulation time: 02 hr 18 min 04 sec)
Heartbeat CPU 1 instructions: 240000003 cycles: 150360529 heartbeat IPC: 1.348 cumulative IPC: 1.418 (Simulation time: 02 hr 21 min 30 sec)
Heartbeat CPU 2 instructions: 260000000 cycles: 151419801 heartbeat IPC: 1.519 cumulative IPC: 1.454 (Simulation time: 02 hr 22 min 29 sec)
Heartbeat CPU 3 instructions: 360000002 cycles: 151769441 heartbeat IPC: 1.888 cumulative IPC: 2.113 (Simulation time: 02 hr 22 min 48 sec)
Heartbeat CPU 2 instructions: 270000000 cycles: 156690955 heartbeat IPC: 1.897 cumulative IPC: 1.471 (Simulation time: 02 hr 27 min 30 sec)
Heartbeat CPU 3 instructions: 370000000 cycles: 156889574 heartbeat IPC: 1.953 cumulative IPC: 2.107 (Simulation time: 02 hr 27 min 42 sec)
Heartbeat CPU 1 instructions: 250000002 cycles: 157318546 heartbeat IPC: 1.437 cumulative IPC: 1.419 (Simulation time: 02 hr 28 min 08 sec)
Heartbeat CPU 0 instructions: 110000004 cycles: 160777656 heartbeat IPC: 0.3916 cumulative IPC: 0.4289 (Simulation time: 02 hr 31 min 28 sec)
Heartbeat CPU 2 instructions: 280000000 cycles: 161847101 heartbeat IPC: 1.939 cumulative IPC: 1.488 (Simulation time: 02 hr 32 min 30 sec)
Heartbeat CPU 3 instructions: 380000002 cycles: 161944884 heartbeat IPC: 1.978 cumulative IPC: 2.102 (Simulation time: 02 hr 32 min 36 sec)
Heartbeat CPU 1 instructions: 260000004 cycles: 164059352 heartbeat IPC: 1.484 cumulative IPC: 1.422 (Simulation time: 02 hr 34 min 34 sec)
Heartbeat CPU 2 instructions: 290000003 cycles: 169512178 heartbeat IPC: 1.305 cumulative IPC: 1.479 (Simulation time: 02 hr 38 min 42 sec)
Heartbeat CPU 3 instructions: 390000001 cycles: 172851477 heartbeat IPC: 0.9169 cumulative IPC: 2.017 (Simulation time: 02 hr 41 min 08 sec)
Heartbeat CPU 1 instructions: 270000003 cycles: 175322414 heartbeat IPC: 0.8879 cumulative IPC: 1.383 (Simulation time: 02 hr 43 min 07 sec)
Heartbeat CPU 3 instructions: 400000003 cycles: 177692072 heartbeat IPC: 2.066 cumulative IPC: 2.019 (Simulation time: 02 hr 45 min 04 sec)
Heartbeat CPU 2 instructions: 300000001 cycles: 180461974 heartbeat IPC: 0.9133 cumulative IPC: 1.44 (Simulation time: 02 hr 47 min 35 sec)
Heartbeat CPU 3 instructions: 410000003 cycles: 182298861 heartbeat IPC: 2.171 cumulative IPC: 2.023 (Simulation time: 02 hr 49 min 18 sec)
Heartbeat CPU 1 instructions: 280000000 cycles: 182846121 heartbeat IPC: 1.329 cumulative IPC: 1.38 (Simulation time: 02 hr 49 min 48 sec)
Heartbeat CPU 3 instructions: 420000000 cycles: 186918439 heartbeat IPC: 2.165 cumulative IPC: 2.027 (Simulation time: 02 hr 53 min 32 sec)
Heartbeat CPU 2 instructions: 310000001 cycles: 187742322 heartbeat IPC: 1.374 cumulative IPC: 1.437 (Simulation time: 02 hr 54 min 14 sec)
Heartbeat CPU 1 instructions: 290000001 cycles: 190168557 heartbeat IPC: 1.366 cumulative IPC: 1.38 (Simulation time: 02 hr 56 min 34 sec)
Heartbeat CPU 3 instructions: 430000004 cycles: 191726842 heartbeat IPC: 2.08 cumulative IPC: 2.029 (Simulation time: 02 hr 58 min 00 sec)
Heartbeat CPU 0 instructions: 120000004 cycles: 193616037 heartbeat IPC: 0.3045 cumulative IPC: 0.4052 (Simulation time: 02 hr 59 min 32 sec)
Heartbeat CPU 2 instructions: 320000001 cycles: 196020450 heartbeat IPC: 1.208 cumulative IPC: 1.426 (Simulation time: 03 hr 01 min 42 sec)
Heartbeat CPU 3 instructions: 440000003 cycles: 196412148 heartbeat IPC: 2.134 cumulative IPC: 2.031 (Simulation time: 03 hr 02 min 05 sec)
Heartbeat CPU 1 instructions: 300000001 cycles: 197217134 heartbeat IPC: 1.419 cumulative IPC: 1.381 (Simulation time: 03 hr 02 min 48 sec)
Heartbeat CPU 3 instructions: 450000000 cycles: 201464257 heartbeat IPC: 1.979 cumulative IPC: 2.03 (Simulation time: 03 hr 06 min 30 sec)
Heartbeat CPU 2 instructions: 330000000 cycles: 203705557 heartbeat IPC: 1.301 cumulative IPC: 1.421 (Simulation time: 03 hr 08 min 29 sec)
Heartbeat CPU 1 instructions: 310000004 cycles: 205650946 heartbeat IPC: 1.186 cumulative IPC: 1.372 (Simulation time: 03 hr 10 min 14 sec)
Heartbeat CPU 3 instructions: 460000004 cycles: 206254310 heartbeat IPC: 2.088 cumulative IPC: 2.031 (Simulation time: 03 hr 10 min 45 sec)
Heartbeat CPU 2 instructions: 340000000 cycles: 210889282 heartbeat IPC: 1.392 cumulative IPC: 1.42 (Simulation time: 03 hr 14 min 55 sec)
Heartbeat CPU 3 instructions: 470000002 cycles: 210900228 heartbeat IPC: 2.152 cumulative IPC: 2.034 (Simulation time: 03 hr 14 min 55 sec)
Heartbeat CPU 1 instructions: 320000001 cycles: 213922739 heartbeat IPC: 1.209 cumulative IPC: 1.365 (Simulation time: 03 hr 17 min 39 sec)
Heartbeat CPU 3 instructions: 480000000 cycles: 215720530 heartbeat IPC: 2.075 cumulative IPC: 2.035 (Simulation time: 03 hr 19 min 16 sec)
Heartbeat CPU 2 instructions: 350000003 cycles: 217939842 heartbeat IPC: 1.418 cumulative IPC: 1.42 (Simulation time: 03 hr 21 min 17 sec)
Heartbeat CPU 1 instructions: 330000001 cycles: 221743803 heartbeat IPC: 1.279 cumulative IPC: 1.362 (Simulation time: 03 hr 24 min 23 sec)
Heartbeat CPU 3 instructions: 490000002 cycles: 222851774 heartbeat IPC: 1.402 cumulative IPC: 2.013 (Simulation time: 03 hr 25 min 21 sec)
Heartbeat CPU 2 instructions: 360000001 cycles: 225554162 heartbeat IPC: 1.313 cumulative IPC: 1.416 (Simulation time: 03 hr 27 min 37 sec)
Heartbeat CPU 3 instructions: 500000000 cycles: 228689150 heartbeat IPC: 1.713 cumulative IPC: 2.005 (Simulation time: 03 hr 30 min 20 sec)
Heartbeat CPU 0 instructions: 130000002 cycles: 228694132 heartbeat IPC: 0.2851 cumulative IPC: 0.3849 (Simulation time: 03 hr 30 min 20 sec)
Heartbeat CPU 1 instructions: 340000003 cycles: 230330757 heartbeat IPC: 1.165 cumulative IPC: 1.354 (Simulation time: 03 hr 31 min 47 sec)
Heartbeat CPU 2 instructions: 370000000 cycles: 232415736 heartbeat IPC: 1.457 cumulative IPC: 1.417 (Simulation time: 03 hr 33 min 38 sec)
Heartbeat CPU 3 instructions: 510000002 cycles: 234334384 heartbeat IPC: 1.771 cumulative IPC: 1.998 (Simulation time: 03 hr 35 min 18 sec)
Heartbeat CPU 1 instructions: 350000003 cycles: 238192292 heartbeat IPC: 1.272 cumulative IPC: 1.351 (Simulation time: 03 hr 38 min 53 sec)
Heartbeat CPU 2 instructions: 380000003 cycles: 238251656 heartbeat IPC: 1.714 cumulative IPC: 1.425 (Simulation time: 03 hr 38 min 57 sec)
Heartbeat CPU 3 instructions: 520000000 cycles: 239941072 heartbeat IPC: 1.784 cumulative IPC: 1.993 (Simulation time: 03 hr 40 min 33 sec)
Heartbeat CPU 2 instructions: 390000000 cycles: 243343377 heartbeat IPC: 1.964 cumulative IPC: 1.437 (Simulation time: 03 hr 43 min 49 sec)
Heartbeat CPU 1 instructions: 360000002 cycles: 245371003 heartbeat IPC: 1.393 cumulative IPC: 1.352 (Simulation time: 03 hr 45 min 44 sec)
Heartbeat CPU 3 instructions: 530000003 cycles: 245412919 heartbeat IPC: 1.828 cumulative IPC: 1.989 (Simulation time: 03 hr 45 min 47 sec)
Heartbeat CPU 2 instructions: 400000000 cycles: 248721784 heartbeat IPC: 1.859 cumulative IPC: 1.447 (Simulation time: 03 hr 48 min 55 sec)
Heartbeat CPU 3 instructions: 540000000 cycles: 250871567 heartbeat IPC: 1.832 cumulative IPC: 1.985 (Simulation time: 03 hr 50 min 54 sec)
Heartbeat CPU 1 instructions: 370000001 cycles: 252477094 heartbeat IPC: 1.407 cumulative IPC: 1.354 (Simulation time: 03 hr 52 min 22 sec)
Heartbeat CPU 2 instructions: 410000001 cycles: 254788752 heartbeat IPC: 1.648 cumulative IPC: 1.453 (Simulation time: 03 hr 54 min 33 sec)
Heartbeat CPU 0 instructions: 140000001 cycles: 254849475 heartbeat IPC: 0.3823 cumulative IPC: 0.3847 (Simulation time: 03 hr 54 min 36 sec)
Heartbeat CPU 3 instructions: 550000002 cycles: 256339389 heartbeat IPC: 1.829 cumulative IPC: 1.982 (Simulation time: 03 hr 55 min 59 sec)
Heartbeat CPU 1 instructions: 380000000 cycles: 259500451 heartbeat IPC: 1.424 cumulative IPC: 1.356 (Simulation time: 03 hr 58 min 50 sec)
Heartbeat CPU 3 instructions: 560000002 cycles: 261784517 heartbeat IPC: 1.837 cumulative IPC: 1.978 (Simulation time: 04 hr 00 min 50 sec)
Heartbeat CPU 2 instructions: 420000002 cycles: 263694995 heartbeat IPC: 1.123 cumulative IPC: 1.44 (Simulation time: 04 hr 02 min 20 sec)
Heartbeat CPU 1 instructions: 390000000 cycles: 266542867 heartbeat IPC: 1.42 cumulative IPC: 1.358 (Simulation time: 04 hr 04 min 49 sec)
Heartbeat CPU 3 instructions: 570000004 cycles: 267435888 heartbeat IPC: 1.769 cumulative IPC: 1.974 (Simulation time: 04 hr 05 min 37 sec)
Heartbeat CPU 2 instructions: 430000002 cycles: 271284551 heartbeat IPC: 1.318 cumulative IPC: 1.437 (Simulation time: 04 hr 08 min 58 sec)
Heartbeat CPU 3 instructions: 580000000 cycles: 273121198 heartbeat IPC: 1.759 cumulative IPC: 1.969 (Simulation time: 04 hr 10 min 33 sec)
Heartbeat CPU 1 instructions: 400000003 cycles: 274311120 heartbeat IPC: 1.287 cumulative IPC: 1.356 (Simulation time: 04 hr 11 min 35 sec)
Heartbeat CPU 2 instructions: 440000000 cycles: 278408469 heartbeat IPC: 1.404 cumulative IPC: 1.436 (Simulation time: 04 hr 15 min 10 sec)
Heartbeat CPU 3 instructions: 590000001 cycles: 278720999 heartbeat IPC: 1.786 cumulative IPC: 1.965 (Simulation time: 04 hr 15 min 27 sec)
Heartbeat CPU 1 instructions: 410000002 cycles: 282052822 heartbeat IPC: 1.292 cumulative IPC: 1.354 (Simulation time: 04 hr 18 min 24 sec)
Heartbeat CPU 0 instructions: 150000003 cycles: 282911007 heartbeat IPC: 0.3564 cumulative IPC: 0.3816 (Simulation time: 04 hr 19 min 09 sec)
Heartbeat CPU 3 instructions: 600000000 cycles: 284212190 heartbeat IPC: 1.821 cumulative IPC: 1.962 (Simulation time: 04 hr 20 min 20 sec)
Heartbeat CPU 2 instructions: 450000001 cycles: 285541666 heartbeat IPC: 1.402 cumulative IPC: 1.435 (Simulation time: 04 hr 21 min 26 sec)
Heartbeat CPU 1 instructions: 420000000 cycles: 289708383 heartbeat IPC: 1.306 cumulative IPC: 1.352 (Simulation time: 04 hr 25 min 22 sec)
Heartbeat CPU 3 instructions: 610000000 cycles: 289749856 heartbeat IPC: 1.806 cumulative IPC: 1.959 (Simulation time: 04 hr 25 min 24 sec)
Heartbeat CPU 2 instructions: 460000002 cycles: 291172797 heartbeat IPC: 1.776 cumulative IPC: 1.442 (Simulation time: 04 hr 26 min 45 sec)
Heartbeat CPU 1 instructions: 430000003 cycles: 297805146 heartbeat IPC: 1.235 cumulative IPC: 1.349 (Simulation time: 04 hr 32 min 00 sec)
Heartbeat CPU 2 instructions: 470000003 cycles: 302556724 heartbeat IPC: 0.8784 cumulative IPC: 1.419 (Simulation time: 04 hr 35 min 22 sec)
Heartbeat CPU 3 instructions: 620000003 cycles: 308061521 heartbeat IPC: 0.5461 cumulative IPC: 1.868 (Simulation time: 04 hr 39 min 32 sec)
Heartbeat CPU 1 instructions: 440000003 cycles: 308926207 heartbeat IPC: 0.8992 cumulative IPC: 1.332 (Simulation time: 04 hr 40 min 10 sec)
Heartbeat CPU 2 instructions: 480000001 cycles: 311400673 heartbeat IPC: 1.131 cumulative IPC: 1.41 (Simulation time: 04 hr 41 min 55 sec)
Heartbeat CPU 2 instructions: 490000002 cycles: 320004430 heartbeat IPC: 1.162 cumulative IPC: 1.403 (Simulation time: 04 hr 48 min 28 sec)
Heartbeat CPU 1 instructions: 450000000 cycles: 321630316 heartbeat IPC: 0.7871 cumulative IPC: 1.309 (Simulation time: 04 hr 49 min 51 sec)
Heartbeat CPU 3 instructions: 630000003 cycles: 321707479 heartbeat IPC: 0.7328 cumulative IPC: 1.817 (Simulation time: 04 hr 49 min 55 sec)
Heartbeat CPU 0 instructions: 160000002 cycles: 330172311 heartbeat IPC: 0.2116 cumulative IPC: 0.3556 (Simulation time: 04 hr 56 min 34 sec)
Heartbeat CPU 2 instructions: 500000000 cycles: 330688553 heartbeat IPC: 0.936 cumulative IPC: 1.387 (Simulation time: 04 hr 56 min 59 sec)
Heartbeat CPU 1 instructions: 460000001 cycles: 331408869 heartbeat IPC: 1.023 cumulative IPC: 1.3 (Simulation time: 04 hr 57 min 32 sec)
Heartbeat CPU 3 instructions: 640000003 cycles: 332920209 heartbeat IPC: 0.8918 cumulative IPC: 1.784 (Simulation time: 04 hr 58 min 46 sec)
Heartbeat CPU 2 instructions: 510000001 cycles: 340148351 heartbeat IPC: 1.057 cumulative IPC: 1.377 (Simulation time: 05 hr 04 min 24 sec)
Heartbeat CPU 1 instructions: 470000001 cycles: 341812124 heartbeat IPC: 0.9612 cumulative IPC: 1.289 (Simulation time: 05 hr 05 min 44 sec)
Heartbeat CPU 3 instructions: 650000001 cycles: 348117812 heartbeat IPC: 0.658 cumulative IPC: 1.731 (Simulation time: 05 hr 10 min 35 sec)
Heartbeat CPU 2 instructions: 520000000 cycles: 348610286 heartbeat IPC: 1.182 cumulative IPC: 1.372 (Simulation time: 05 hr 11 min 01 sec)
Heartbeat CPU 1 instructions: 480000001 cycles: 352217094 heartbeat IPC: 0.9611 cumulative IPC: 1.278 (Simulation time: 05 hr 13 min 56 sec)
Heartbeat CPU 2 instructions: 530000001 cycles: 355929874 heartbeat IPC: 1.366 cumulative IPC: 1.372 (Simulation time: 05 hr 17 min 03 sec)
Heartbeat CPU 3 instructions: 660000000 cycles: 356068559 heartbeat IPC: 1.258 cumulative IPC: 1.72 (Simulation time: 05 hr 17 min 10 sec)
Heartbeat CPU 1 instructions: 490000001 cycles: 360669772 heartbeat IPC: 1.183 cumulative IPC: 1.276 (Simulation time: 05 hr 20 min 57 sec)
Heartbeat CPU 2 instructions: 540000000 cycles: 363960859 heartbeat IPC: 1.245 cumulative IPC: 1.369 (Simulation time: 05 hr 23 min 43 sec)
Heartbeat CPU 3 instructions: 670000001 cycles: 368314255 heartbeat IPC: 0.8166 cumulative IPC: 1.688 (Simulation time: 05 hr 27 min 15 sec)
Heartbeat CPU 1 instructions: 500000000 cycles: 369201337 heartbeat IPC: 1.172 cumulative IPC: 1.273 (Simulation time: 05 hr 27 min 56 sec)
Heartbeat CPU 2 instructions: 550000004 cycles: 372288375 heartbeat IPC: 1.201 cumulative IPC: 1.365 (Simulation time: 05 hr 30 min 15 sec)
Heartbeat CPU 2 instructions: 560000001 cycles: 380594433 heartbeat IPC: 1.204 cumulative IPC: 1.362 (Simulation time: 05 hr 36 min 32 sec)
Heartbeat CPU 1 instructions: 510000004 cycles: 380824928 heartbeat IPC: 0.8603 cumulative IPC: 1.26 (Simulation time: 05 hr 36 min 43 sec)
Heartbeat CPU 2 instructions: 570000004 cycles: 386811409 heartbeat IPC: 1.608 cumulative IPC: 1.366 (Simulation time: 05 hr 41 min 35 sec)
Heartbeat CPU 0 instructions: 170000001 cycles: 388545981 heartbeat IPC: 0.1713 cumulative IPC: 0.3264 (Simulation time: 05 hr 42 min 51 sec)
Heartbeat CPU 2 instructions: 580000000 cycles: 393231998 heartbeat IPC: 1.557 cumulative IPC: 1.369 (Simulation time: 05 hr 46 min 30 sec)
Heartbeat CPU 1 instructions: 520000001 cycles: 393311673 heartbeat IPC: 0.8008 cumulative IPC: 1.245 (Simulation time: 05 hr 46 min 34 sec)
Heartbeat CPU 3 instructions: 680000004 cycles: 394680541 heartbeat IPC: 0.3793 cumulative IPC: 1.596 (Simulation time: 05 hr 47 min 44 sec)
Heartbeat CPU 2 instructions: 590000001 cycles: 399047144 heartbeat IPC: 1.72 cumulative IPC: 1.374 (Simulation time: 05 hr 51 min 48 sec)
Heartbeat CPU 3 instructions: 690000000 cycles: 399825834 heartbeat IPC: 1.944 cumulative IPC: 1.601 (Simulation time: 05 hr 52 min 35 sec)
Heartbeat CPU 1 instructions: 530000000 cycles: 402338878 heartbeat IPC: 1.108 cumulative IPC: 1.241 (Simulation time: 05 hr 55 min 02 sec)
Heartbeat CPU 3 instructions: 700000003 cycles: 404535414 heartbeat IPC: 2.123 cumulative IPC: 1.607 (Simulation time: 05 hr 57 min 11 sec)
Heartbeat CPU 2 instructions: 600000000 cycles: 404638500 heartbeat IPC: 1.788 cumulative IPC: 1.38 (Simulation time: 05 hr 57 min 18 sec)
Heartbeat CPU 3 instructions: 710000000 cycles: 409088250 heartbeat IPC: 2.196 cumulative IPC: 1.614 (Simulation time: 06 hr 01 min 38 sec)
Heartbeat CPU 1 instructions: 540000000 cycles: 409826657 heartbeat IPC: 1.336 cumulative IPC: 1.243 (Simulation time: 06 hr 02 min 20 sec)
Heartbeat CPU 2 instructions: 610000000 cycles: 411092711 heartbeat IPC: 1.549 cumulative IPC: 1.383 (Simulation time: 06 hr 03 min 31 sec)
Heartbeat CPU 3 instructions: 720000003 cycles: 413705651 heartbeat IPC: 2.166 cumulative IPC: 1.621 (Simulation time: 06 hr 06 min 00 sec)
Heartbeat CPU 1 instructions: 550000000 cycles: 417387543 heartbeat IPC: 1.323 cumulative IPC: 1.245 (Simulation time: 06 hr 09 min 12 sec)
Heartbeat CPU 3 instructions: 730000000 cycles: 419146176 heartbeat IPC: 1.838 cumulative IPC: 1.623 (Simulation time: 06 hr 10 min 44 sec)
Heartbeat CPU 2 instructions: 620000000 cycles: 420093236 heartbeat IPC: 1.111 cumulative IPC: 1.377 (Simulation time: 06 hr 11 min 38 sec)
Heartbeat CPU 0 instructions: 180000001 cycles: 420478948 heartbeat IPC: 0.3132 cumulative IPC: 0.3253 (Simulation time: 06 hr 11 min 59 sec)
Heartbeat CPU 1 instructions: 560000002 cycles: 425315268 heartbeat IPC: 1.261 cumulative IPC: 1.245 (Simulation time: 06 hr 16 min 10 sec)
Heartbeat CPU 3 instructions: 740000004 cycles: 426332526 heartbeat IPC: 1.392 cumulative IPC: 1.619 (Simulation time: 06 hr 16 min 56 sec)
Heartbeat CPU 2 instructions: 630000002 cycles: 428659710 heartbeat IPC: 1.167 cumulative IPC: 1.373 (Simulation time: 06 hr 19 min 00 sec)
Heartbeat CPU 1 instructions: 570000001 cycles: 434289737 heartbeat IPC: 1.114 cumulative IPC: 1.242 (Simulation time: 06 hr 23 min 24 sec)
Heartbeat CPU 3 instructions: 750000003 cycles: 438364646 heartbeat IPC: 0.8311 cumulative IPC: 1.597 (Simulation time: 06 hr 26 min 35 sec)
Heartbeat CPU 2 instructions: 640000002 cycles: 438585235 heartbeat IPC: 1.008 cumulative IPC: 1.364 (Simulation time: 06 hr 26 min 45 sec)
Heartbeat CPU 1 instructions: 580000000 cycles: 443621299 heartbeat IPC: 1.072 cumulative IPC: 1.238 (Simulation time: 06 hr 30 min 48 sec)
Heartbeat CPU 2 instructions: 650000000 cycles: 446658862 heartbeat IPC: 1.239 cumulative IPC: 1.362 (Simulation time: 06 hr 33 min 18 sec)
Heartbeat CPU 3 instructions: 760000004 cycles: 448669815 heartbeat IPC: 0.9704 cumulative IPC: 1.582 (Simulation time: 06 hr 34 min 56 sec)
Heartbeat CPU 1 instructions: 590000003 cycles: 453421760 heartbeat IPC: 1.02 cumulative IPC: 1.234 (Simulation time: 06 hr 38 min 48 sec)
Heartbeat CPU 2 instructions: 660000000 cycles: 454274197 heartbeat IPC: 1.313 cumulative IPC: 1.361 (Simulation time: 06 hr 39 min 29 sec)
Heartbeat CPU 2 instructions: 670000004 cycles: 461930287 heartbeat IPC: 1.306 cumulative IPC: 1.36 (Simulation time: 06 hr 45 min 33 sec)
Heartbeat CPU 1 instructions: 600000004 cycles: 463223314 heartbeat IPC: 1.02 cumulative IPC: 1.229 (Simulation time: 06 hr 46 min 31 sec)
Heartbeat CPU 3 instructions: 770000002 cycles: 463617132 heartbeat IPC: 0.669 cumulative IPC: 1.551 (Simulation time: 06 hr 46 min 50 sec)
Heartbeat CPU 0 instructions: 190000003 cycles: 468587697 heartbeat IPC: 0.2079 cumulative IPC: 0.3127 (Simulation time: 06 hr 50 min 56 sec)
Heartbeat CPU 2 instructions: 680000004 cycles: 469975490 heartbeat IPC: 1.243 cumulative IPC: 1.358 (Simulation time: 06 hr 52 min 07 sec)
Heartbeat CPU 3 instructions: 780000003 cycles: 471615585 heartbeat IPC: 1.25 cumulative IPC: 1.545 (Simulation time: 06 hr 53 min 41 sec)
Heartbeat CPU 1 instructions: 610000003 cycles: 471855204 heartbeat IPC: 1.158 cumulative IPC: 1.227 (Simulation time: 06 hr 53 min 56 sec)
Heartbeat CPU 2 instructions: 690000000 cycles: 475348342 heartbeat IPC: 1.861 cumulative IPC: 1.364 (Simulation time: 06 hr 57 min 09 sec)
Heartbeat CPU 3 instructions: 790000003 cycles: 478099178 heartbeat IPC: 1.542 cumulative IPC: 1.545 (Simulation time: 06 hr 59 min 35 sec)
Heartbeat CPU 1 instructions: 620000000 cycles: 480948446 heartbeat IPC: 1.1 cumulative IPC: 1.225 (Simulation time: 07 hr 02 min 04 sec)
Heartbeat CPU 2 instructions: 700000000 cycles: 481574586 heartbeat IPC: 1.606 cumulative IPC: 1.367 (Simulation time: 07 hr 02 min 37 sec)
Heartbeat CPU 3 instructions: 800000002 cycles: 487293079 heartbeat IPC: 1.088 cumulative IPC: 1.536 (Simulation time: 07 hr 07 min 39 sec)
Heartbeat CPU 2 instructions: 710000002 cycles: 488566020 heartbeat IPC: 1.43 cumulative IPC: 1.368 (Simulation time: 07 hr 08 min 39 sec)
Heartbeat CPU 1 instructions: 630000004 cycles: 490021029 heartbeat IPC: 1.102 cumulative IPC: 1.223 (Simulation time: 07 hr 09 min 47 sec)
Heartbeat CPU 3 instructions: 810000003 cycles: 498848420 heartbeat IPC: 0.8654 cumulative IPC: 1.52 (Simulation time: 07 hr 16 min 40 sec)
Heartbeat CPU 2 instructions: 720000004 cycles: 498885816 heartbeat IPC: 0.969 cumulative IPC: 1.359 (Simulation time: 07 hr 16 min 42 sec)
Heartbeat CPU 1 instructions: 640000004 cycles: 500317738 heartbeat IPC: 0.9712 cumulative IPC: 1.217 (Simulation time: 07 hr 17 min 51 sec)
Heartbeat CPU 1 instructions: 650000003 cycles: 511616299 heartbeat IPC: 0.8851 cumulative IPC: 1.21 (Simulation time: 07 hr 25 min 48 sec)
Heartbeat CPU 2 instructions: 730000000 cycles: 511939274 heartbeat IPC: 0.7661 cumulative IPC: 1.344 (Simulation time: 07 hr 26 min 02 sec)
Heartbeat CPU 0 instructions: 200000001 cycles: 518577122 heartbeat IPC: 0.2 cumulative IPC: 0.3014 (Simulation time: 07 hr 30 min 44 sec)
Simulation finished CPU 0 instructions: 150000003 cycles: 497702225 cumulative IPC: 0.3014 (Simulation time: 07 hr 30 min 44 sec)
Simulation complete CPU 0 instructions: 150000003 cycles: 497702225 cumulative IPC: 0.3014 (Simulation time: 07 hr 30 min 44 sec)
Simulation complete CPU 1 instructions: 599238705 cycles: 497702225 cumulative IPC: 1.204 (Simulation time: 07 hr 30 min 44 sec)
Simulation complete CPU 2 instructions: 665495739 cycles: 497702225 cumulative IPC: 1.337 (Simulation time: 07 hr 30 min 44 sec)
Simulation complete CPU 3 instructions: 732194915 cycles: 497702225 cumulative IPC: 1.471 (Simulation time: 07 hr 30 min 44 sec)

ChampSim completed all CPUs

=== Simulation ===
CPU 0 runs /home/grads/r/rdas40/dpc3_traces/620.omnetpp_s-874B.champsimtrace.xzCPU 1 runs /home/grads/r/rdas40/dpc3_traces/607.cactuBSSN_s-2421B.champsimtrace.xzCPU 2 runs /home/grads/r/rdas40/dpc3_traces/623.xalancbmk_s-700B.champsimtrace.xzCPU 3 runs /home/grads/r/rdas40/dpc3_traces/621.wrf_s-575B.champsimtrace.xz
Total Simulation Statistics (not including warmup)

CPU 0 cumulative IPC: 0.3014 instructions: 150000003 cycles: 497702225
CPU 0 Branch Prediction Accuracy: 94.9% MPKI: 10.6 Average ROB Occupancy at Mispredict: 82.88
Branch type MPKI
BRANCH_DIRECT_JUMP: 0.923
BRANCH_INDIRECT: 0.128
BRANCH_CONDITIONAL: 8.42
BRANCH_DIRECT_CALL: 0.00016
BRANCH_INDIRECT_CALL: 0.734
BRANCH_RETURN: 0.399


CPU 1 cumulative IPC: 1.204 instructions: 599238705 cycles: 497702225
CPU 1 Branch Prediction Accuracy: 99.85% MPKI: 0.001804 Average ROB Occupancy at Mispredict: 348.6
Branch type MPKI
BRANCH_DIRECT_JUMP: 1.67e-06
BRANCH_INDIRECT: 8.34e-06
BRANCH_CONDITIONAL: 0.00179
BRANCH_DIRECT_CALL: 0
BRANCH_INDIRECT_CALL: 0
BRANCH_RETURN: 0


CPU 2 cumulative IPC: 1.337 instructions: 665495739 cycles: 497702225
CPU 2 Branch Prediction Accuracy: 97.36% MPKI: 7.634 Average ROB Occupancy at Mispredict: 42.76
Branch type MPKI
BRANCH_DIRECT_JUMP: 0.104
BRANCH_INDIRECT: 0.324
BRANCH_CONDITIONAL: 5.48
BRANCH_DIRECT_CALL: 0.000329
BRANCH_INDIRECT_CALL: 0.354
BRANCH_RETURN: 1.37


CPU 3 cumulative IPC: 1.471 instructions: 732194915 cycles: 497702225
CPU 3 Branch Prediction Accuracy: 95.55% MPKI: 5.172 Average ROB Occupancy at Mispredict: 108.6
Branch type MPKI
BRANCH_DIRECT_JUMP: 0.000458
BRANCH_INDIRECT: 2.32e-05
BRANCH_CONDITIONAL: 4.79
BRANCH_DIRECT_CALL: 0.00276
BRANCH_INDIRECT_CALL: 0
BRANCH_RETURN: 0.382

LLC TOTAL        ACCESS:    4551615 HIT:    1714111 MISS:    2837504
LLC LOAD         ACCESS:    1683694 HIT:     431063 MISS:    1252631
LLC RFO          ACCESS:     257938 HIT:     106126 MISS:     151812
LLC PREFETCH     ACCESS:    1046658 HIT:     212099 MISS:     834559
LLC WRITE        ACCESS:     966958 HIT:     914165 MISS:      52793
LLC TRANSLATION  ACCESS:     596367 HIT:      50658 MISS:     545709
LLC PREFETCH REQUESTED:          0 ISSUED:          0 USEFUL:          0 USELESS:          0
LLC AVERAGE MISS LATENCY: 747.2 cycles
LLC TOTAL        ACCESS:   18488501 HIT:   13502958 MISS:    4985543
LLC LOAD         ACCESS:    5770856 HIT:    3030272 MISS:    2740584
LLC RFO          ACCESS:      10695 HIT:      10695 MISS:          0
LLC PREFETCH     ACCESS:   12026153 HIT:    9837266 MISS:    2188887
LLC WRITE        ACCESS:     589571 HIT:     589402 MISS:        169
LLC TRANSLATION  ACCESS:      91226 HIT:      35323 MISS:      55903
LLC PREFETCH REQUESTED:          0 ISSUED:          0 USEFUL:          0 USELESS:          0
LLC AVERAGE MISS LATENCY: 747.2 cycles
LLC TOTAL        ACCESS:   12903913 HIT:   11186992 MISS:    1716921
LLC LOAD         ACCESS:    1101947 HIT:     856903 MISS:     245044
LLC RFO          ACCESS:     872974 HIT:      43700 MISS:     829274
LLC PREFETCH     ACCESS:    9775764 HIT:    9245040 MISS:     530724
LLC WRITE        ACCESS:    1037920 HIT:     982673 MISS:      55247
LLC TRANSLATION  ACCESS:     115308 HIT:      58676 MISS:      56632
LLC PREFETCH REQUESTED:          0 ISSUED:          0 USEFUL:          0 USELESS:          0
LLC AVERAGE MISS LATENCY: 747.2 cycles
LLC TOTAL        ACCESS:    9935300 HIT:    5351098 MISS:    4584202
LLC LOAD         ACCESS:    1789250 HIT:     949677 MISS:     839573
LLC RFO          ACCESS:     890735 HIT:     210728 MISS:     680007
LLC PREFETCH     ACCESS:    5576110 HIT:    2547920 MISS:    3028190
LLC WRITE        ACCESS:    1673453 HIT:    1641354 MISS:      32099
LLC TRANSLATION  ACCESS:       5752 HIT:       1419 MISS:       4333
LLC PREFETCH REQUESTED:          0 ISSUED:          0 USEFUL:          0 USELESS:          0
LLC AVERAGE MISS LATENCY: 747.2 cycles
cpu0_DTLB TOTAL        ACCESS:   38208291 HIT:   34911145 MISS:    3297146
cpu0_DTLB LOAD         ACCESS:   38208291 HIT:   34911145 MISS:    3297146
cpu0_DTLB RFO          ACCESS:          0 HIT:          0 MISS:          0
cpu0_DTLB PREFETCH     ACCESS:          0 HIT:          0 MISS:          0
cpu0_DTLB WRITE        ACCESS:          0 HIT:          0 MISS:          0
cpu0_DTLB TRANSLATION  ACCESS:          0 HIT:          0 MISS:          0
cpu0_DTLB PREFETCH REQUESTED:          0 ISSUED:          0 USEFUL:          0 USELESS:          0
cpu0_DTLB AVERAGE MISS LATENCY: 95.08 cycles
cpu0_DTLB TOTAL        ACCESS:          0 HIT:          0 MISS:          0
cpu0_DTLB LOAD         ACCESS:          0 HIT:          0 MISS:          0
cpu0_DTLB RFO          ACCESS:          0 HIT:          0 MISS:          0
cpu0_DTLB PREFETCH     ACCESS:          0 HIT:          0 MISS:          0
cpu0_DTLB WRITE        ACCESS:          0 HIT:          0 MISS:          0
cpu0_DTLB TRANSLATION  ACCESS:          0 HIT:          0 MISS:          0
cpu0_DTLB PREFETCH REQUESTED:          0 ISSUED:          0 USEFUL:          0 USELESS:          0
cpu0_DTLB AVERAGE MISS LATENCY: 95.08 cycles
cpu0_DTLB TOTAL        ACCESS:          0 HIT:          0 MISS:          0
cpu0_DTLB LOAD         ACCESS:          0 HIT:          0 MISS:          0
cpu0_DTLB RFO          ACCESS:          0 HIT:          0 MISS:          0
cpu0_DTLB PREFETCH     ACCESS:          0 HIT:          0 MISS:          0
cpu0_DTLB WRITE        ACCESS:          0 HIT:          0 MISS:          0
cpu0_DTLB TRANSLATION  ACCESS:          0 HIT:          0 MISS:          0
cpu0_DTLB PREFETCH REQUESTED:          0 ISSUED:          0 USEFUL:          0 USELESS:          0
cpu0_DTLB AVERAGE MISS LATENCY: 95.08 cycles
cpu0_DTLB TOTAL        ACCESS:          0 HIT:          0 MISS:          0
cpu0_DTLB LOAD         ACCESS:          0 HIT:          0 MISS:          0
cpu0_DTLB RFO          ACCESS:          0 HIT:          0 MISS:          0
cpu0_DTLB PREFETCH     ACCESS:          0 HIT:          0 MISS:          0
cpu0_DTLB WRITE        ACCESS:          0 HIT:          0 MISS:          0
cpu0_DTLB TRANSLATION  ACCESS:          0 HIT:          0 MISS:          0
cpu0_DTLB PREFETCH REQUESTED:          0 ISSUED:          0 USEFUL:          0 USELESS:          0
cpu0_DTLB AVERAGE MISS LATENCY: 95.08 cycles
cpu0_ITLB TOTAL        ACCESS:   10758417 HIT:   10487512 MISS:     270905
cpu0_ITLB LOAD         ACCESS:   10758417 HIT:   10487512 MISS:     270905
cpu0_ITLB RFO          ACCESS:          0 HIT:          0 MISS:          0
cpu0_ITLB PREFETCH     ACCESS:          0 HIT:          0 MISS:          0
cpu0_ITLB WRITE        ACCESS:          0 HIT:          0 MISS:          0
cpu0_ITLB TRANSLATION  ACCESS:          0 HIT:          0 MISS:          0
cpu0_ITLB PREFETCH REQUESTED:          0 ISSUED:          0 USEFUL:          0 USELESS:          0
cpu0_ITLB AVERAGE MISS LATENCY: 8.439 cycles
cpu0_ITLB TOTAL        ACCESS:          0 HIT:          0 MISS:          0
cpu0_ITLB LOAD         ACCESS:          0 HIT:          0 MISS:          0
cpu0_ITLB RFO          ACCESS:          0 HIT:          0 MISS:          0
cpu0_ITLB PREFETCH     ACCESS:          0 HIT:          0 MISS:          0
cpu0_ITLB WRITE        ACCESS:          0 HIT:          0 MISS:          0
cpu0_ITLB TRANSLATION  ACCESS:          0 HIT:          0 MISS:          0
cpu0_ITLB PREFETCH REQUESTED:          0 ISSUED:          0 USEFUL:          0 USELESS:          0
cpu0_ITLB AVERAGE MISS LATENCY: 8.439 cycles
cpu0_ITLB TOTAL        ACCESS:          0 HIT:          0 MISS:          0
cpu0_ITLB LOAD         ACCESS:          0 HIT:          0 MISS:          0
cpu0_ITLB RFO          ACCESS:          0 HIT:          0 MISS:          0
cpu0_ITLB PREFETCH     ACCESS:          0 HIT:          0 MISS:          0
cpu0_ITLB WRITE        ACCESS:          0 HIT:          0 MISS:          0
cpu0_ITLB TRANSLATION  ACCESS:          0 HIT:          0 MISS:          0
cpu0_ITLB PREFETCH REQUESTED:          0 ISSUED:          0 USEFUL:          0 USELESS:          0
cpu0_ITLB AVERAGE MISS LATENCY: 8.439 cycles
cpu0_ITLB TOTAL        ACCESS:          0 HIT:          0 MISS:          0
cpu0_ITLB LOAD         ACCESS:          0 HIT:          0 MISS:          0
cpu0_ITLB RFO          ACCESS:          0 HIT:          0 MISS:          0
cpu0_ITLB PREFETCH     ACCESS:          0 HIT:          0 MISS:          0
cpu0_ITLB WRITE        ACCESS:          0 HIT:          0 MISS:          0
cpu0_ITLB TRANSLATION  ACCESS:          0 HIT:          0 MISS:          0
cpu0_ITLB PREFETCH REQUESTED:          0 ISSUED:          0 USEFUL:          0 USELESS:          0
cpu0_ITLB AVERAGE MISS LATENCY: 8.439 cycles
cpu0_L1D TOTAL        ACCESS:   49757815 HIT:   44865541 MISS:    4892274
cpu0_L1D LOAD         ACCESS:   22913868 HIT:   19860914 MISS:    3052954
cpu0_L1D RFO          ACCESS:          0 HIT:          0 MISS:          0
cpu0_L1D PREFETCH     ACCESS:          0 HIT:          0 MISS:          0
cpu0_L1D WRITE        ACCESS:   25952743 HIT:   24859476 MISS:    1093267
cpu0_L1D TRANSLATION  ACCESS:     891204 HIT:     145151 MISS:     746053
cpu0_L1D PREFETCH REQUESTED:          0 ISSUED:          0 USEFUL:          0 USELESS:          0
cpu0_L1D AVERAGE MISS LATENCY: 213.9 cycles
cpu0_L1D TOTAL        ACCESS:          0 HIT:          0 MISS:          0
cpu0_L1D LOAD         ACCESS:          0 HIT:          0 MISS:          0
cpu0_L1D RFO          ACCESS:          0 HIT:          0 MISS:          0
cpu0_L1D PREFETCH     ACCESS:          0 HIT:          0 MISS:          0
cpu0_L1D WRITE        ACCESS:          0 HIT:          0 MISS:          0
cpu0_L1D TRANSLATION  ACCESS:          0 HIT:          0 MISS:          0
cpu0_L1D PREFETCH REQUESTED:          0 ISSUED:          0 USEFUL:          0 USELESS:          0
cpu0_L1D AVERAGE MISS LATENCY: 213.9 cycles
cpu0_L1D TOTAL        ACCESS:          0 HIT:          0 MISS:          0
cpu0_L1D LOAD         ACCESS:          0 HIT:          0 MISS:          0
cpu0_L1D RFO          ACCESS:          0 HIT:          0 MISS:          0
cpu0_L1D PREFETCH     ACCESS:          0 HIT:          0 MISS:          0
cpu0_L1D WRITE        ACCESS:          0 HIT:          0 MISS:          0
cpu0_L1D TRANSLATION  ACCESS:          0 HIT:          0 MISS:          0
cpu0_L1D PREFETCH REQUESTED:          0 ISSUED:          0 USEFUL:          0 USELESS:          0
cpu0_L1D AVERAGE MISS LATENCY: 213.9 cycles
cpu0_L1D TOTAL        ACCESS:          0 HIT:          0 MISS:          0
cpu0_L1D LOAD         ACCESS:          0 HIT:          0 MISS:          0
cpu0_L1D RFO          ACCESS:          0 HIT:          0 MISS:          0
cpu0_L1D PREFETCH     ACCESS:          0 HIT:          0 MISS:          0
cpu0_L1D WRITE        ACCESS:          0 HIT:          0 MISS:          0
cpu0_L1D TRANSLATION  ACCESS:          0 HIT:          0 MISS:          0
cpu0_L1D PREFETCH REQUESTED:          0 ISSUED:          0 USEFUL:          0 USELESS:          0
cpu0_L1D AVERAGE MISS LATENCY: 213.9 cycles
cpu0_L1I TOTAL        ACCESS:   12864808 HIT:   12790735 MISS:      74073
cpu0_L1I LOAD         ACCESS:   12864808 HIT:   12790735 MISS:      74073
cpu0_L1I RFO          ACCESS:          0 HIT:          0 MISS:          0
cpu0_L1I PREFETCH     ACCESS:          0 HIT:          0 MISS:          0
cpu0_L1I WRITE        ACCESS:          0 HIT:          0 MISS:          0
cpu0_L1I TRANSLATION  ACCESS:          0 HIT:          0 MISS:          0
cpu0_L1I PREFETCH REQUESTED:          0 ISSUED:          0 USEFUL:          0 USELESS:          0
cpu0_L1I AVERAGE MISS LATENCY: 41.57 cycles
cpu0_L1I TOTAL        ACCESS:          0 HIT:          0 MISS:          0
cpu0_L1I LOAD         ACCESS:          0 HIT:          0 MISS:          0
cpu0_L1I RFO          ACCESS:          0 HIT:          0 MISS:          0
cpu0_L1I PREFETCH     ACCESS:          0 HIT:          0 MISS:          0
cpu0_L1I WRITE        ACCESS:          0 HIT:          0 MISS:          0
cpu0_L1I TRANSLATION  ACCESS:          0 HIT:          0 MISS:          0
cpu0_L1I PREFETCH REQUESTED:          0 ISSUED:          0 USEFUL:          0 USELESS:          0
cpu0_L1I AVERAGE MISS LATENCY: 41.57 cycles
cpu0_L1I TOTAL        ACCESS:          0 HIT:          0 MISS:          0
cpu0_L1I LOAD         ACCESS:          0 HIT:          0 MISS:          0
cpu0_L1I RFO          ACCESS:          0 HIT:          0 MISS:          0
cpu0_L1I PREFETCH     ACCESS:          0 HIT:          0 MISS:          0
cpu0_L1I WRITE        ACCESS:          0 HIT:          0 MISS:          0
cpu0_L1I TRANSLATION  ACCESS:          0 HIT:          0 MISS:          0
cpu0_L1I PREFETCH REQUESTED:          0 ISSUED:          0 USEFUL:          0 USELESS:          0
cpu0_L1I AVERAGE MISS LATENCY: 41.57 cycles
cpu0_L1I TOTAL        ACCESS:          0 HIT:          0 MISS:          0
cpu0_L1I LOAD         ACCESS:          0 HIT:          0 MISS:          0
cpu0_L1I RFO          ACCESS:          0 HIT:          0 MISS:          0
cpu0_L1I PREFETCH     ACCESS:          0 HIT:          0 MISS:          0
cpu0_L1I WRITE        ACCESS:          0 HIT:          0 MISS:          0
cpu0_L1I TRANSLATION  ACCESS:          0 HIT:          0 MISS:          0
cpu0_L1I PREFETCH REQUESTED:          0 ISSUED:          0 USEFUL:          0 USELESS:          0
cpu0_L1I AVERAGE MISS LATENCY: 41.57 cycles
cpu0_L2C TOTAL        ACCESS:    7233647 HIT:    3014090 MISS:    4219557
cpu0_L2C LOAD         ACCESS:    2539232 HIT:     854238 MISS:    1684994
cpu0_L2C RFO          ACCESS:     365691 HIT:     107708 MISS:     257983
cpu0_L2C PREFETCH     ACCESS:    2183990 HIT:     505897 MISS:    1678093
cpu0_L2C WRITE        ACCESS:    1399489 HIT:    1397369 MISS:       2120
cpu0_L2C TRANSLATION  ACCESS:     745245 HIT:     148878 MISS:     596367
cpu0_L2C PREFETCH REQUESTED:    2183995 ISSUED:    2183990 USEFUL:       2676 USELESS:       9287
cpu0_L2C AVERAGE MISS LATENCY: 247.1 cycles
cpu0_L2C TOTAL        ACCESS:          0 HIT:          0 MISS:          0
cpu0_L2C LOAD         ACCESS:          0 HIT:          0 MISS:          0
cpu0_L2C RFO          ACCESS:          0 HIT:          0 MISS:          0
cpu0_L2C PREFETCH     ACCESS:          0 HIT:          0 MISS:          0
cpu0_L2C WRITE        ACCESS:          0 HIT:          0 MISS:          0
cpu0_L2C TRANSLATION  ACCESS:          0 HIT:          0 MISS:          0
cpu0_L2C PREFETCH REQUESTED:    2183995 ISSUED:    2183990 USEFUL:       2676 USELESS:       9287
cpu0_L2C AVERAGE MISS LATENCY: 247.1 cycles
cpu0_L2C TOTAL        ACCESS:          0 HIT:          0 MISS:          0
cpu0_L2C LOAD         ACCESS:          0 HIT:          0 MISS:          0
cpu0_L2C RFO          ACCESS:          0 HIT:          0 MISS:          0
cpu0_L2C PREFETCH     ACCESS:          0 HIT:          0 MISS:          0
cpu0_L2C WRITE        ACCESS:          0 HIT:          0 MISS:          0
cpu0_L2C TRANSLATION  ACCESS:          0 HIT:          0 MISS:          0
cpu0_L2C PREFETCH REQUESTED:    2183995 ISSUED:    2183990 USEFUL:       2676 USELESS:       9287
cpu0_L2C AVERAGE MISS LATENCY: 247.1 cycles
cpu0_L2C TOTAL        ACCESS:          0 HIT:          0 MISS:          0
cpu0_L2C LOAD         ACCESS:          0 HIT:          0 MISS:          0
cpu0_L2C RFO          ACCESS:          0 HIT:          0 MISS:          0
cpu0_L2C PREFETCH     ACCESS:          0 HIT:          0 MISS:          0
cpu0_L2C WRITE        ACCESS:          0 HIT:          0 MISS:          0
cpu0_L2C TRANSLATION  ACCESS:          0 HIT:          0 MISS:          0
cpu0_L2C PREFETCH REQUESTED:    2183995 ISSUED:    2183990 USEFUL:       2676 USELESS:       9287
cpu0_L2C AVERAGE MISS LATENCY: 247.1 cycles
cpu0_STLB TOTAL        ACCESS:    3014696 HIT:    2372245 MISS:     642451
cpu0_STLB LOAD         ACCESS:    3014696 HIT:    2372245 MISS:     642451
cpu0_STLB RFO          ACCESS:          0 HIT:          0 MISS:          0
cpu0_STLB PREFETCH     ACCESS:          0 HIT:          0 MISS:          0
cpu0_STLB WRITE        ACCESS:          0 HIT:          0 MISS:          0
cpu0_STLB TRANSLATION  ACCESS:          0 HIT:          0 MISS:          0
cpu0_STLB PREFETCH REQUESTED:          0 ISSUED:          0 USEFUL:          0 USELESS:          0
cpu0_STLB AVERAGE MISS LATENCY: 468.5 cycles
cpu0_STLB TOTAL        ACCESS:          0 HIT:          0 MISS:          0
cpu0_STLB LOAD         ACCESS:          0 HIT:          0 MISS:          0
cpu0_STLB RFO          ACCESS:          0 HIT:          0 MISS:          0
cpu0_STLB PREFETCH     ACCESS:          0 HIT:          0 MISS:          0
cpu0_STLB WRITE        ACCESS:          0 HIT:          0 MISS:          0
cpu0_STLB TRANSLATION  ACCESS:          0 HIT:          0 MISS:          0
cpu0_STLB PREFETCH REQUESTED:          0 ISSUED:          0 USEFUL:          0 USELESS:          0
cpu0_STLB AVERAGE MISS LATENCY: 468.5 cycles
cpu0_STLB TOTAL        ACCESS:          0 HIT:          0 MISS:          0
cpu0_STLB LOAD         ACCESS:          0 HIT:          0 MISS:          0
cpu0_STLB RFO          ACCESS:          0 HIT:          0 MISS:          0
cpu0_STLB PREFETCH     ACCESS:          0 HIT:          0 MISS:          0
cpu0_STLB WRITE        ACCESS:          0 HIT:          0 MISS:          0
cpu0_STLB TRANSLATION  ACCESS:          0 HIT:          0 MISS:          0
cpu0_STLB PREFETCH REQUESTED:          0 ISSUED:          0 USEFUL:          0 USELESS:          0
cpu0_STLB AVERAGE MISS LATENCY: 468.5 cycles
cpu0_STLB TOTAL        ACCESS:          0 HIT:          0 MISS:          0
cpu0_STLB LOAD         ACCESS:          0 HIT:          0 MISS:          0
cpu0_STLB RFO          ACCESS:          0 HIT:          0 MISS:          0
cpu0_STLB PREFETCH     ACCESS:          0 HIT:          0 MISS:          0
cpu0_STLB WRITE        ACCESS:          0 HIT:          0 MISS:          0
cpu0_STLB TRANSLATION  ACCESS:          0 HIT:          0 MISS:          0
cpu0_STLB PREFETCH REQUESTED:          0 ISSUED:          0 USEFUL:          0 USELESS:          0
cpu0_STLB AVERAGE MISS LATENCY: 468.5 cycles
cpu1_DTLB TOTAL        ACCESS:          0 HIT:          0 MISS:          0
cpu1_DTLB LOAD         ACCESS:          0 HIT:          0 MISS:          0
cpu1_DTLB RFO          ACCESS:          0 HIT:          0 MISS:          0
cpu1_DTLB PREFETCH     ACCESS:          0 HIT:          0 MISS:          0
cpu1_DTLB WRITE        ACCESS:          0 HIT:          0 MISS:          0
cpu1_DTLB TRANSLATION  ACCESS:          0 HIT:          0 MISS:          0
cpu1_DTLB PREFETCH REQUESTED:          0 ISSUED:          0 USEFUL:          0 USELESS:          0
cpu1_DTLB AVERAGE MISS LATENCY: 7.337 cycles
cpu1_DTLB TOTAL        ACCESS:  125858285 HIT:   73535669 MISS:   52322616
cpu1_DTLB LOAD         ACCESS:  125858285 HIT:   73535669 MISS:   52322616
cpu1_DTLB RFO          ACCESS:          0 HIT:          0 MISS:          0
cpu1_DTLB PREFETCH     ACCESS:          0 HIT:          0 MISS:          0
cpu1_DTLB WRITE        ACCESS:          0 HIT:          0 MISS:          0
cpu1_DTLB TRANSLATION  ACCESS:          0 HIT:          0 MISS:          0
cpu1_DTLB PREFETCH REQUESTED:          0 ISSUED:          0 USEFUL:          0 USELESS:          0
cpu1_DTLB AVERAGE MISS LATENCY: 7.337 cycles
cpu1_DTLB TOTAL        ACCESS:          0 HIT:          0 MISS:          0
cpu1_DTLB LOAD         ACCESS:          0 HIT:          0 MISS:          0
cpu1_DTLB RFO          ACCESS:          0 HIT:          0 MISS:          0
cpu1_DTLB PREFETCH     ACCESS:          0 HIT:          0 MISS:          0
cpu1_DTLB WRITE        ACCESS:          0 HIT:          0 MISS:          0
cpu1_DTLB TRANSLATION  ACCESS:          0 HIT:          0 MISS:          0
cpu1_DTLB PREFETCH REQUESTED:          0 ISSUED:          0 USEFUL:          0 USELESS:          0
cpu1_DTLB AVERAGE MISS LATENCY: 7.337 cycles
cpu1_DTLB TOTAL        ACCESS:          0 HIT:          0 MISS:          0
cpu1_DTLB LOAD         ACCESS:          0 HIT:          0 MISS:          0
cpu1_DTLB RFO          ACCESS:          0 HIT:          0 MISS:          0
cpu1_DTLB PREFETCH     ACCESS:          0 HIT:          0 MISS:          0
cpu1_DTLB WRITE        ACCESS:          0 HIT:          0 MISS:          0
cpu1_DTLB TRANSLATION  ACCESS:          0 HIT:          0 MISS:          0
cpu1_DTLB PREFETCH REQUESTED:          0 ISSUED:          0 USEFUL:          0 USELESS:          0
cpu1_DTLB AVERAGE MISS LATENCY: 7.337 cycles
cpu1_ITLB TOTAL        ACCESS:          0 HIT:          0 MISS:          0
cpu1_ITLB LOAD         ACCESS:          0 HIT:          0 MISS:          0
cpu1_ITLB RFO          ACCESS:          0 HIT:          0 MISS:          0
cpu1_ITLB PREFETCH     ACCESS:          0 HIT:          0 MISS:          0
cpu1_ITLB WRITE        ACCESS:          0 HIT:          0 MISS:          0
cpu1_ITLB TRANSLATION  ACCESS:          0 HIT:          0 MISS:          0
cpu1_ITLB PREFETCH REQUESTED:          0 ISSUED:          0 USEFUL:          0 USELESS:          0
cpu1_ITLB AVERAGE MISS LATENCY: -nan cycles
cpu1_ITLB TOTAL        ACCESS:   78026187 HIT:   78026187 MISS:          0
cpu1_ITLB LOAD         ACCESS:   78026187 HIT:   78026187 MISS:          0
cpu1_ITLB RFO          ACCESS:          0 HIT:          0 MISS:          0
cpu1_ITLB PREFETCH     ACCESS:          0 HIT:          0 MISS:          0
cpu1_ITLB WRITE        ACCESS:          0 HIT:          0 MISS:          0
cpu1_ITLB TRANSLATION  ACCESS:          0 HIT:          0 MISS:          0
cpu1_ITLB PREFETCH REQUESTED:          0 ISSUED:          0 USEFUL:          0 USELESS:          0
cpu1_ITLB AVERAGE MISS LATENCY: -nan cycles
cpu1_ITLB TOTAL        ACCESS:          0 HIT:          0 MISS:          0
cpu1_ITLB LOAD         ACCESS:          0 HIT:          0 MISS:          0
cpu1_ITLB RFO          ACCESS:          0 HIT:          0 MISS:          0
cpu1_ITLB PREFETCH     ACCESS:          0 HIT:          0 MISS:          0
cpu1_ITLB WRITE        ACCESS:          0 HIT:          0 MISS:          0
cpu1_ITLB TRANSLATION  ACCESS:          0 HIT:          0 MISS:          0
cpu1_ITLB PREFETCH REQUESTED:          0 ISSUED:          0 USEFUL:          0 USELESS:          0
cpu1_ITLB AVERAGE MISS LATENCY: -nan cycles
cpu1_ITLB TOTAL        ACCESS:          0 HIT:          0 MISS:          0
cpu1_ITLB LOAD         ACCESS:          0 HIT:          0 MISS:          0
cpu1_ITLB RFO          ACCESS:          0 HIT:          0 MISS:          0
cpu1_ITLB PREFETCH     ACCESS:          0 HIT:          0 MISS:          0
cpu1_ITLB WRITE        ACCESS:          0 HIT:          0 MISS:          0
cpu1_ITLB TRANSLATION  ACCESS:          0 HIT:          0 MISS:          0
cpu1_ITLB PREFETCH REQUESTED:          0 ISSUED:          0 USEFUL:          0 USELESS:          0
cpu1_ITLB AVERAGE MISS LATENCY: -nan cycles
cpu1_L1D TOTAL        ACCESS:          0 HIT:          0 MISS:          0
cpu1_L1D LOAD         ACCESS:          0 HIT:          0 MISS:          0
cpu1_L1D RFO          ACCESS:          0 HIT:          0 MISS:          0
cpu1_L1D PREFETCH     ACCESS:          0 HIT:          0 MISS:          0
cpu1_L1D WRITE        ACCESS:          0 HIT:          0 MISS:          0
cpu1_L1D TRANSLATION  ACCESS:          0 HIT:          0 MISS:          0
cpu1_L1D PREFETCH REQUESTED:          0 ISSUED:          0 USEFUL:          0 USELESS:          0
cpu1_L1D AVERAGE MISS LATENCY: 55.53 cycles
cpu1_L1D TOTAL        ACCESS:  156403629 HIT:   86693195 MISS:   69710434
cpu1_L1D LOAD         ACCESS:   87826294 HIT:   21765602 MISS:   66060692
cpu1_L1D RFO          ACCESS:          0 HIT:          0 MISS:          0
cpu1_L1D PREFETCH     ACCESS:          0 HIT:          0 MISS:          0
cpu1_L1D WRITE        ACCESS:   68463885 HIT:   64926626 MISS:    3537259
cpu1_L1D TRANSLATION  ACCESS:     113450 HIT:        967 MISS:     112483
cpu1_L1D PREFETCH REQUESTED:          0 ISSUED:          0 USEFUL:          0 USELESS:          0
cpu1_L1D AVERAGE MISS LATENCY: 55.53 cycles
cpu1_L1D TOTAL        ACCESS:          0 HIT:          0 MISS:          0
cpu1_L1D LOAD         ACCESS:          0 HIT:          0 MISS:          0
cpu1_L1D RFO          ACCESS:          0 HIT:          0 MISS:          0
cpu1_L1D PREFETCH     ACCESS:          0 HIT:          0 MISS:          0
cpu1_L1D WRITE        ACCESS:          0 HIT:          0 MISS:          0
cpu1_L1D TRANSLATION  ACCESS:          0 HIT:          0 MISS:          0
cpu1_L1D PREFETCH REQUESTED:          0 ISSUED:          0 USEFUL:          0 USELESS:          0
cpu1_L1D AVERAGE MISS LATENCY: 55.53 cycles
cpu1_L1D TOTAL        ACCESS:          0 HIT:          0 MISS:          0
cpu1_L1D LOAD         ACCESS:          0 HIT:          0 MISS:          0
cpu1_L1D RFO          ACCESS:          0 HIT:          0 MISS:          0
cpu1_L1D PREFETCH     ACCESS:          0 HIT:          0 MISS:          0
cpu1_L1D WRITE        ACCESS:          0 HIT:          0 MISS:          0
cpu1_L1D TRANSLATION  ACCESS:          0 HIT:          0 MISS:          0
cpu1_L1D PREFETCH REQUESTED:          0 ISSUED:          0 USEFUL:          0 USELESS:          0
cpu1_L1D AVERAGE MISS LATENCY: 55.53 cycles
cpu1_L1I TOTAL        ACCESS:          0 HIT:          0 MISS:          0
cpu1_L1I LOAD         ACCESS:          0 HIT:          0 MISS:          0
cpu1_L1I RFO          ACCESS:          0 HIT:          0 MISS:          0
cpu1_L1I PREFETCH     ACCESS:          0 HIT:          0 MISS:          0
cpu1_L1I WRITE        ACCESS:          0 HIT:          0 MISS:          0
cpu1_L1I TRANSLATION  ACCESS:          0 HIT:          0 MISS:          0
cpu1_L1I PREFETCH REQUESTED:          0 ISSUED:          0 USEFUL:          0 USELESS:          0
cpu1_L1I AVERAGE MISS LATENCY: -nan cycles
cpu1_L1I TOTAL        ACCESS:  102354949 HIT:  102354949 MISS:          0
cpu1_L1I LOAD         ACCESS:  102354949 HIT:  102354949 MISS:          0
cpu1_L1I RFO          ACCESS:          0 HIT:          0 MISS:          0
cpu1_L1I PREFETCH     ACCESS:          0 HIT:          0 MISS:          0
cpu1_L1I WRITE        ACCESS:          0 HIT:          0 MISS:          0
cpu1_L1I TRANSLATION  ACCESS:          0 HIT:          0 MISS:          0
cpu1_L1I PREFETCH REQUESTED:          0 ISSUED:          0 USEFUL:          0 USELESS:          0
cpu1_L1I AVERAGE MISS LATENCY: -nan cycles
cpu1_L1I TOTAL        ACCESS:          0 HIT:          0 MISS:          0
cpu1_L1I LOAD         ACCESS:          0 HIT:          0 MISS:          0
cpu1_L1I RFO          ACCESS:          0 HIT:          0 MISS:          0
cpu1_L1I PREFETCH     ACCESS:          0 HIT:          0 MISS:          0
cpu1_L1I WRITE        ACCESS:          0 HIT:          0 MISS:          0
cpu1_L1I TRANSLATION  ACCESS:          0 HIT:          0 MISS:          0
cpu1_L1I PREFETCH REQUESTED:          0 ISSUED:          0 USEFUL:          0 USELESS:          0
cpu1_L1I AVERAGE MISS LATENCY: -nan cycles
cpu1_L1I TOTAL        ACCESS:          0 HIT:          0 MISS:          0
cpu1_L1I LOAD         ACCESS:          0 HIT:          0 MISS:          0
cpu1_L1I RFO          ACCESS:          0 HIT:          0 MISS:          0
cpu1_L1I PREFETCH     ACCESS:          0 HIT:          0 MISS:          0
cpu1_L1I WRITE        ACCESS:          0 HIT:          0 MISS:          0
cpu1_L1I TRANSLATION  ACCESS:          0 HIT:          0 MISS:          0
cpu1_L1I PREFETCH REQUESTED:          0 ISSUED:          0 USEFUL:          0 USELESS:          0
cpu1_L1I AVERAGE MISS LATENCY: -nan cycles
cpu1_L2C TOTAL        ACCESS:          0 HIT:          0 MISS:          0
cpu1_L2C LOAD         ACCESS:          0 HIT:          0 MISS:          0
cpu1_L2C RFO          ACCESS:          0 HIT:          0 MISS:          0
cpu1_L2C PREFETCH     ACCESS:          0 HIT:          0 MISS:          0
cpu1_L2C WRITE        ACCESS:          0 HIT:          0 MISS:          0
cpu1_L2C TRANSLATION  ACCESS:          0 HIT:          0 MISS:          0
cpu1_L2C PREFETCH REQUESTED:   39979717 ISSUED:   39976709 USEFUL:      46475 USELESS:       8374
cpu1_L2C AVERAGE MISS LATENCY: 155.8 cycles
cpu1_L2C TOTAL        ACCESS:  113161076 HIT:   92705756 MISS:   20455320
cpu1_L2C LOAD         ACCESS:   65253107 HIT:   59481809 MISS:    5771298
cpu1_L2C RFO          ACCESS:    2629619 HIT:    2618855 MISS:      10764
cpu1_L2C PREFETCH     ACCESS:   39976709 HIT:   25394677 MISS:   14582032
cpu1_L2C WRITE        ACCESS:    5189244 HIT:    5189244 MISS:          0
cpu1_L2C TRANSLATION  ACCESS:     112397 HIT:      21171 MISS:      91226
cpu1_L2C PREFETCH REQUESTED:   39979717 ISSUED:   39976709 USEFUL:      46475 USELESS:       8374
cpu1_L2C AVERAGE MISS LATENCY: 155.8 cycles
cpu1_L2C TOTAL        ACCESS:          0 HIT:          0 MISS:          0
cpu1_L2C LOAD         ACCESS:          0 HIT:          0 MISS:          0
cpu1_L2C RFO          ACCESS:          0 HIT:          0 MISS:          0
cpu1_L2C PREFETCH     ACCESS:          0 HIT:          0 MISS:          0
cpu1_L2C WRITE        ACCESS:          0 HIT:          0 MISS:          0
cpu1_L2C TRANSLATION  ACCESS:          0 HIT:          0 MISS:          0
cpu1_L2C PREFETCH REQUESTED:   39979717 ISSUED:   39976709 USEFUL:      46475 USELESS:       8374
cpu1_L2C AVERAGE MISS LATENCY: 155.8 cycles
cpu1_L2C TOTAL        ACCESS:          0 HIT:          0 MISS:          0
cpu1_L2C LOAD         ACCESS:          0 HIT:          0 MISS:          0
cpu1_L2C RFO          ACCESS:          0 HIT:          0 MISS:          0
cpu1_L2C PREFETCH     ACCESS:          0 HIT:          0 MISS:          0
cpu1_L2C WRITE        ACCESS:          0 HIT:          0 MISS:          0
cpu1_L2C TRANSLATION  ACCESS:          0 HIT:          0 MISS:          0
cpu1_L2C PREFETCH REQUESTED:   39979717 ISSUED:   39976709 USEFUL:      46475 USELESS:       8374
cpu1_L2C AVERAGE MISS LATENCY: 155.8 cycles
cpu1_STLB TOTAL        ACCESS:          0 HIT:          0 MISS:          0
cpu1_STLB LOAD         ACCESS:          0 HIT:          0 MISS:          0
cpu1_STLB RFO          ACCESS:          0 HIT:          0 MISS:          0
cpu1_STLB PREFETCH     ACCESS:          0 HIT:          0 MISS:          0
cpu1_STLB WRITE        ACCESS:          0 HIT:          0 MISS:          0
cpu1_STLB TRANSLATION  ACCESS:          0 HIT:          0 MISS:          0
cpu1_STLB PREFETCH REQUESTED:          0 ISSUED:          0 USEFUL:          0 USELESS:          0
cpu1_STLB AVERAGE MISS LATENCY: 820.4 cycles
cpu1_STLB TOTAL        ACCESS:   45216280 HIT:   45143330 MISS:      72950
cpu1_STLB LOAD         ACCESS:   45216280 HIT:   45143330 MISS:      72950
cpu1_STLB RFO          ACCESS:          0 HIT:          0 MISS:          0
cpu1_STLB PREFETCH     ACCESS:          0 HIT:          0 MISS:          0
cpu1_STLB WRITE        ACCESS:          0 HIT:          0 MISS:          0
cpu1_STLB TRANSLATION  ACCESS:          0 HIT:          0 MISS:          0
cpu1_STLB PREFETCH REQUESTED:          0 ISSUED:          0 USEFUL:          0 USELESS:          0
cpu1_STLB AVERAGE MISS LATENCY: 820.4 cycles
cpu1_STLB TOTAL        ACCESS:          0 HIT:          0 MISS:          0
cpu1_STLB LOAD         ACCESS:          0 HIT:          0 MISS:          0
cpu1_STLB RFO          ACCESS:          0 HIT:          0 MISS:          0
cpu1_STLB PREFETCH     ACCESS:          0 HIT:          0 MISS:          0
cpu1_STLB WRITE        ACCESS:          0 HIT:          0 MISS:          0
cpu1_STLB TRANSLATION  ACCESS:          0 HIT:          0 MISS:          0
cpu1_STLB PREFETCH REQUESTED:          0 ISSUED:          0 USEFUL:          0 USELESS:          0
cpu1_STLB AVERAGE MISS LATENCY: 820.4 cycles
cpu1_STLB TOTAL        ACCESS:          0 HIT:          0 MISS:          0
cpu1_STLB LOAD         ACCESS:          0 HIT:          0 MISS:          0
cpu1_STLB RFO          ACCESS:          0 HIT:          0 MISS:          0
cpu1_STLB PREFETCH     ACCESS:          0 HIT:          0 MISS:          0
cpu1_STLB WRITE        ACCESS:          0 HIT:          0 MISS:          0
cpu1_STLB TRANSLATION  ACCESS:          0 HIT:          0 MISS:          0
cpu1_STLB PREFETCH REQUESTED:          0 ISSUED:          0 USEFUL:          0 USELESS:          0
cpu1_STLB AVERAGE MISS LATENCY: 820.4 cycles
cpu2_DTLB TOTAL        ACCESS:          0 HIT:          0 MISS:          0
cpu2_DTLB LOAD         ACCESS:          0 HIT:          0 MISS:          0
cpu2_DTLB RFO          ACCESS:          0 HIT:          0 MISS:          0
cpu2_DTLB PREFETCH     ACCESS:          0 HIT:          0 MISS:          0
cpu2_DTLB WRITE        ACCESS:          0 HIT:          0 MISS:          0
cpu2_DTLB TRANSLATION  ACCESS:          0 HIT:          0 MISS:          0
cpu2_DTLB PREFETCH REQUESTED:          0 ISSUED:          0 USEFUL:          0 USELESS:          0
cpu2_DTLB AVERAGE MISS LATENCY: 7.284 cycles
cpu2_DTLB TOTAL        ACCESS:          0 HIT:          0 MISS:          0
cpu2_DTLB LOAD         ACCESS:          0 HIT:          0 MISS:          0
cpu2_DTLB RFO          ACCESS:          0 HIT:          0 MISS:          0
cpu2_DTLB PREFETCH     ACCESS:          0 HIT:          0 MISS:          0
cpu2_DTLB WRITE        ACCESS:          0 HIT:          0 MISS:          0
cpu2_DTLB TRANSLATION  ACCESS:          0 HIT:          0 MISS:          0
cpu2_DTLB PREFETCH REQUESTED:          0 ISSUED:          0 USEFUL:          0 USELESS:          0
cpu2_DTLB AVERAGE MISS LATENCY: 7.284 cycles
cpu2_DTLB TOTAL        ACCESS:  132131487 HIT:  108205545 MISS:   23925942
cpu2_DTLB LOAD         ACCESS:  132131487 HIT:  108205545 MISS:   23925942
cpu2_DTLB RFO          ACCESS:          0 HIT:          0 MISS:          0
cpu2_DTLB PREFETCH     ACCESS:          0 HIT:          0 MISS:          0
cpu2_DTLB WRITE        ACCESS:          0 HIT:          0 MISS:          0
cpu2_DTLB TRANSLATION  ACCESS:          0 HIT:          0 MISS:          0
cpu2_DTLB PREFETCH REQUESTED:          0 ISSUED:          0 USEFUL:          0 USELESS:          0
cpu2_DTLB AVERAGE MISS LATENCY: 7.284 cycles
cpu2_DTLB TOTAL        ACCESS:          0 HIT:          0 MISS:          0
cpu2_DTLB LOAD         ACCESS:          0 HIT:          0 MISS:          0
cpu2_DTLB RFO          ACCESS:          0 HIT:          0 MISS:          0
cpu2_DTLB PREFETCH     ACCESS:          0 HIT:          0 MISS:          0
cpu2_DTLB WRITE        ACCESS:          0 HIT:          0 MISS:          0
cpu2_DTLB TRANSLATION  ACCESS:          0 HIT:          0 MISS:          0
cpu2_DTLB PREFETCH REQUESTED:          0 ISSUED:          0 USEFUL:          0 USELESS:          0
cpu2_DTLB AVERAGE MISS LATENCY: 7.284 cycles
cpu2_ITLB TOTAL        ACCESS:          0 HIT:          0 MISS:          0
cpu2_ITLB LOAD         ACCESS:          0 HIT:          0 MISS:          0
cpu2_ITLB RFO          ACCESS:          0 HIT:          0 MISS:          0
cpu2_ITLB PREFETCH     ACCESS:          0 HIT:          0 MISS:          0
cpu2_ITLB WRITE        ACCESS:          0 HIT:          0 MISS:          0
cpu2_ITLB TRANSLATION  ACCESS:          0 HIT:          0 MISS:          0
cpu2_ITLB PREFETCH REQUESTED:          0 ISSUED:          0 USEFUL:          0 USELESS:          0
cpu2_ITLB AVERAGE MISS LATENCY: 5.5 cycles
cpu2_ITLB TOTAL        ACCESS:          0 HIT:          0 MISS:          0
cpu2_ITLB LOAD         ACCESS:          0 HIT:          0 MISS:          0
cpu2_ITLB RFO          ACCESS:          0 HIT:          0 MISS:          0
cpu2_ITLB PREFETCH     ACCESS:          0 HIT:          0 MISS:          0
cpu2_ITLB WRITE        ACCESS:          0 HIT:          0 MISS:          0
cpu2_ITLB TRANSLATION  ACCESS:          0 HIT:          0 MISS:          0
cpu2_ITLB PREFETCH REQUESTED:          0 ISSUED:          0 USEFUL:          0 USELESS:          0
cpu2_ITLB AVERAGE MISS LATENCY: 5.5 cycles
cpu2_ITLB TOTAL        ACCESS:   20240241 HIT:   19783184 MISS:     457057
cpu2_ITLB LOAD         ACCESS:   20240241 HIT:   19783184 MISS:     457057
cpu2_ITLB RFO          ACCESS:          0 HIT:          0 MISS:          0
cpu2_ITLB PREFETCH     ACCESS:          0 HIT:          0 MISS:          0
cpu2_ITLB WRITE        ACCESS:          0 HIT:          0 MISS:          0
cpu2_ITLB TRANSLATION  ACCESS:          0 HIT:          0 MISS:          0
cpu2_ITLB PREFETCH REQUESTED:          0 ISSUED:          0 USEFUL:          0 USELESS:          0
cpu2_ITLB AVERAGE MISS LATENCY: 5.5 cycles
cpu2_ITLB TOTAL        ACCESS:          0 HIT:          0 MISS:          0
cpu2_ITLB LOAD         ACCESS:          0 HIT:          0 MISS:          0
cpu2_ITLB RFO          ACCESS:          0 HIT:          0 MISS:          0
cpu2_ITLB PREFETCH     ACCESS:          0 HIT:          0 MISS:          0
cpu2_ITLB WRITE        ACCESS:          0 HIT:          0 MISS:          0
cpu2_ITLB TRANSLATION  ACCESS:          0 HIT:          0 MISS:          0
cpu2_ITLB PREFETCH REQUESTED:          0 ISSUED:          0 USEFUL:          0 USELESS:          0
cpu2_ITLB AVERAGE MISS LATENCY: 5.5 cycles
cpu2_L1D TOTAL        ACCESS:          0 HIT:          0 MISS:          0
cpu2_L1D LOAD         ACCESS:          0 HIT:          0 MISS:          0
cpu2_L1D RFO          ACCESS:          0 HIT:          0 MISS:          0
cpu2_L1D PREFETCH     ACCESS:          0 HIT:          0 MISS:          0
cpu2_L1D WRITE        ACCESS:          0 HIT:          0 MISS:          0
cpu2_L1D TRANSLATION  ACCESS:          0 HIT:          0 MISS:          0
cpu2_L1D PREFETCH REQUESTED:          0 ISSUED:          0 USEFUL:          0 USELESS:          0
cpu2_L1D AVERAGE MISS LATENCY: 28.1 cycles
cpu2_L1D TOTAL        ACCESS:          0 HIT:          0 MISS:          0
cpu2_L1D LOAD         ACCESS:          0 HIT:          0 MISS:          0
cpu2_L1D RFO          ACCESS:          0 HIT:          0 MISS:          0
cpu2_L1D PREFETCH     ACCESS:          0 HIT:          0 MISS:          0
cpu2_L1D WRITE        ACCESS:          0 HIT:          0 MISS:          0
cpu2_L1D TRANSLATION  ACCESS:          0 HIT:          0 MISS:          0
cpu2_L1D PREFETCH REQUESTED:          0 ISSUED:          0 USEFUL:          0 USELESS:          0
cpu2_L1D AVERAGE MISS LATENCY: 28.1 cycles
cpu2_L1D TOTAL        ACCESS:  166674638 HIT:  122545993 MISS:   44128645
cpu2_L1D LOAD         ACCESS:  121627674 HIT:   82567550 MISS:   39060124
cpu2_L1D RFO          ACCESS:          0 HIT:          0 MISS:          0
cpu2_L1D PREFETCH     ACCESS:          0 HIT:          0 MISS:          0
cpu2_L1D WRITE        ACCESS:   44031614 HIT:   39934278 MISS:    4097336
cpu2_L1D TRANSLATION  ACCESS:    1015350 HIT:      44165 MISS:     971185
cpu2_L1D PREFETCH REQUESTED:          0 ISSUED:          0 USEFUL:          0 USELESS:          0
cpu2_L1D AVERAGE MISS LATENCY: 28.1 cycles
cpu2_L1D TOTAL        ACCESS:          0 HIT:          0 MISS:          0
cpu2_L1D LOAD         ACCESS:          0 HIT:          0 MISS:          0
cpu2_L1D RFO          ACCESS:          0 HIT:          0 MISS:          0
cpu2_L1D PREFETCH     ACCESS:          0 HIT:          0 MISS:          0
cpu2_L1D WRITE        ACCESS:          0 HIT:          0 MISS:          0
cpu2_L1D TRANSLATION  ACCESS:          0 HIT:          0 MISS:          0
cpu2_L1D PREFETCH REQUESTED:          0 ISSUED:          0 USEFUL:          0 USELESS:          0
cpu2_L1D AVERAGE MISS LATENCY: 28.1 cycles
cpu2_L1I TOTAL        ACCESS:          0 HIT:          0 MISS:          0
cpu2_L1I LOAD         ACCESS:          0 HIT:          0 MISS:          0
cpu2_L1I RFO          ACCESS:          0 HIT:          0 MISS:          0
cpu2_L1I PREFETCH     ACCESS:          0 HIT:          0 MISS:          0
cpu2_L1I WRITE        ACCESS:          0 HIT:          0 MISS:          0
cpu2_L1I TRANSLATION  ACCESS:          0 HIT:          0 MISS:          0
cpu2_L1I PREFETCH REQUESTED:          0 ISSUED:          0 USEFUL:          0 USELESS:          0
cpu2_L1I AVERAGE MISS LATENCY: 11.77 cycles
cpu2_L1I TOTAL        ACCESS:          0 HIT:          0 MISS:          0
cpu2_L1I LOAD         ACCESS:          0 HIT:          0 MISS:          0
cpu2_L1I RFO          ACCESS:          0 HIT:          0 MISS:          0
cpu2_L1I PREFETCH     ACCESS:          0 HIT:          0 MISS:          0
cpu2_L1I WRITE        ACCESS:          0 HIT:          0 MISS:          0
cpu2_L1I TRANSLATION  ACCESS:          0 HIT:          0 MISS:          0
cpu2_L1I PREFETCH REQUESTED:          0 ISSUED:          0 USEFUL:          0 USELESS:          0
cpu2_L1I AVERAGE MISS LATENCY: 11.77 cycles
cpu2_L1I TOTAL        ACCESS:   24136105 HIT:   22028175 MISS:    2107930
cpu2_L1I LOAD         ACCESS:   24136105 HIT:   22028175 MISS:    2107930
cpu2_L1I RFO          ACCESS:          0 HIT:          0 MISS:          0
cpu2_L1I PREFETCH     ACCESS:          0 HIT:          0 MISS:          0
cpu2_L1I WRITE        ACCESS:          0 HIT:          0 MISS:          0
cpu2_L1I TRANSLATION  ACCESS:          0 HIT:          0 MISS:          0
cpu2_L1I PREFETCH REQUESTED:          0 ISSUED:          0 USEFUL:          0 USELESS:          0
cpu2_L1I AVERAGE MISS LATENCY: 11.77 cycles
cpu2_L1I TOTAL        ACCESS:          0 HIT:          0 MISS:          0
cpu2_L1I LOAD         ACCESS:          0 HIT:          0 MISS:          0
cpu2_L1I RFO          ACCESS:          0 HIT:          0 MISS:          0
cpu2_L1I PREFETCH     ACCESS:          0 HIT:          0 MISS:          0
cpu2_L1I WRITE        ACCESS:          0 HIT:          0 MISS:          0
cpu2_L1I TRANSLATION  ACCESS:          0 HIT:          0 MISS:          0
cpu2_L1I PREFETCH REQUESTED:          0 ISSUED:          0 USEFUL:          0 USELESS:          0
cpu2_L1I AVERAGE MISS LATENCY: 11.77 cycles
cpu2_L2C TOTAL        ACCESS:          0 HIT:          0 MISS:          0
cpu2_L2C LOAD         ACCESS:          0 HIT:          0 MISS:          0
cpu2_L2C RFO          ACCESS:          0 HIT:          0 MISS:          0
cpu2_L2C PREFETCH     ACCESS:          0 HIT:          0 MISS:          0
cpu2_L2C WRITE        ACCESS:          0 HIT:          0 MISS:          0
cpu2_L2C TRANSLATION  ACCESS:          0 HIT:          0 MISS:          0
cpu2_L2C PREFETCH REQUESTED:   29324044 ISSUED:   29217875 USEFUL:      15257 USELESS:      14202
cpu2_L2C AVERAGE MISS LATENCY: 78.33 cycles
cpu2_L2C TOTAL        ACCESS:          0 HIT:          0 MISS:          0
cpu2_L2C LOAD         ACCESS:          0 HIT:          0 MISS:          0
cpu2_L2C RFO          ACCESS:          0 HIT:          0 MISS:          0
cpu2_L2C PREFETCH     ACCESS:          0 HIT:          0 MISS:          0
cpu2_L2C WRITE        ACCESS:          0 HIT:          0 MISS:          0
cpu2_L2C TRANSLATION  ACCESS:          0 HIT:          0 MISS:          0
cpu2_L2C PREFETCH REQUESTED:   29324044 ISSUED:   29217875 USEFUL:      15257 USELESS:      14202
[...]
cpu2_L1I PREFETCH REQUESTED:          0 ISSUED:          0 USEFUL:          0 USELESS:          0
cpu2_L1I AVERAGE MISS LATENCY: 11.77 cycles
cpu2_L1I TOTAL        ACCESS:          0 HIT:          0 MISS:          0
cpu2_L1I LOAD         ACCESS:          0 HIT:          0 MISS:          0
cpu2_L1I RFO          ACCESS:          0 HIT:          0 MISS:          0
cpu2_L1I PREFETCH     ACCESS:          0 HIT:          0 MISS:          0
cpu2_L1I WRITE        ACCESS:          0 HIT:          0 MISS:          0
cpu2_L1I TRANSLATION  ACCESS:          0 HIT:          0 MISS:          0
cpu2_L1I PREFETCH REQUESTED:          0 ISSUED:          0 USEFUL:          0 USELESS:          0
cpu2_L1I AVERAGE MISS LATENCY: 11.77 cycles
cpu2_L2C TOTAL        ACCESS:          0 HIT:          0 MISS:          0
cpu2_L2C LOAD         ACCESS:          0 HIT:          0 MISS:          0
cpu2_L2C RFO          ACCESS:          0 HIT:          0 MISS:          0
cpu2_L2C PREFETCH     ACCESS:          0 HIT:          0 MISS:          0
cpu2_L2C WRITE        ACCESS:          0 HIT:          0 MISS:          0
cpu2_L2C TRANSLATION  ACCESS:          0 HIT:          0 MISS:          0
cpu2_L2C PREFETCH REQUESTED:   29324044 ISSUED:   29217875 USEFUL:      15257 USELESS:      14202
cpu2_L2C AVERAGE MISS LATENCY: 78.33 cycles
cpu2_L2C TOTAL        ACCESS:          0 HIT:          0 MISS:          0
cpu2_L2C LOAD         ACCESS:          0 HIT:          0 MISS:          0
cpu2_L2C RFO          ACCESS:          0 HIT:          0 MISS:          0
cpu2_L2C PREFETCH     ACCESS:          0 HIT:          0 MISS:          0
cpu2_L2C WRITE        ACCESS:          0 HIT:          0 MISS:          0
cpu2_L2C TRANSLATION  ACCESS:          0 HIT:          0 MISS:          0
cpu2_L2C PREFETCH REQUESTED:   29324044 ISSUED:   29217875 USEFUL:      15257 USELESS:      14202
cpu2_L2C AVERAGE MISS LATENCY: 78.33 cycles
cpu2_L2C TOTAL        ACCESS:   15565066 HIT:   12540370 MISS:    3024696
cpu2_L2C LOAD         ACCESS:    7781687 HIT:    7509614 MISS:     272073
cpu2_L2C RFO          ACCESS:     204279 HIT:      39011 MISS:     165268
cpu2_L2C PREFETCH     ACCESS:    6984852 HIT:    4428624 MISS:    2556228
cpu2_L2C WRITE        ACCESS:     336450 HIT:     336440 MISS:         10
cpu2_L2C TRANSLATION  ACCESS:     257798 HIT:     226681 MISS:      31117
cpu2_L2C PREFETCH REQUESTED:   29324044 ISSUED:   29217875 USEFUL:      15257 USELESS:      14202
cpu2_L2C AVERAGE MISS LATENCY: 78.33 cycles
cpu2_L2C TOTAL        ACCESS:          0 HIT:          0 MISS:          0
cpu2_L2C LOAD         ACCESS:          0 HIT:          0 MISS:          0
cpu2_L2C RFO          ACCESS:          0 HIT:          0 MISS:          0
cpu2_L2C PREFETCH     ACCESS:          0 HIT:          0 MISS:          0
cpu2_L2C WRITE        ACCESS:          0 HIT:          0 MISS:          0
cpu2_L2C TRANSLATION  ACCESS:          0 HIT:          0 MISS:          0
cpu2_L2C PREFETCH REQUESTED:   29324044 ISSUED:   29217875 USEFUL:      15257 USELESS:      14202
cpu2_L2C AVERAGE MISS LATENCY: 78.33 cycles
cpu2_STLB TOTAL        ACCESS:          0 HIT:          0 MISS:          0
cpu2_STLB LOAD         ACCESS:          0 HIT:          0 MISS:          0
cpu2_STLB RFO          ACCESS:          0 HIT:          0 MISS:          0
cpu2_STLB PREFETCH     ACCESS:          0 HIT:          0 MISS:          0
cpu2_STLB WRITE        ACCESS:          0 HIT:          0 MISS:          0
cpu2_STLB TRANSLATION  ACCESS:          0 HIT:          0 MISS:          0
cpu2_STLB PREFETCH REQUESTED:          0 ISSUED:          0 USEFUL:          0 USELESS:          0
cpu2_STLB AVERAGE MISS LATENCY: 63.93 cycles
cpu2_STLB TOTAL        ACCESS:          0 HIT:          0 MISS:          0
cpu2_STLB LOAD         ACCESS:          0 HIT:          0 MISS:          0
cpu2_STLB RFO          ACCESS:          0 HIT:          0 MISS:          0
cpu2_STLB PREFETCH     ACCESS:          0 HIT:          0 MISS:          0
cpu2_STLB WRITE        ACCESS:          0 HIT:          0 MISS:          0
cpu2_STLB TRANSLATION  ACCESS:          0 HIT:          0 MISS:          0
cpu2_STLB PREFETCH REQUESTED:          0 ISSUED:          0 USEFUL:          0 USELESS:          0
cpu2_STLB AVERAGE MISS LATENCY: 63.93 cycles
cpu2_STLB TOTAL        ACCESS:    4511006 HIT:    4241984 MISS:     269022
cpu2_STLB LOAD         ACCESS:    4511006 HIT:    4241984 MISS:     269022
cpu2_STLB RFO          ACCESS:          0 HIT:          0 MISS:          0
cpu2_STLB PREFETCH     ACCESS:          0 HIT:          0 MISS:          0
cpu2_STLB WRITE        ACCESS:          0 HIT:          0 MISS:          0
cpu2_STLB TRANSLATION  ACCESS:          0 HIT:          0 MISS:          0
cpu2_STLB PREFETCH REQUESTED:          0 ISSUED:          0 USEFUL:          0 USELESS:          0
cpu2_STLB AVERAGE MISS LATENCY: 63.93 cycles
cpu2_STLB TOTAL        ACCESS:          0 HIT:          0 MISS:          0
cpu2_STLB LOAD         ACCESS:          0 HIT:          0 MISS:          0
cpu2_STLB RFO          ACCESS:          0 HIT:          0 MISS:          0
cpu2_STLB PREFETCH     ACCESS:          0 HIT:          0 MISS:          0
cpu2_STLB WRITE        ACCESS:          0 HIT:          0 MISS:          0
cpu2_STLB TRANSLATION  ACCESS:          0 HIT:          0 MISS:          0
cpu2_STLB PREFETCH REQUESTED:          0 ISSUED:          0 USEFUL:          0 USELESS:          0
cpu2_STLB AVERAGE MISS LATENCY: 63.93 cycles
cpu3_DTLB TOTAL        ACCESS:          0 HIT:          0 MISS:          0
cpu3_DTLB LOAD         ACCESS:          0 HIT:          0 MISS:          0
cpu3_DTLB RFO          ACCESS:          0 HIT:          0 MISS:          0
cpu3_DTLB PREFETCH     ACCESS:          0 HIT:          0 MISS:          0
cpu3_DTLB WRITE        ACCESS:          0 HIT:          0 MISS:          0
cpu3_DTLB TRANSLATION  ACCESS:          0 HIT:          0 MISS:          0
cpu3_DTLB PREFETCH REQUESTED:          0 ISSUED:          0 USEFUL:          0 USELESS:          0
cpu3_DTLB AVERAGE MISS LATENCY: 8.839 cycles
cpu3_DTLB TOTAL        ACCESS:          0 HIT:          0 MISS:          0
cpu3_DTLB LOAD         ACCESS:          0 HIT:          0 MISS:          0
cpu3_DTLB RFO          ACCESS:          0 HIT:          0 MISS:          0
cpu3_DTLB PREFETCH     ACCESS:          0 HIT:          0 MISS:          0
cpu3_DTLB WRITE        ACCESS:          0 HIT:          0 MISS:          0
cpu3_DTLB TRANSLATION  ACCESS:          0 HIT:          0 MISS:          0
cpu3_DTLB PREFETCH REQUESTED:          0 ISSUED:          0 USEFUL:          0 USELESS:          0
cpu3_DTLB AVERAGE MISS LATENCY: 8.839 cycles
cpu3_DTLB TOTAL        ACCESS:          0 HIT:          0 MISS:          0
cpu3_DTLB LOAD         ACCESS:          0 HIT:          0 MISS:          0
cpu3_DTLB RFO          ACCESS:          0 HIT:          0 MISS:          0
cpu3_DTLB PREFETCH     ACCESS:          0 HIT:          0 MISS:          0
cpu3_DTLB WRITE        ACCESS:          0 HIT:          0 MISS:          0
cpu3_DTLB TRANSLATION  ACCESS:          0 HIT:          0 MISS:          0
cpu3_DTLB PREFETCH REQUESTED:          0 ISSUED:          0 USEFUL:          0 USELESS:          0
cpu3_DTLB AVERAGE MISS LATENCY: 8.839 cycles
cpu3_DTLB TOTAL        ACCESS:   17701213 HIT:   17690793 MISS:      10420
cpu3_DTLB LOAD         ACCESS:   17701213 HIT:   17690793 MISS:      10420
cpu3_DTLB RFO          ACCESS:          0 HIT:          0 MISS:          0
cpu3_DTLB PREFETCH     ACCESS:          0 HIT:          0 MISS:          0
cpu3_DTLB WRITE        ACCESS:          0 HIT:          0 MISS:          0
cpu3_DTLB TRANSLATION  ACCESS:          0 HIT:          0 MISS:          0
cpu3_DTLB PREFETCH REQUESTED:          0 ISSUED:          0 USEFUL:          0 USELESS:          0
cpu3_DTLB AVERAGE MISS LATENCY: 8.839 cycles
cpu3_ITLB TOTAL        ACCESS:          0 HIT:          0 MISS:          0
cpu3_ITLB LOAD         ACCESS:          0 HIT:          0 MISS:          0
cpu3_ITLB RFO          ACCESS:          0 HIT:          0 MISS:          0
cpu3_ITLB PREFETCH     ACCESS:          0 HIT:          0 MISS:          0
cpu3_ITLB WRITE        ACCESS:          0 HIT:          0 MISS:          0
cpu3_ITLB TRANSLATION  ACCESS:          0 HIT:          0 MISS:          0
cpu3_ITLB PREFETCH REQUESTED:          0 ISSUED:          0 USEFUL:          0 USELESS:          0
cpu3_ITLB AVERAGE MISS LATENCY: 249.7 cycles
cpu3_ITLB TOTAL        ACCESS:          0 HIT:          0 MISS:          0
cpu3_ITLB LOAD         ACCESS:          0 HIT:          0 MISS:          0
cpu3_ITLB RFO          ACCESS:          0 HIT:          0 MISS:          0
cpu3_ITLB PREFETCH     ACCESS:          0 HIT:          0 MISS:          0
cpu3_ITLB WRITE        ACCESS:          0 HIT:          0 MISS:          0
cpu3_ITLB TRANSLATION  ACCESS:          0 HIT:          0 MISS:          0
cpu3_ITLB PREFETCH REQUESTED:          0 ISSUED:          0 USEFUL:          0 USELESS:          0
cpu3_ITLB AVERAGE MISS LATENCY: 249.7 cycles
cpu3_ITLB TOTAL        ACCESS:          0 HIT:          0 MISS:          0
cpu3_ITLB LOAD         ACCESS:          0 HIT:          0 MISS:          0
cpu3_ITLB RFO          ACCESS:          0 HIT:          0 MISS:          0
cpu3_ITLB PREFETCH     ACCESS:          0 HIT:          0 MISS:          0
cpu3_ITLB WRITE        ACCESS:          0 HIT:          0 MISS:          0
cpu3_ITLB TRANSLATION  ACCESS:          0 HIT:          0 MISS:          0
cpu3_ITLB PREFETCH REQUESTED:          0 ISSUED:          0 USEFUL:          0 USELESS:          0
cpu3_ITLB AVERAGE MISS LATENCY: 249.7 cycles
cpu3_ITLB TOTAL        ACCESS:     512885 HIT:     512885 MISS:          0
cpu3_ITLB LOAD         ACCESS:     512885 HIT:     512885 MISS:          0
cpu3_ITLB RFO          ACCESS:          0 HIT:          0 MISS:          0
cpu3_ITLB PREFETCH     ACCESS:          0 HIT:          0 MISS:          0
cpu3_ITLB WRITE        ACCESS:          0 HIT:          0 MISS:          0
cpu3_ITLB TRANSLATION  ACCESS:          0 HIT:          0 MISS:          0
cpu3_ITLB PREFETCH REQUESTED:          0 ISSUED:          0 USEFUL:          0 USELESS:          0
cpu3_ITLB AVERAGE MISS LATENCY: 249.7 cycles
cpu3_L1D TOTAL        ACCESS:          0 HIT:          0 MISS:          0
cpu3_L1D LOAD         ACCESS:          0 HIT:          0 MISS:          0
cpu3_L1D RFO          ACCESS:          0 HIT:          0 MISS:          0
cpu3_L1D PREFETCH     ACCESS:          0 HIT:          0 MISS:          0
cpu3_L1D WRITE        ACCESS:          0 HIT:          0 MISS:          0
cpu3_L1D TRANSLATION  ACCESS:          0 HIT:          0 MISS:          0
cpu3_L1D PREFETCH REQUESTED:          0 ISSUED:          0 USEFUL:          0 USELESS:          0
cpu3_L1D AVERAGE MISS LATENCY: 113.5 cycles
cpu3_L1D TOTAL        ACCESS:          0 HIT:          0 MISS:          0
cpu3_L1D LOAD         ACCESS:          0 HIT:          0 MISS:          0
cpu3_L1D RFO          ACCESS:          0 HIT:          0 MISS:          0
cpu3_L1D PREFETCH     ACCESS:          0 HIT:          0 MISS:          0
cpu3_L1D WRITE        ACCESS:          0 HIT:          0 MISS:          0
cpu3_L1D TRANSLATION  ACCESS:          0 HIT:          0 MISS:          0
cpu3_L1D PREFETCH REQUESTED:          0 ISSUED:          0 USEFUL:          0 USELESS:          0
cpu3_L1D AVERAGE MISS LATENCY: 113.5 cycles
cpu3_L1D TOTAL        ACCESS:          0 HIT:          0 MISS:          0
cpu3_L1D LOAD         ACCESS:          0 HIT:          0 MISS:          0
cpu3_L1D RFO          ACCESS:          0 HIT:          0 MISS:          0
cpu3_L1D PREFETCH     ACCESS:          0 HIT:          0 MISS:          0
cpu3_L1D WRITE        ACCESS:          0 HIT:          0 MISS:          0
cpu3_L1D TRANSLATION  ACCESS:          0 HIT:          0 MISS:          0
cpu3_L1D PREFETCH REQUESTED:          0 ISSUED:          0 USEFUL:          0 USELESS:          0
cpu3_L1D AVERAGE MISS LATENCY: 113.5 cycles
cpu3_L1D TOTAL        ACCESS:   22015673 HIT:   22006009 MISS:       9664
cpu3_L1D LOAD         ACCESS:   16453109 HIT:   16450332 MISS:       2777
cpu3_L1D RFO          ACCESS:          0 HIT:          0 MISS:          0
cpu3_L1D PREFETCH     ACCESS:          0 HIT:          0 MISS:          0
cpu3_L1D WRITE        ACCESS:    5562393 HIT:    5555659 MISS:       6734
cpu3_L1D TRANSLATION  ACCESS:        171 HIT:         18 MISS:        153
cpu3_L1D PREFETCH REQUESTED:          0 ISSUED:          0 USEFUL:          0 USELESS:          0
cpu3_L1D AVERAGE MISS LATENCY: 113.5 cycles
cpu3_L1I TOTAL        ACCESS:          0 HIT:          0 MISS:          0
cpu3_L1I LOAD         ACCESS:          0 HIT:          0 MISS:          0
cpu3_L1I RFO          ACCESS:          0 HIT:          0 MISS:          0
cpu3_L1I PREFETCH     ACCESS:          0 HIT:          0 MISS:          0
cpu3_L1I WRITE        ACCESS:          0 HIT:          0 MISS:          0
cpu3_L1I TRANSLATION  ACCESS:          0 HIT:          0 MISS:          0
cpu3_L1I PREFETCH REQUESTED:          0 ISSUED:          0 USEFUL:          0 USELESS:          0
cpu3_L1I AVERAGE MISS LATENCY: 11.95 cycles
cpu3_L1I TOTAL        ACCESS:          0 HIT:          0 MISS:          0
cpu3_L1I LOAD         ACCESS:          0 HIT:          0 MISS:          0
cpu3_L1I RFO          ACCESS:          0 HIT:          0 MISS:          0
cpu3_L1I PREFETCH     ACCESS:          0 HIT:          0 MISS:          0
cpu3_L1I WRITE        ACCESS:          0 HIT:          0 MISS:          0
cpu3_L1I TRANSLATION  ACCESS:          0 HIT:          0 MISS:          0
cpu3_L1I PREFETCH REQUESTED:          0 ISSUED:          0 USEFUL:          0 USELESS:          0
cpu3_L1I AVERAGE MISS LATENCY: 11.95 cycles
cpu3_L1I TOTAL        ACCESS:          0 HIT:          0 MISS:          0
cpu3_L1I LOAD         ACCESS:          0 HIT:          0 MISS:          0
cpu3_L1I RFO          ACCESS:          0 HIT:          0 MISS:          0
cpu3_L1I PREFETCH     ACCESS:          0 HIT:          0 MISS:          0
cpu3_L1I WRITE        ACCESS:          0 HIT:          0 MISS:          0
cpu3_L1I TRANSLATION  ACCESS:          0 HIT:          0 MISS:          0
cpu3_L1I PREFETCH REQUESTED:          0 ISSUED:          0 USEFUL:          0 USELESS:          0
cpu3_L1I AVERAGE MISS LATENCY: 11.95 cycles
cpu3_L1I TOTAL        ACCESS:     550941 HIT:     549508 MISS:       1433
cpu3_L1I LOAD         ACCESS:     550941 HIT:     549508 MISS:       1433
cpu3_L1I RFO          ACCESS:          0 HIT:          0 MISS:          0
cpu3_L1I PREFETCH     ACCESS:          0 HIT:          0 MISS:          0
cpu3_L1I WRITE        ACCESS:          0 HIT:          0 MISS:          0
cpu3_L1I TRANSLATION  ACCESS:          0 HIT:          0 MISS:          0
cpu3_L1I PREFETCH REQUESTED:          0 ISSUED:          0 USEFUL:          0 USELESS:          0
cpu3_L1I AVERAGE MISS LATENCY: 11.95 cycles
cpu3_L2C TOTAL        ACCESS:          0 HIT:          0 MISS:          0
cpu3_L2C LOAD         ACCESS:          0 HIT:          0 MISS:          0
cpu3_L2C RFO          ACCESS:          0 HIT:          0 MISS:          0
cpu3_L2C PREFETCH     ACCESS:          0 HIT:          0 MISS:          0
cpu3_L2C WRITE        ACCESS:          0 HIT:          0 MISS:          0
cpu3_L2C TRANSLATION  ACCESS:          0 HIT:          0 MISS:          0
cpu3_L2C PREFETCH REQUESTED:   12644505 ISSUED:   11791592 USEFUL:     943751 USELESS:      10711
cpu3_L2C AVERAGE MISS LATENCY: 184 cycles
cpu3_L2C TOTAL        ACCESS:          0 HIT:          0 MISS:          0
cpu3_L2C LOAD         ACCESS:          0 HIT:          0 MISS:          0
cpu3_L2C RFO          ACCESS:          0 HIT:          0 MISS:          0
cpu3_L2C PREFETCH     ACCESS:          0 HIT:          0 MISS:          0
cpu3_L2C WRITE        ACCESS:          0 HIT:          0 MISS:          0
cpu3_L2C TRANSLATION  ACCESS:          0 HIT:          0 MISS:          0
cpu3_L2C PREFETCH REQUESTED:   12644505 ISSUED:   11791592 USEFUL:     943751 USELESS:      10711
cpu3_L2C AVERAGE MISS LATENCY: 184 cycles
cpu3_L2C TOTAL        ACCESS:          0 HIT:          0 MISS:          0
cpu3_L2C LOAD         ACCESS:          0 HIT:          0 MISS:          0
cpu3_L2C RFO          ACCESS:          0 HIT:          0 MISS:          0
cpu3_L2C PREFETCH     ACCESS:          0 HIT:          0 MISS:          0
cpu3_L2C WRITE        ACCESS:          0 HIT:          0 MISS:          0
cpu3_L2C TRANSLATION  ACCESS:          0 HIT:          0 MISS:          0
cpu3_L2C PREFETCH REQUESTED:   12644505 ISSUED:   11791592 USEFUL:     943751 USELESS:      10711
cpu3_L2C AVERAGE MISS LATENCY: 184 cycles
cpu3_L2C TOTAL        ACCESS:      10946 HIT:       5259 MISS:       5687
cpu3_L2C LOAD         ACCESS:       2781 HIT:       1209 MISS:       1572
cpu3_L2C RFO          ACCESS:       2559 HIT:         72 MISS:       2487
cpu3_L2C PREFETCH     ACCESS:       2399 HIT:        868 MISS:       1531
cpu3_L2C WRITE        ACCESS:       3054 HIT:       3052 MISS:          2
cpu3_L2C TRANSLATION  ACCESS:        153 HIT:         58 MISS:         95
cpu3_L2C PREFETCH REQUESTED:   12644505 ISSUED:   11791592 USEFUL:     943751 USELESS:      10711
cpu3_L2C AVERAGE MISS LATENCY: 184 cycles
cpu3_STLB TOTAL        ACCESS:          0 HIT:          0 MISS:          0
cpu3_STLB LOAD         ACCESS:          0 HIT:          0 MISS:          0
cpu3_STLB RFO          ACCESS:          0 HIT:          0 MISS:          0
cpu3_STLB PREFETCH     ACCESS:          0 HIT:          0 MISS:          0
cpu3_STLB WRITE        ACCESS:          0 HIT:          0 MISS:          0
cpu3_STLB TRANSLATION  ACCESS:          0 HIT:          0 MISS:          0
cpu3_STLB PREFETCH REQUESTED:          0 ISSUED:          0 USEFUL:          0 USELESS:          0
cpu3_STLB AVERAGE MISS LATENCY: 247.4 cycles
cpu3_STLB TOTAL        ACCESS:          0 HIT:          0 MISS:          0
cpu3_STLB LOAD         ACCESS:          0 HIT:          0 MISS:          0
cpu3_STLB RFO          ACCESS:          0 HIT:          0 MISS:          0
cpu3_STLB PREFETCH     ACCESS:          0 HIT:          0 MISS:          0
cpu3_STLB WRITE        ACCESS:          0 HIT:          0 MISS:          0
cpu3_STLB TRANSLATION  ACCESS:          0 HIT:          0 MISS:          0
cpu3_STLB PREFETCH REQUESTED:          0 ISSUED:          0 USEFUL:          0 USELESS:          0
cpu3_STLB AVERAGE MISS LATENCY: 247.4 cycles
cpu3_STLB TOTAL        ACCESS:          0 HIT:          0 MISS:          0
cpu3_STLB LOAD         ACCESS:          0 HIT:          0 MISS:          0
cpu3_STLB RFO          ACCESS:          0 HIT:          0 MISS:          0
cpu3_STLB PREFETCH     ACCESS:          0 HIT:          0 MISS:          0
cpu3_STLB WRITE        ACCESS:          0 HIT:          0 MISS:          0
cpu3_STLB TRANSLATION  ACCESS:          0 HIT:          0 MISS:          0
cpu3_STLB PREFETCH REQUESTED:          0 ISSUED:          0 USEFUL:          0 USELESS:          0
cpu3_STLB AVERAGE MISS LATENCY: 247.4 cycles
cpu3_STLB TOTAL        ACCESS:       9198 HIT:       9028 MISS:        170
cpu3_STLB LOAD         ACCESS:       9198 HIT:       9028 MISS:        170
cpu3_STLB RFO          ACCESS:          0 HIT:          0 MISS:          0
cpu3_STLB PREFETCH     ACCESS:          0 HIT:          0 MISS:          0
cpu3_STLB WRITE        ACCESS:          0 HIT:          0 MISS:          0
cpu3_STLB TRANSLATION  ACCESS:          0 HIT:          0 MISS:          0
cpu3_STLB PREFETCH REQUESTED:          0 ISSUED:          0 USEFUL:          0 USELESS:          0
cpu3_STLB AVERAGE MISS LATENCY: 247.4 cycles

DRAM Statistics

Channel 0 RQ ROW_BUFFER_HIT:    1853352
  ROW_BUFFER_MISS:    3973557
 AVG DBUS CONGESTED CYCLE: 3.955
WQ ROW_BUFFER_HIT: Channel 0 
  ROW_BUFFER_MISS:      82825
  FULL:    1677640

Channel 1 RQ ROW_BUFFER_HIT:    1861118
  ROW_BUFFER_MISS:    3956006
 AVG DBUS CONGESTED CYCLE: 3.955
WQ ROW_BUFFER_HIT: Channel 1 
  ROW_BUFFER_MISS:      83145
  FULL:    1675439
