Original cmd-> /home/grads/r/rdas40/ECEN676/ChampSim/bin/multi_core/spp_2ch --warmup_instructions=50000000 --simulation_instructions=150000000  /home/grads/r/rdas40/dpc3_traces/644.nab_s-5853B.champsimtrace.xz /home/grads/r/rdas40/dpc3_traces/619.lbm_s-4268B.champsimtrace.xz /home/grads/r/rdas40/dpc3_traces/603.bwaves_s-3699B.champsimtrace.xz /home/grads/r/rdas40/dpc3_traces/627.cam4_s-573B.champsimtrace.xz
WARNING: physical memory size is smaller than virtual memory size.
WARNING: option --warmup_instructions is deprecated. Use --warmup-instructions instead.
WARNING: option --simulation_instructions is deprecated. Use --simulation-instructions instead.

*** ChampSim Multicore Out-of-Order Simulator ***
Warmup Instructions: 50000000
Simulation Instructions: 150000000
Number of CPUs: 4
Page size: 4096

Initialize SIGNATURE TABLE
ST_SET: 1
ST_WAY: 256
ST_TAG_BIT: 16
ST_TAG_MASK: ffff

Initialize PATTERN TABLE
PT_SET: 512
PT_WAY: 4
SIG_DELTA_BIT: 7
C_SIG_BIT: 4
C_DELTA_BIT: 4

Initialize PREFETCH FILTER
FILTER_SET: 1024
Initialize SIGNATURE TABLE
ST_SET: 1
ST_WAY: 256
ST_TAG_BIT: 16
ST_TAG_MASK: ffff

Initialize PATTERN TABLE
PT_SET: 512
PT_WAY: 4
SIG_DELTA_BIT: 7
C_SIG_BIT: 4
C_DELTA_BIT: 4

Initialize PREFETCH FILTER
FILTER_SET: 1024
Initialize SIGNATURE TABLE
ST_SET: 1
ST_WAY: 256
ST_TAG_BIT: 16
ST_TAG_MASK: ffff

Initialize PATTERN TABLE
PT_SET: 512
PT_WAY: 4
SIG_DELTA_BIT: 7
C_SIG_BIT: 4
C_DELTA_BIT: 4

Initialize PREFETCH FILTER
FILTER_SET: 1024
Initialize SIGNATURE TABLE
ST_SET: 1
ST_WAY: 256
ST_TAG_BIT: 16
ST_TAG_MASK: ffff

Initialize PATTERN TABLE
PT_SET: 512
PT_WAY: 4
SIG_DELTA_BIT: 7
C_SIG_BIT: 4
C_DELTA_BIT: 4

Initialize PREFETCH FILTER
FILTER_SET: 1024
Off-chip DRAM Size: 8 GiB Channels: 2 Width: 64-bit Data Race: 3200 MT/s
Heartbeat CPU 2 instructions: 10000001 cycles: 2521924 heartbeat IPC: 3.965 cumulative IPC: 3.965 (Simulation time: 00 hr 02 min 54 sec)
Heartbeat CPU 3 instructions: 10000002 cycles: 2711657 heartbeat IPC: 3.688 cumulative IPC: 3.688 (Simulation time: 00 hr 03 min 07 sec)
Heartbeat CPU 1 instructions: 10000004 cycles: 3050324 heartbeat IPC: 3.278 cumulative IPC: 3.278 (Simulation time: 00 hr 03 min 31 sec)
Heartbeat CPU 0 instructions: 10000003 cycles: 3449357 heartbeat IPC: 2.899 cumulative IPC: 2.899 (Simulation time: 00 hr 03 min 59 sec)
Heartbeat CPU 2 instructions: 20000000 cycles: 5038320 heartbeat IPC: 3.974 cumulative IPC: 3.97 (Simulation time: 00 hr 05 min 52 sec)
Heartbeat CPU 3 instructions: 20000002 cycles: 5231459 heartbeat IPC: 3.969 cumulative IPC: 3.823 (Simulation time: 00 hr 06 min 06 sec)
Heartbeat CPU 1 instructions: 20000000 cycles: 6094256 heartbeat IPC: 3.285 cumulative IPC: 3.282 (Simulation time: 00 hr 07 min 08 sec)
Heartbeat CPU 0 instructions: 20000001 cycles: 6897647 heartbeat IPC: 2.9 cumulative IPC: 2.9 (Simulation time: 00 hr 08 min 04 sec)
Heartbeat CPU 2 instructions: 30000003 cycles: 7553376 heartbeat IPC: 3.976 cumulative IPC: 3.972 (Simulation time: 00 hr 08 min 50 sec)
Heartbeat CPU 3 instructions: 30000000 cycles: 7750778 heartbeat IPC: 3.969 cumulative IPC: 3.871 (Simulation time: 00 hr 09 min 04 sec)
Heartbeat CPU 1 instructions: 30000001 cycles: 9126326 heartbeat IPC: 3.298 cumulative IPC: 3.287 (Simulation time: 00 hr 10 min 41 sec)
Heartbeat CPU 2 instructions: 40000003 cycles: 10077430 heartbeat IPC: 3.962 cumulative IPC: 3.969 (Simulation time: 00 hr 11 min 48 sec)
Heartbeat CPU 3 instructions: 40000000 cycles: 10280889 heartbeat IPC: 3.952 cumulative IPC: 3.891 (Simulation time: 00 hr 12 min 02 sec)
Heartbeat CPU 0 instructions: 30000003 cycles: 10354598 heartbeat IPC: 2.893 cumulative IPC: 2.897 (Simulation time: 00 hr 12 min 08 sec)
Heartbeat CPU 1 instructions: 40000004 cycles: 12183655 heartbeat IPC: 3.271 cumulative IPC: 3.283 (Simulation time: 00 hr 14 min 20 sec)
Heartbeat CPU 2 instructions: 50000001 cycles: 12599284 heartbeat IPC: 3.965 cumulative IPC: 3.968 (Simulation time: 00 hr 14 min 50 sec)
Warmup finished CPU 2 instructions: 50000001 cycles: 12599285 cumulative IPC: 3.968 (Simulation time: 00 hr 14 min 50 sec)
Heartbeat CPU 3 instructions: 50000003 cycles: 12883612 heartbeat IPC: 3.842 cumulative IPC: 3.881 (Simulation time: 00 hr 15 min 10 sec)
Warmup finished CPU 3 instructions: 50000003 cycles: 12883613 cumulative IPC: 3.881 (Simulation time: 00 hr 15 min 10 sec)
Heartbeat CPU 0 instructions: 40000001 cycles: 13780899 heartbeat IPC: 2.919 cumulative IPC: 2.903 (Simulation time: 00 hr 16 min 15 sec)
Heartbeat CPU 2 instructions: 60000002 cycles: 15124319 heartbeat IPC: 3.96 cumulative IPC: 3.967 (Simulation time: 00 hr 17 min 52 sec)
Heartbeat CPU 1 instructions: 50000004 cycles: 15246037 heartbeat IPC: 3.265 cumulative IPC: 3.28 (Simulation time: 00 hr 18 min 01 sec)
Warmup finished CPU 1 instructions: 50000004 cycles: 15246038 cumulative IPC: 3.28 (Simulation time: 00 hr 18 min 01 sec)
Heartbeat CPU 3 instructions: 60000002 cycles: 15502091 heartbeat IPC: 3.819 cumulative IPC: 3.87 (Simulation time: 00 hr 18 min 19 sec)
Heartbeat CPU 0 instructions: 50000002 cycles: 17210862 heartbeat IPC: 2.915 cumulative IPC: 2.905 (Simulation time: 00 hr 20 min 22 sec)
Warmup finished CPU 0 instructions: 50000002 cycles: 17210863 cumulative IPC: 2.905 (Simulation time: 00 hr 20 min 22 sec)
Warmup complete CPU 0 instructions: 50000002 cycles: 17210863 cumulative IPC: 2.905 (Simulation time: 00 hr 20 min 22 sec)
Warmup complete CPU 1 instructions: 56361364 cycles: 17210863 cumulative IPC: 3.275 (Simulation time: 00 hr 20 min 22 sec)
Warmup complete CPU 2 instructions: 68265616 cycles: 17210863 cumulative IPC: 3.966 (Simulation time: 00 hr 20 min 22 sec)
Warmup complete CPU 3 instructions: 66554597 cycles: 17210863 cumulative IPC: 3.867 (Simulation time: 00 hr 20 min 22 sec)
Heartbeat CPU 2 instructions: 70000004 cycles: 17950641 heartbeat IPC: 3.538 cumulative IPC: 2.344 (Simulation time: 00 hr 21 min 03 sec)
Heartbeat CPU 3 instructions: 70000000 cycles: 18678012 heartbeat IPC: 3.149 cumulative IPC: 2.348 (Simulation time: 00 hr 21 min 42 sec)
Heartbeat CPU 0 instructions: 60000001 cycles: 21002213 heartbeat IPC: 2.638 cumulative IPC: 2.638 (Simulation time: 00 hr 23 min 47 sec)
Heartbeat CPU 2 instructions: 80000000 cycles: 22243584 heartbeat IPC: 2.329 cumulative IPC: 2.332 (Simulation time: 00 hr 24 min 51 sec)
Heartbeat CPU 3 instructions: 80000003 cycles: 24336777 heartbeat IPC: 1.767 cumulative IPC: 1.887 (Simulation time: 00 hr 26 min 45 sec)
Heartbeat CPU 0 instructions: 70000000 cycles: 24708054 heartbeat IPC: 2.698 cumulative IPC: 2.668 (Simulation time: 00 hr 27 min 05 sec)
Heartbeat CPU 2 instructions: 90000001 cycles: 26578482 heartbeat IPC: 2.307 cumulative IPC: 2.32 (Simulation time: 00 hr 28 min 43 sec)
Heartbeat CPU 1 instructions: 60000004 cycles: 27110141 heartbeat IPC: 0.8429 cumulative IPC: 0.3676 (Simulation time: 00 hr 29 min 10 sec)
Heartbeat CPU 3 instructions: 90000003 cycles: 28557974 heartbeat IPC: 2.369 cumulative IPC: 2.066 (Simulation time: 00 hr 30 min 27 sec)
Heartbeat CPU 0 instructions: 80000000 cycles: 29301646 heartbeat IPC: 2.177 cumulative IPC: 2.481 (Simulation time: 00 hr 31 min 04 sec)
Heartbeat CPU 2 instructions: 100000004 cycles: 30916276 heartbeat IPC: 2.305 cumulative IPC: 2.315 (Simulation time: 00 hr 32 min 18 sec)
Heartbeat CPU 0 instructions: 90000002 cycles: 34279887 heartbeat IPC: 2.009 cumulative IPC: 2.343 (Simulation time: 00 hr 34 min 50 sec)
Heartbeat CPU 2 instructions: 110000002 cycles: 35341242 heartbeat IPC: 2.26 cumulative IPC: 2.302 (Simulation time: 00 hr 35 min 36 sec)
Heartbeat CPU 2 instructions: 120000001 cycles: 39673914 heartbeat IPC: 2.308 cumulative IPC: 2.303 (Simulation time: 00 hr 38 min 55 sec)
Heartbeat CPU 0 instructions: 100000000 cycles: 39708236 heartbeat IPC: 1.842 cumulative IPC: 2.222 (Simulation time: 00 hr 38 min 57 sec)
Heartbeat CPU 3 instructions: 100000000 cycles: 43005450 heartbeat IPC: 0.6922 cumulative IPC: 1.297 (Simulation time: 00 hr 41 min 19 sec)
Heartbeat CPU 2 instructions: 130000000 cycles: 44152619 heartbeat IPC: 2.233 cumulative IPC: 2.291 (Simulation time: 00 hr 42 min 06 sec)
Heartbeat CPU 0 instructions: 110000000 cycles: 45097550 heartbeat IPC: 1.856 cumulative IPC: 2.152 (Simulation time: 00 hr 42 min 47 sec)
Heartbeat CPU 2 instructions: 140000000 cycles: 48695733 heartbeat IPC: 2.201 cumulative IPC: 2.278 (Simulation time: 00 hr 45 min 19 sec)
Heartbeat CPU 0 instructions: 120000003 cycles: 50172466 heartbeat IPC: 1.97 cumulative IPC: 2.124 (Simulation time: 00 hr 46 min 21 sec)
Heartbeat CPU 2 instructions: 150000002 cycles: 53179258 heartbeat IPC: 2.23 cumulative IPC: 2.272 (Simulation time: 00 hr 48 min 28 sec)
Heartbeat CPU 0 instructions: 130000003 cycles: 55208026 heartbeat IPC: 1.986 cumulative IPC: 2.105 (Simulation time: 00 hr 49 min 53 sec)
Heartbeat CPU 2 instructions: 160000001 cycles: 57673872 heartbeat IPC: 2.225 cumulative IPC: 2.267 (Simulation time: 00 hr 51 min 36 sec)
Heartbeat CPU 0 instructions: 140000000 cycles: 60244450 heartbeat IPC: 1.986 cumulative IPC: 2.091 (Simulation time: 00 hr 53 min 24 sec)
Heartbeat CPU 2 instructions: 170000000 cycles: 62140779 heartbeat IPC: 2.239 cumulative IPC: 2.264 (Simulation time: 00 hr 54 min 43 sec)
Heartbeat CPU 0 instructions: 150000003 cycles: 65358799 heartbeat IPC: 1.955 cumulative IPC: 2.077 (Simulation time: 00 hr 56 min 59 sec)
Heartbeat CPU 2 instructions: 180000000 cycles: 66681074 heartbeat IPC: 2.203 cumulative IPC: 2.259 (Simulation time: 00 hr 57 min 54 sec)
Heartbeat CPU 1 instructions: 70000000 cycles: 69186333 heartbeat IPC: 0.2377 cumulative IPC: 0.2624 (Simulation time: 00 hr 59 min 38 sec)
Heartbeat CPU 0 instructions: 160000000 cycles: 70507441 heartbeat IPC: 1.942 cumulative IPC: 2.064 (Simulation time: 01 hr 00 min 34 sec)
Heartbeat CPU 2 instructions: 190000000 cycles: 71184086 heartbeat IPC: 2.221 cumulative IPC: 2.255 (Simulation time: 01 hr 01 min 02 sec)
Heartbeat CPU 2 instructions: 200000004 cycles: 75633157 heartbeat IPC: 2.248 cumulative IPC: 2.255 (Simulation time: 01 hr 04 min 10 sec)
Heartbeat CPU 0 instructions: 170000003 cycles: 75692326 heartbeat IPC: 1.929 cumulative IPC: 2.052 (Simulation time: 01 hr 04 min 13 sec)
Heartbeat CPU 3 instructions: 110000001 cycles: 79449459 heartbeat IPC: 0.2744 cumulative IPC: 0.698 (Simulation time: 01 hr 07 min 11 sec)
Heartbeat CPU 2 instructions: 210000001 cycles: 80108844 heartbeat IPC: 2.234 cumulative IPC: 2.253 (Simulation time: 01 hr 07 min 44 sec)
Heartbeat CPU 0 instructions: 180000002 cycles: 80605540 heartbeat IPC: 2.035 cumulative IPC: 2.051 (Simulation time: 01 hr 08 min 07 sec)
Simulation finished CPU 2 instructions: 150000000 cycles: 66720486 cumulative IPC: 2.248 (Simulation time: 01 hr 10 min 55 sec)
Heartbeat CPU 3 instructions: 120000003 cycles: 84019521 heartbeat IPC: 2.188 cumulative IPC: 0.8 (Simulation time: 01 hr 11 min 00 sec)
Heartbeat CPU 2 instructions: 220000002 cycles: 84676978 heartbeat IPC: 2.189 cumulative IPC: 2.249 (Simulation time: 01 hr 11 min 34 sec)
Heartbeat CPU 0 instructions: 190000000 cycles: 85484671 heartbeat IPC: 2.05 cumulative IPC: 2.051 (Simulation time: 01 hr 12 min 16 sec)
Heartbeat CPU 3 instructions: 130000001 cycles: 87696750 heartbeat IPC: 2.719 cumulative IPC: 0.9001 (Simulation time: 01 hr 14 min 12 sec)
Heartbeat CPU 2 instructions: 230000000 cycles: 89133006 heartbeat IPC: 2.244 cumulative IPC: 2.249 (Simulation time: 01 hr 15 min 27 sec)
Heartbeat CPU 0 instructions: 200000004 cycles: 90347198 heartbeat IPC: 2.057 cumulative IPC: 2.051 (Simulation time: 01 hr 16 min 29 sec)
Simulation finished CPU 0 instructions: 150000002 cycles: 73136336 cumulative IPC: 2.051 (Simulation time: 01 hr 16 min 29 sec)
Heartbeat CPU 3 instructions: 140000000 cycles: 91453418 heartbeat IPC: 2.662 cumulative IPC: 0.9893 (Simulation time: 01 hr 17 min 26 sec)
Heartbeat CPU 2 instructions: 240000001 cycles: 93674701 heartbeat IPC: 2.202 cumulative IPC: 2.246 (Simulation time: 01 hr 19 min 17 sec)
Heartbeat CPU 0 instructions: 210000003 cycles: 95193230 heartbeat IPC: 2.064 cumulative IPC: 2.052 (Simulation time: 01 hr 20 min 33 sec)
Heartbeat CPU 3 instructions: 150000001 cycles: 96533218 heartbeat IPC: 1.969 cumulative IPC: 1.052 (Simulation time: 01 hr 21 min 39 sec)
Heartbeat CPU 2 instructions: 250000001 cycles: 98115006 heartbeat IPC: 2.252 cumulative IPC: 2.246 (Simulation time: 01 hr 22 min 58 sec)
Heartbeat CPU 0 instructions: 220000000 cycles: 99974930 heartbeat IPC: 2.091 cumulative IPC: 2.054 (Simulation time: 01 hr 24 min 31 sec)
Heartbeat CPU 1 instructions: 80000003 cycles: 100815452 heartbeat IPC: 0.3162 cumulative IPC: 0.2827 (Simulation time: 01 hr 25 min 13 sec)
Heartbeat CPU 3 instructions: 160000000 cycles: 101870657 heartbeat IPC: 1.874 cumulative IPC: 1.104 (Simulation time: 01 hr 26 min 05 sec)
Heartbeat CPU 2 instructions: 260000000 cycles: 102537129 heartbeat IPC: 2.261 cumulative IPC: 2.247 (Simulation time: 01 hr 26 min 37 sec)
Heartbeat CPU 0 instructions: 230000002 cycles: 104681083 heartbeat IPC: 2.125 cumulative IPC: 2.058 (Simulation time: 01 hr 28 min 24 sec)
Heartbeat CPU 2 instructions: 270000003 cycles: 106987486 heartbeat IPC: 2.247 cumulative IPC: 2.247 (Simulation time: 01 hr 30 min 17 sec)
Heartbeat CPU 3 instructions: 170000000 cycles: 107379710 heartbeat IPC: 1.815 cumulative IPC: 1.147 (Simulation time: 01 hr 30 min 37 sec)
Heartbeat CPU 0 instructions: 240000002 cycles: 109485834 heartbeat IPC: 2.081 cumulative IPC: 2.059 (Simulation time: 01 hr 32 min 25 sec)
Heartbeat CPU 2 instructions: 280000003 cycles: 111375820 heartbeat IPC: 2.279 cumulative IPC: 2.249 (Simulation time: 01 hr 33 min 56 sec)
Heartbeat CPU 3 instructions: 180000000 cycles: 112857259 heartbeat IPC: 1.826 cumulative IPC: 1.186 (Simulation time: 01 hr 35 min 09 sec)
Heartbeat CPU 0 instructions: 250000003 cycles: 114226928 heartbeat IPC: 2.109 cumulative IPC: 2.062 (Simulation time: 01 hr 36 min 19 sec)
Heartbeat CPU 2 instructions: 290000001 cycles: 115803401 heartbeat IPC: 2.259 cumulative IPC: 2.249 (Simulation time: 01 hr 37 min 38 sec)
Heartbeat CPU 3 instructions: 190000003 cycles: 117420639 heartbeat IPC: 2.191 cumulative IPC: 1.232 (Simulation time: 01 hr 39 min 01 sec)
Heartbeat CPU 0 instructions: 260000003 cycles: 118991375 heartbeat IPC: 2.099 cumulative IPC: 2.063 (Simulation time: 01 hr 40 min 22 sec)
Heartbeat CPU 2 instructions: 300000002 cycles: 120245949 heartbeat IPC: 2.251 cumulative IPC: 2.249 (Simulation time: 01 hr 41 min 19 sec)
Heartbeat CPU 0 instructions: 270000001 cycles: 123833147 heartbeat IPC: 2.065 cumulative IPC: 2.063 (Simulation time: 01 hr 44 min 01 sec)
Heartbeat CPU 2 instructions: 310000002 cycles: 124643205 heartbeat IPC: 2.274 cumulative IPC: 2.25 (Simulation time: 01 hr 44 min 38 sec)
Heartbeat CPU 3 instructions: 200000004 cycles: 128265209 heartbeat IPC: 0.9221 cumulative IPC: 1.202 (Simulation time: 01 hr 47 min 28 sec)
Heartbeat CPU 0 instructions: 280000001 cycles: 128658372 heartbeat IPC: 2.072 cumulative IPC: 2.064 (Simulation time: 01 hr 47 min 47 sec)
Heartbeat CPU 1 instructions: 90000003 cycles: 128847077 heartbeat IPC: 0.3567 cumulative IPC: 0.3013 (Simulation time: 01 hr 47 min 57 sec)
Heartbeat CPU 2 instructions: 320000002 cycles: 129106176 heartbeat IPC: 2.241 cumulative IPC: 2.25 (Simulation time: 01 hr 48 min 08 sec)
Heartbeat CPU 0 instructions: 290000000 cycles: 133558125 heartbeat IPC: 2.041 cumulative IPC: 2.063 (Simulation time: 01 hr 51 min 24 sec)
Heartbeat CPU 2 instructions: 330000004 cycles: 133625698 heartbeat IPC: 2.213 cumulative IPC: 2.248 (Simulation time: 01 hr 51 min 27 sec)
Heartbeat CPU 0 instructions: 300000004 cycles: 137730427 heartbeat IPC: 2.397 cumulative IPC: 2.074 (Simulation time: 01 hr 54 min 33 sec)
Heartbeat CPU 2 instructions: 340000001 cycles: 138173953 heartbeat IPC: 2.199 cumulative IPC: 2.246 (Simulation time: 01 hr 54 min 53 sec)
Heartbeat CPU 0 instructions: 310000000 cycles: 142167195 heartbeat IPC: 2.254 cumulative IPC: 2.081 (Simulation time: 01 hr 57 min 51 sec)
Heartbeat CPU 2 instructions: 350000001 cycles: 142776777 heartbeat IPC: 2.173 cumulative IPC: 2.244 (Simulation time: 01 hr 58 min 16 sec)
Heartbeat CPU 2 instructions: 360000004 cycles: 147445133 heartbeat IPC: 2.142 cumulative IPC: 2.24 (Simulation time: 02 hr 01 min 28 sec)
Heartbeat CPU 0 instructions: 320000000 cycles: 147696497 heartbeat IPC: 1.809 cumulative IPC: 2.069 (Simulation time: 02 hr 01 min 38 sec)
Heartbeat CPU 2 instructions: 370000000 cycles: 151971222 heartbeat IPC: 2.209 cumulative IPC: 2.239 (Simulation time: 02 hr 04 min 32 sec)
Heartbeat CPU 0 instructions: 330000001 cycles: 154129004 heartbeat IPC: 1.555 cumulative IPC: 2.045 (Simulation time: 02 hr 05 min 58 sec)
Heartbeat CPU 2 instructions: 380000000 cycles: 156547605 heartbeat IPC: 2.185 cumulative IPC: 2.237 (Simulation time: 02 hr 07 min 40 sec)
Heartbeat CPU 0 instructions: 340000002 cycles: 159106106 heartbeat IPC: 2.009 cumulative IPC: 2.044 (Simulation time: 02 hr 09 min 28 sec)
Heartbeat CPU 2 instructions: 390000000 cycles: 161103304 heartbeat IPC: 2.195 cumulative IPC: 2.236 (Simulation time: 02 hr 10 min 55 sec)
Heartbeat CPU 0 instructions: 350000002 cycles: 163264105 heartbeat IPC: 2.405 cumulative IPC: 2.054 (Simulation time: 02 hr 12 min 37 sec)
Heartbeat CPU 2 instructions: 400000000 cycles: 165664742 heartbeat IPC: 2.192 cumulative IPC: 2.235 (Simulation time: 02 hr 14 min 31 sec)
Heartbeat CPU 0 instructions: 360000002 cycles: 166954264 heartbeat IPC: 2.71 cumulative IPC: 2.07 (Simulation time: 02 hr 15 min 37 sec)
Heartbeat CPU 3 instructions: 210000003 cycles: 167591439 heartbeat IPC: 0.2543 cumulative IPC: 0.9539 (Simulation time: 02 hr 16 min 11 sec)
Heartbeat CPU 2 instructions: 410000000 cycles: 170133677 heartbeat IPC: 2.238 cumulative IPC: 2.235 (Simulation time: 02 hr 18 min 27 sec)
Heartbeat CPU 0 instructions: 370000000 cycles: 170710063 heartbeat IPC: 2.663 cumulative IPC: 2.085 (Simulation time: 02 hr 18 min 59 sec)
Simulation finished CPU 3 instructions: 150000000 cycles: 153757705 cumulative IPC: 0.9756 (Simulation time: 02 hr 19 min 12 sec)
Heartbeat CPU 3 instructions: 220000001 cycles: 172257829 heartbeat IPC: 2.143 cumulative IPC: 0.9897 (Simulation time: 02 hr 20 min 26 sec)
Heartbeat CPU 0 instructions: 380000004 cycles: 174366691 heartbeat IPC: 2.735 cumulative IPC: 2.1 (Simulation time: 02 hr 22 min 26 sec)
Heartbeat CPU 2 instructions: 420000004 cycles: 174610510 heartbeat IPC: 2.234 cumulative IPC: 2.235 (Simulation time: 02 hr 22 min 40 sec)
Heartbeat CPU 1 instructions: 100000000 cycles: 174696246 heartbeat IPC: 0.2181 cumulative IPC: 0.2771 (Simulation time: 02 hr 22 min 45 sec)
Heartbeat CPU 3 instructions: 230000001 cycles: 175872327 heartbeat IPC: 2.767 cumulative IPC: 1.03 (Simulation time: 02 hr 23 min 51 sec)
Heartbeat CPU 0 instructions: 390000001 cycles: 178057437 heartbeat IPC: 2.709 cumulative IPC: 2.114 (Simulation time: 02 hr 25 min 55 sec)
Heartbeat CPU 2 instructions: 430000004 cycles: 179118403 heartbeat IPC: 2.218 cumulative IPC: 2.234 (Simulation time: 02 hr 26 min 56 sec)
Heartbeat CPU 3 instructions: 240000000 cycles: 179521045 heartbeat IPC: 2.741 cumulative IPC: 1.069 (Simulation time: 02 hr 27 min 18 sec)
Heartbeat CPU 0 instructions: 400000004 cycles: 181698560 heartbeat IPC: 2.746 cumulative IPC: 2.128 (Simulation time: 02 hr 29 min 19 sec)
Heartbeat CPU 2 instructions: 440000003 cycles: 183611636 heartbeat IPC: 2.226 cumulative IPC: 2.234 (Simulation time: 02 hr 31 min 03 sec)
Heartbeat CPU 3 instructions: 250000004 cycles: 184274524 heartbeat IPC: 2.104 cumulative IPC: 1.098 (Simulation time: 02 hr 31 min 39 sec)
Heartbeat CPU 0 instructions: 410000002 cycles: 185370394 heartbeat IPC: 2.723 cumulative IPC: 2.141 (Simulation time: 02 hr 32 min 38 sec)
Heartbeat CPU 2 instructions: 450000003 cycles: 188034124 heartbeat IPC: 2.261 cumulative IPC: 2.235 (Simulation time: 02 hr 35 min 02 sec)
Heartbeat CPU 0 instructions: 420000004 cycles: 189053457 heartbeat IPC: 2.715 cumulative IPC: 2.153 (Simulation time: 02 hr 35 min 58 sec)
Heartbeat CPU 3 instructions: 260000002 cycles: 189603955 heartbeat IPC: 1.876 cumulative IPC: 1.122 (Simulation time: 02 hr 36 min 28 sec)
Heartbeat CPU 2 instructions: 460000003 cycles: 192503426 heartbeat IPC: 2.237 cumulative IPC: 2.235 (Simulation time: 02 hr 39 min 04 sec)
Heartbeat CPU 0 instructions: 430000000 cycles: 192758373 heartbeat IPC: 2.699 cumulative IPC: 2.165 (Simulation time: 02 hr 39 min 18 sec)
Heartbeat CPU 3 instructions: 270000000 cycles: 194976932 heartbeat IPC: 1.861 cumulative IPC: 1.144 (Simulation time: 02 hr 41 min 19 sec)
Heartbeat CPU 0 instructions: 440000003 cycles: 196391803 heartbeat IPC: 2.752 cumulative IPC: 2.177 (Simulation time: 02 hr 42 min 35 sec)
Heartbeat CPU 2 instructions: 470000002 cycles: 196852440 heartbeat IPC: 2.299 cumulative IPC: 2.236 (Simulation time: 02 hr 43 min 01 sec)
Heartbeat CPU 0 instructions: 450000003 cycles: 200073652 heartbeat IPC: 2.716 cumulative IPC: 2.187 (Simulation time: 02 hr 45 min 56 sec)
Heartbeat CPU 3 instructions: 280000001 cycles: 200096550 heartbeat IPC: 1.953 cumulative IPC: 1.167 (Simulation time: 02 hr 45 min 57 sec)
Heartbeat CPU 2 instructions: 480000000 cycles: 201245527 heartbeat IPC: 2.276 cumulative IPC: 2.237 (Simulation time: 02 hr 46 min 57 sec)
Heartbeat CPU 1 instructions: 110000002 cycles: 201726038 heartbeat IPC: 0.37 cumulative IPC: 0.2907 (Simulation time: 02 hr 47 min 23 sec)
Heartbeat CPU 0 instructions: 460000003 cycles: 203784015 heartbeat IPC: 2.695 cumulative IPC: 2.198 (Simulation time: 02 hr 49 min 17 sec)
Heartbeat CPU 3 instructions: 290000003 cycles: 205466512 heartbeat IPC: 1.862 cumulative IPC: 1.187 (Simulation time: 02 hr 50 min 49 sec)
Heartbeat CPU 2 instructions: 490000002 cycles: 205572654 heartbeat IPC: 2.311 cumulative IPC: 2.239 (Simulation time: 02 hr 50 min 55 sec)
Heartbeat CPU 0 instructions: 470000002 cycles: 207372774 heartbeat IPC: 2.786 cumulative IPC: 2.209 (Simulation time: 02 hr 52 min 37 sec)
Heartbeat CPU 2 instructions: 500000000 cycles: 209959882 heartbeat IPC: 2.279 cumulative IPC: 2.24 (Simulation time: 02 hr 54 min 51 sec)
Heartbeat CPU 0 instructions: 480000001 cycles: 211030671 heartbeat IPC: 2.734 cumulative IPC: 2.219 (Simulation time: 02 hr 55 min 45 sec)
Heartbeat CPU 3 instructions: 300000001 cycles: 212987491 heartbeat IPC: 1.33 cumulative IPC: 1.192 (Simulation time: 02 hr 57 min 21 sec)
Heartbeat CPU 2 instructions: 510000004 cycles: 214280526 heartbeat IPC: 2.314 cumulative IPC: 2.242 (Simulation time: 02 hr 58 min 24 sec)
Heartbeat CPU 0 instructions: 490000002 cycles: 214633204 heartbeat IPC: 2.776 cumulative IPC: 2.229 (Simulation time: 02 hr 58 min 41 sec)
Heartbeat CPU 0 instructions: 500000002 cycles: 218331931 heartbeat IPC: 2.704 cumulative IPC: 2.237 (Simulation time: 03 hr 01 min 49 sec)
Heartbeat CPU 2 instructions: 520000000 cycles: 218649596 heartbeat IPC: 2.289 cumulative IPC: 2.243 (Simulation time: 03 hr 02 min 04 sec)
Heartbeat CPU 0 instructions: 510000004 cycles: 222124616 heartbeat IPC: 2.637 cumulative IPC: 2.245 (Simulation time: 03 hr 04 min 47 sec)
Heartbeat CPU 2 instructions: 530000002 cycles: 225786616 heartbeat IPC: 1.401 cumulative IPC: 2.214 (Simulation time: 03 hr 07 min 24 sec)
Heartbeat CPU 0 instructions: 520000004 cycles: 226447870 heartbeat IPC: 2.313 cumulative IPC: 2.246 (Simulation time: 03 hr 07 min 52 sec)
Heartbeat CPU 0 instructions: 530000002 cycles: 230787740 heartbeat IPC: 2.304 cumulative IPC: 2.247 (Simulation time: 03 hr 11 min 01 sec)
Heartbeat CPU 2 instructions: 540000003 cycles: 232399519 heartbeat IPC: 1.512 cumulative IPC: 2.192 (Simulation time: 03 hr 12 min 13 sec)
Heartbeat CPU 0 instructions: 540000004 cycles: 234741367 heartbeat IPC: 2.529 cumulative IPC: 2.253 (Simulation time: 03 hr 13 min 59 sec)
Heartbeat CPU 2 instructions: 550000000 cycles: 236739726 heartbeat IPC: 2.304 cumulative IPC: 2.194 (Simulation time: 03 hr 15 min 30 sec)
Heartbeat CPU 0 instructions: 550000001 cycles: 238790744 heartbeat IPC: 2.47 cumulative IPC: 2.257 (Simulation time: 03 hr 17 min 00 sec)
Heartbeat CPU 2 instructions: 560000002 cycles: 241163737 heartbeat IPC: 2.26 cumulative IPC: 2.196 (Simulation time: 03 hr 18 min 45 sec)
Heartbeat CPU 0 instructions: 560000002 cycles: 242960134 heartbeat IPC: 2.398 cumulative IPC: 2.259 (Simulation time: 03 hr 20 min 08 sec)
Heartbeat CPU 1 instructions: 120000003 cycles: 243092329 heartbeat IPC: 0.2417 cumulative IPC: 0.2817 (Simulation time: 03 hr 20 min 14 sec)
Heartbeat CPU 2 instructions: 570000001 cycles: 245516972 heartbeat IPC: 2.297 cumulative IPC: 2.198 (Simulation time: 03 hr 22 min 04 sec)
Heartbeat CPU 0 instructions: 570000001 cycles: 246919167 heartbeat IPC: 2.526 cumulative IPC: 2.264 (Simulation time: 03 hr 23 min 09 sec)
Heartbeat CPU 2 instructions: 580000002 cycles: 249878859 heartbeat IPC: 2.293 cumulative IPC: 2.199 (Simulation time: 03 hr 25 min 25 sec)
Heartbeat CPU 0 instructions: 580000004 cycles: 250960157 heartbeat IPC: 2.475 cumulative IPC: 2.267 (Simulation time: 03 hr 26 min 16 sec)
Heartbeat CPU 2 instructions: 590000002 cycles: 254163642 heartbeat IPC: 2.334 cumulative IPC: 2.202 (Simulation time: 03 hr 28 min 46 sec)
Heartbeat CPU 0 instructions: 590000000 cycles: 255053511 heartbeat IPC: 2.443 cumulative IPC: 2.27 (Simulation time: 03 hr 29 min 28 sec)
Heartbeat CPU 3 instructions: 310000000 cycles: 257614374 heartbeat IPC: 0.2241 cumulative IPC: 1.013 (Simulation time: 03 hr 31 min 29 sec)
Heartbeat CPU 2 instructions: 600000000 cycles: 258431757 heartbeat IPC: 2.343 cumulative IPC: 2.204 (Simulation time: 03 hr 32 min 12 sec)
Heartbeat CPU 0 instructions: 600000002 cycles: 258942445 heartbeat IPC: 2.571 cumulative IPC: 2.275 (Simulation time: 03 hr 32 min 37 sec)
Heartbeat CPU 0 instructions: 610000000 cycles: 262663985 heartbeat IPC: 2.687 cumulative IPC: 2.281 (Simulation time: 03 hr 35 min 55 sec)
Heartbeat CPU 2 instructions: 610000000 cycles: 262762700 heartbeat IPC: 2.309 cumulative IPC: 2.206 (Simulation time: 03 hr 36 min 00 sec)
Heartbeat CPU 3 instructions: 320000004 cycles: 263134043 heartbeat IPC: 1.812 cumulative IPC: 1.031 (Simulation time: 03 hr 36 min 20 sec)
Heartbeat CPU 0 instructions: 620000002 cycles: 266417522 heartbeat IPC: 2.664 cumulative IPC: 2.287 (Simulation time: 03 hr 39 min 22 sec)
Heartbeat CPU 3 instructions: 330000002 cycles: 266785702 heartbeat IPC: 2.738 cumulative IPC: 1.056 (Simulation time: 03 hr 39 min 43 sec)
Heartbeat CPU 2 instructions: 620000001 cycles: 267129097 heartbeat IPC: 2.29 cumulative IPC: 2.208 (Simulation time: 03 hr 40 min 02 sec)
Heartbeat CPU 0 instructions: 630000002 cycles: 270190288 heartbeat IPC: 2.651 cumulative IPC: 2.293 (Simulation time: 03 hr 42 min 51 sec)
Heartbeat CPU 3 instructions: 340000004 cycles: 270371135 heartbeat IPC: 2.789 cumulative IPC: 1.08 (Simulation time: 03 hr 43 min 01 sec)
Heartbeat CPU 2 instructions: 630000001 cycles: 271503821 heartbeat IPC: 2.286 cumulative IPC: 2.209 (Simulation time: 03 hr 44 min 02 sec)
Heartbeat CPU 0 instructions: 640000004 cycles: 273900823 heartbeat IPC: 2.695 cumulative IPC: 2.298 (Simulation time: 03 hr 46 min 14 sec)
Heartbeat CPU 3 instructions: 350000004 cycles: 274652074 heartbeat IPC: 2.336 cumulative IPC: 1.101 (Simulation time: 03 hr 46 min 55 sec)
Heartbeat CPU 2 instructions: 640000001 cycles: 275851373 heartbeat IPC: 2.3 cumulative IPC: 2.211 (Simulation time: 03 hr 47 min 59 sec)
Heartbeat CPU 0 instructions: 650000002 cycles: 277640337 heartbeat IPC: 2.674 cumulative IPC: 2.304 (Simulation time: 03 hr 49 min 34 sec)
Heartbeat CPU 1 instructions: 130000000 cycles: 278201997 heartbeat IPC: 0.2848 cumulative IPC: 0.2821 (Simulation time: 03 hr 50 min 05 sec)
Heartbeat CPU 3 instructions: 360000000 cycles: 279460343 heartbeat IPC: 2.08 cumulative IPC: 1.119 (Simulation time: 03 hr 51 min 13 sec)
Heartbeat CPU 2 instructions: 650000000 cycles: 280221704 heartbeat IPC: 2.288 cumulative IPC: 2.212 (Simulation time: 03 hr 51 min 53 sec)
Heartbeat CPU 0 instructions: 660000000 cycles: 281308296 heartbeat IPC: 2.726 cumulative IPC: 2.31 (Simulation time: 03 hr 52 min 50 sec)
Heartbeat CPU 2 instructions: 660000002 cycles: 284631424 heartbeat IPC: 2.268 cumulative IPC: 2.213 (Simulation time: 03 hr 55 min 46 sec)
Heartbeat CPU 3 instructions: 370000001 cycles: 284803434 heartbeat IPC: 1.872 cumulative IPC: 1.134 (Simulation time: 03 hr 55 min 55 sec)
Heartbeat CPU 0 instructions: 670000003 cycles: 285088975 heartbeat IPC: 2.645 cumulative IPC: 2.314 (Simulation time: 03 hr 56 min 10 sec)
Heartbeat CPU 0 instructions: 680000002 cycles: 288778238 heartbeat IPC: 2.711 cumulative IPC: 2.32 (Simulation time: 03 hr 59 min 25 sec)
Heartbeat CPU 2 instructions: 670000001 cycles: 289078349 heartbeat IPC: 2.249 cumulative IPC: 2.213 (Simulation time: 03 hr 59 min 41 sec)
Heartbeat CPU 3 instructions: 380000002 cycles: 290007773 heartbeat IPC: 1.921 cumulative IPC: 1.149 (Simulation time: 04 hr 00 min 32 sec)
Heartbeat CPU 0 instructions: 690000002 cycles: 292468214 heartbeat IPC: 2.71 cumulative IPC: 2.325 (Simulation time: 04 hr 02 min 44 sec)
Heartbeat CPU 2 instructions: 680000002 cycles: 293544009 heartbeat IPC: 2.239 cumulative IPC: 2.214 (Simulation time: 04 hr 03 min 40 sec)
Heartbeat CPU 3 instructions: 390000000 cycles: 295475274 heartbeat IPC: 1.829 cumulative IPC: 1.162 (Simulation time: 04 hr 05 min 24 sec)
Heartbeat CPU 0 instructions: 700000004 cycles: 296318579 heartbeat IPC: 2.597 cumulative IPC: 2.329 (Simulation time: 04 hr 06 min 08 sec)
Heartbeat CPU 2 instructions: 690000001 cycles: 297977753 heartbeat IPC: 2.255 cumulative IPC: 2.214 (Simulation time: 04 hr 07 min 40 sec)
Heartbeat CPU 3 instructions: 400000001 cycles: 299770730 heartbeat IPC: 2.328 cumulative IPC: 1.18 (Simulation time: 04 hr 09 min 16 sec)
Heartbeat CPU 0 instructions: 710000001 cycles: 300448256 heartbeat IPC: 2.421 cumulative IPC: 2.33 (Simulation time: 04 hr 09 min 53 sec)
Heartbeat CPU 2 instructions: 700000000 cycles: 302425649 heartbeat IPC: 2.248 cumulative IPC: 2.215 (Simulation time: 04 hr 11 min 31 sec)
Heartbeat CPU 0 instructions: 720000002 cycles: 304192104 heartbeat IPC: 2.671 cumulative IPC: 2.335 (Simulation time: 04 hr 12 min 57 sec)
Heartbeat CPU 1 instructions: 140000003 cycles: 305455432 heartbeat IPC: 0.3669 cumulative IPC: 0.2902 (Simulation time: 04 hr 13 min 58 sec)
Heartbeat CPU 2 instructions: 710000002 cycles: 306868771 heartbeat IPC: 2.251 cumulative IPC: 2.215 (Simulation time: 04 hr 15 min 07 sec)
Heartbeat CPU 0 instructions: 730000000 cycles: 307892330 heartbeat IPC: 2.703 cumulative IPC: 2.339 (Simulation time: 04 hr 15 min 59 sec)
Heartbeat CPU 2 instructions: 720000004 cycles: 311387540 heartbeat IPC: 2.213 cumulative IPC: 2.215 (Simulation time: 04 hr 18 min 55 sec)
Heartbeat CPU 0 instructions: 740000001 cycles: 311633498 heartbeat IPC: 2.673 cumulative IPC: 2.344 (Simulation time: 04 hr 19 min 07 sec)
Heartbeat CPU 0 instructions: 750000002 cycles: 315435461 heartbeat IPC: 2.63 cumulative IPC: 2.347 (Simulation time: 04 hr 22 min 04 sec)
Heartbeat CPU 2 instructions: 730000002 cycles: 315866436 heartbeat IPC: 2.233 cumulative IPC: 2.216 (Simulation time: 04 hr 22 min 24 sec)
Heartbeat CPU 3 instructions: 410000000 cycles: 317281782 heartbeat IPC: 0.5711 cumulative IPC: 1.145 (Simulation time: 04 hr 23 min 29 sec)
Heartbeat CPU 0 instructions: 760000002 cycles: 319323446 heartbeat IPC: 2.572 cumulative IPC: 2.35 (Simulation time: 04 hr 25 min 02 sec)
Heartbeat CPU 2 instructions: 740000004 cycles: 320403839 heartbeat IPC: 2.204 cumulative IPC: 2.216 (Simulation time: 04 hr 25 min 52 sec)
Heartbeat CPU 0 instructions: 770000000 cycles: 323273445 heartbeat IPC: 2.532 cumulative IPC: 2.352 (Simulation time: 04 hr 28 min 03 sec)
Heartbeat CPU 2 instructions: 750000001 cycles: 325029331 heartbeat IPC: 2.162 cumulative IPC: 2.215 (Simulation time: 04 hr 29 min 24 sec)
Heartbeat CPU 0 instructions: 780000002 cycles: 327164017 heartbeat IPC: 2.57 cumulative IPC: 2.355 (Simulation time: 04 hr 31 min 01 sec)
Heartbeat CPU 2 instructions: 760000000 cycles: 329599704 heartbeat IPC: 2.188 cumulative IPC: 2.214 (Simulation time: 04 hr 32 min 50 sec)
Heartbeat CPU 0 instructions: 790000000 cycles: 331622068 heartbeat IPC: 2.243 cumulative IPC: 2.354 (Simulation time: 04 hr 34 min 19 sec)
Heartbeat CPU 2 instructions: 770000002 cycles: 334129676 heartbeat IPC: 2.208 cumulative IPC: 2.214 (Simulation time: 04 hr 36 min 12 sec)
Heartbeat CPU 0 instructions: 800000000 cycles: 335864742 heartbeat IPC: 2.357 cumulative IPC: 2.354 (Simulation time: 04 hr 37 min 31 sec)
Heartbeat CPU 2 instructions: 780000002 cycles: 338625973 heartbeat IPC: 2.224 cumulative IPC: 2.214 (Simulation time: 04 hr 39 min 38 sec)
Heartbeat CPU 0 instructions: 810000003 cycles: 339956579 heartbeat IPC: 2.444 cumulative IPC: 2.355 (Simulation time: 04 hr 40 min 37 sec)
Heartbeat CPU 2 instructions: 790000002 cycles: 343086638 heartbeat IPC: 2.242 cumulative IPC: 2.215 (Simulation time: 04 hr 42 min 57 sec)
Heartbeat CPU 0 instructions: 820000003 cycles: 343884967 heartbeat IPC: 2.546 cumulative IPC: 2.357 (Simulation time: 04 hr 43 min 32 sec)
Heartbeat CPU 2 instructions: 800000001 cycles: 347559725 heartbeat IPC: 2.236 cumulative IPC: 2.215 (Simulation time: 04 hr 46 min 24 sec)
Heartbeat CPU 0 instructions: 830000002 cycles: 347884011 heartbeat IPC: 2.501 cumulative IPC: 2.359 (Simulation time: 04 hr 46 min 38 sec)
Heartbeat CPU 3 instructions: 420000002 cycles: 349988226 heartbeat IPC: 0.3058 cumulative IPC: 1.062 (Simulation time: 04 hr 48 min 26 sec)
Heartbeat CPU 0 instructions: 840000000 cycles: 351594218 heartbeat IPC: 2.695 cumulative IPC: 2.363 (Simulation time: 04 hr 49 min 46 sec)
Heartbeat CPU 2 instructions: 810000000 cycles: 352024180 heartbeat IPC: 2.24 cumulative IPC: 2.215 (Simulation time: 04 hr 50 min 09 sec)
Heartbeat CPU 1 instructions: 150000000 cycles: 352651285 heartbeat IPC: 0.2119 cumulative IPC: 0.2792 (Simulation time: 04 hr 50 min 42 sec)
Heartbeat CPU 3 instructions: 430000000 cycles: 354524441 heartbeat IPC: 2.204 cumulative IPC: 1.077 (Simulation time: 04 hr 52 min 23 sec)
Heartbeat CPU 0 instructions: 850000002 cycles: 355266925 heartbeat IPC: 2.723 cumulative IPC: 2.366 (Simulation time: 04 hr 53 min 03 sec)
Heartbeat CPU 2 instructions: 820000000 cycles: 356429490 heartbeat IPC: 2.27 cumulative IPC: 2.216 (Simulation time: 04 hr 54 min 06 sec)
Heartbeat CPU 3 instructions: 440000003 cycles: 358348328 heartbeat IPC: 2.615 cumulative IPC: 1.095 (Simulation time: 04 hr 55 min 47 sec)
Heartbeat CPU 0 instructions: 860000004 cycles: 359010628 heartbeat IPC: 2.671 cumulative IPC: 2.37 (Simulation time: 04 hr 56 min 22 sec)
Heartbeat CPU 2 instructions: 830000004 cycles: 360841748 heartbeat IPC: 2.266 cumulative IPC: 2.217 (Simulation time: 04 hr 58 min 02 sec)
Heartbeat CPU 3 instructions: 450000002 cycles: 362312296 heartbeat IPC: 2.523 cumulative IPC: 1.111 (Simulation time: 04 hr 59 min 18 sec)
Heartbeat CPU 0 instructions: 870000002 cycles: 362740688 heartbeat IPC: 2.681 cumulative IPC: 2.373 (Simulation time: 04 hr 59 min 41 sec)
Heartbeat CPU 2 instructions: 840000003 cycles: 365270714 heartbeat IPC: 2.258 cumulative IPC: 2.217 (Simulation time: 05 hr 01 min 54 sec)
Heartbeat CPU 0 instructions: 880000003 cycles: 366416380 heartbeat IPC: 2.721 cumulative IPC: 2.377 (Simulation time: 05 hr 02 min 54 sec)
Heartbeat CPU 3 instructions: 460000001 cycles: 367157503 heartbeat IPC: 2.064 cumulative IPC: 1.124 (Simulation time: 05 hr 03 min 33 sec)
Heartbeat CPU 2 instructions: 850000001 cycles: 369652760 heartbeat IPC: 2.282 cumulative IPC: 2.218 (Simulation time: 05 hr 05 min 44 sec)
Heartbeat CPU 0 instructions: 890000003 cycles: 370111551 heartbeat IPC: 2.706 cumulative IPC: 2.38 (Simulation time: 05 hr 06 min 08 sec)
Heartbeat CPU 3 instructions: 470000000 cycles: 372372657 heartbeat IPC: 1.917 cumulative IPC: 1.136 (Simulation time: 05 hr 08 min 06 sec)
Heartbeat CPU 0 instructions: 900000000 cycles: 373903025 heartbeat IPC: 2.637 cumulative IPC: 2.383 (Simulation time: 05 hr 09 min 27 sec)
Heartbeat CPU 2 instructions: 860000003 cycles: 374054386 heartbeat IPC: 2.272 cumulative IPC: 2.219 (Simulation time: 05 hr 09 min 35 sec)
Heartbeat CPU 3 instructions: 480000000 cycles: 377719449 heartbeat IPC: 1.87 cumulative IPC: 1.147 (Simulation time: 05 hr 12 min 45 sec)
Heartbeat CPU 0 instructions: 910000000 cycles: 377839101 heartbeat IPC: 2.541 cumulative IPC: 2.385 (Simulation time: 05 hr 12 min 51 sec)
Heartbeat CPU 2 instructions: 870000003 cycles: 378502166 heartbeat IPC: 2.248 cumulative IPC: 2.219 (Simulation time: 05 hr 13 min 27 sec)
Heartbeat CPU 1 instructions: 160000003 cycles: 380609044 heartbeat IPC: 0.3577 cumulative IPC: 0.2852 (Simulation time: 05 hr 15 min 17 sec)
Heartbeat CPU 0 instructions: 920000004 cycles: 381917314 heartbeat IPC: 2.452 cumulative IPC: 2.385 (Simulation time: 05 hr 16 min 22 sec)
Heartbeat CPU 2 instructions: 880000000 cycles: 382944770 heartbeat IPC: 2.251 cumulative IPC: 2.219 (Simulation time: 05 hr 17 min 14 sec)
Heartbeat CPU 3 instructions: 490000001 cycles: 383243870 heartbeat IPC: 1.81 cumulative IPC: 1.157 (Simulation time: 05 hr 17 min 29 sec)
Heartbeat CPU 0 instructions: 930000002 cycles: 385964926 heartbeat IPC: 2.471 cumulative IPC: 2.386 (Simulation time: 05 hr 19 min 51 sec)
Heartbeat CPU 2 instructions: 890000004 cycles: 387344711 heartbeat IPC: 2.273 cumulative IPC: 2.22 (Simulation time: 05 hr 21 min 06 sec)
Heartbeat CPU 3 instructions: 500000000 cycles: 387488201 heartbeat IPC: 2.356 cumulative IPC: 1.171 (Simulation time: 05 hr 21 min 14 sec)
Heartbeat CPU 0 instructions: 940000000 cycles: 389764511 heartbeat IPC: 2.632 cumulative IPC: 2.389 (Simulation time: 05 hr 23 min 11 sec)
Heartbeat CPU 2 instructions: 900000000 cycles: 391739865 heartbeat IPC: 2.275 cumulative IPC: 2.221 (Simulation time: 05 hr 24 min 48 sec)
Heartbeat CPU 0 instructions: 950000000 cycles: 393447931 heartbeat IPC: 2.715 cumulative IPC: 2.392 (Simulation time: 05 hr 26 min 11 sec)
Heartbeat CPU 2 instructions: 910000003 cycles: 396218339 heartbeat IPC: 2.233 cumulative IPC: 2.221 (Simulation time: 05 hr 28 min 26 sec)
Heartbeat CPU 0 instructions: 960000003 cycles: 397232261 heartbeat IPC: 2.642 cumulative IPC: 2.395 (Simulation time: 05 hr 29 min 16 sec)
Heartbeat CPU 3 instructions: 510000000 cycles: 400543476 heartbeat IPC: 0.766 cumulative IPC: 1.157 (Simulation time: 05 hr 32 min 00 sec)
Heartbeat CPU 2 instructions: 920000001 cycles: 400620850 heartbeat IPC: 2.271 cumulative IPC: 2.221 (Simulation time: 05 hr 32 min 04 sec)
Heartbeat CPU 0 instructions: 970000002 cycles: 400979548 heartbeat IPC: 2.669 cumulative IPC: 2.397 (Simulation time: 05 hr 32 min 21 sec)
Heartbeat CPU 0 instructions: 980000001 cycles: 404822270 heartbeat IPC: 2.602 cumulative IPC: 2.399 (Simulation time: 05 hr 35 min 17 sec)
Heartbeat CPU 2 instructions: 930000001 cycles: 405098264 heartbeat IPC: 2.233 cumulative IPC: 2.222 (Simulation time: 05 hr 35 min 29 sec)
Heartbeat CPU 0 instructions: 990000003 cycles: 408681845 heartbeat IPC: 2.591 cumulative IPC: 2.401 (Simulation time: 05 hr 38 min 13 sec)
Heartbeat CPU 2 instructions: 940000000 cycles: 409662988 heartbeat IPC: 2.191 cumulative IPC: 2.221 (Simulation time: 05 hr 38 min 58 sec)
Heartbeat CPU 0 instructions: 1000000002 cycles: 412601980 heartbeat IPC: 2.551 cumulative IPC: 2.403 (Simulation time: 05 hr 41 min 12 sec)
Heartbeat CPU 2 instructions: 950000000 cycles: 414227020 heartbeat IPC: 2.191 cumulative IPC: 2.221 (Simulation time: 05 hr 42 min 25 sec)
Heartbeat CPU 0 instructions: 1010000001 cycles: 416625227 heartbeat IPC: 2.486 cumulative IPC: 2.404 (Simulation time: 05 hr 44 min 13 sec)
Heartbeat CPU 1 instructions: 170000002 cycles: 418578016 heartbeat IPC: 0.2634 cumulative IPC: 0.2831 (Simulation time: 05 hr 45 min 40 sec)
Heartbeat CPU 2 instructions: 960000003 cycles: 418821609 heartbeat IPC: 2.176 cumulative IPC: 2.22 (Simulation time: 05 hr 45 min 51 sec)
Heartbeat CPU 0 instructions: 1020000003 cycles: 420536432 heartbeat IPC: 2.557 cumulative IPC: 2.405 (Simulation time: 05 hr 47 min 09 sec)
Heartbeat CPU 2 instructions: 970000001 cycles: 423306217 heartbeat IPC: 2.23 cumulative IPC: 2.22 (Simulation time: 05 hr 49 min 16 sec)
Heartbeat CPU 0 instructions: 1030000001 cycles: 424448997 heartbeat IPC: 2.556 cumulative IPC: 2.406 (Simulation time: 05 hr 50 min 07 sec)
Heartbeat CPU 2 instructions: 980000000 cycles: 427868677 heartbeat IPC: 2.192 cumulative IPC: 2.22 (Simulation time: 05 hr 52 min 45 sec)
Heartbeat CPU 0 instructions: 1040000001 cycles: 428318262 heartbeat IPC: 2.584 cumulative IPC: 2.408 (Simulation time: 05 hr 53 min 06 sec)
Heartbeat CPU 2 instructions: 990000002 cycles: 432399889 heartbeat IPC: 2.207 cumulative IPC: 2.22 (Simulation time: 05 hr 56 min 10 sec)
Heartbeat CPU 0 instructions: 1050000001 cycles: 432440524 heartbeat IPC: 2.426 cumulative IPC: 2.408 (Simulation time: 05 hr 56 min 12 sec)
Heartbeat CPU 0 instructions: 1060000001 cycles: 436457771 heartbeat IPC: 2.489 cumulative IPC: 2.409 (Simulation time: 05 hr 59 min 19 sec)
Heartbeat CPU 2 instructions: 1000000004 cycles: 436906953 heartbeat IPC: 2.219 cumulative IPC: 2.22 (Simulation time: 05 hr 59 min 39 sec)
Heartbeat CPU 3 instructions: 520000003 cycles: 438584476 heartbeat IPC: 0.2629 cumulative IPC: 1.076 (Simulation time: 06 hr 01 min 08 sec)
Heartbeat CPU 0 instructions: 1070000001 cycles: 440199504 heartbeat IPC: 2.673 cumulative IPC: 2.411 (Simulation time: 06 hr 02 min 32 sec)
Heartbeat CPU 2 instructions: 1010000002 cycles: 441397698 heartbeat IPC: 2.227 cumulative IPC: 2.22 (Simulation time: 06 hr 03 min 37 sec)
Heartbeat CPU 3 instructions: 530000003 cycles: 443215864 heartbeat IPC: 2.159 cumulative IPC: 1.088 (Simulation time: 06 hr 05 min 19 sec)
Heartbeat CPU 0 instructions: 1080000003 cycles: 443959073 heartbeat IPC: 2.66 cumulative IPC: 2.414 (Simulation time: 06 hr 05 min 59 sec)
Heartbeat CPU 2 instructions: 1020000002 cycles: 445800268 heartbeat IPC: 2.271 cumulative IPC: 2.221 (Simulation time: 06 hr 07 min 42 sec)
Heartbeat CPU 3 instructions: 540000004 cycles: 446886791 heartbeat IPC: 2.724 cumulative IPC: 1.102 (Simulation time: 06 hr 08 min 42 sec)
Heartbeat CPU 0 instructions: 1090000002 cycles: 447741780 heartbeat IPC: 2.644 cumulative IPC: 2.416 (Simulation time: 06 hr 09 min 30 sec)
Heartbeat CPU 2 instructions: 1030000004 cycles: 450186154 heartbeat IPC: 2.28 cumulative IPC: 2.221 (Simulation time: 06 hr 11 min 46 sec)
Heartbeat CPU 3 instructions: 550000001 cycles: 450943934 heartbeat IPC: 2.465 cumulative IPC: 1.115 (Simulation time: 06 hr 12 min 26 sec)
Heartbeat CPU 0 instructions: 1100000003 cycles: 451562987 heartbeat IPC: 2.617 cumulative IPC: 2.417 (Simulation time: 06 hr 12 min 59 sec)
Heartbeat CPU 2 instructions: 1040000001 cycles: 454550971 heartbeat IPC: 2.291 cumulative IPC: 2.222 (Simulation time: 06 hr 15 min 41 sec)
Heartbeat CPU 0 instructions: 1110000003 cycles: 455455367 heartbeat IPC: 2.569 cumulative IPC: 2.419 (Simulation time: 06 hr 16 min 30 sec)
Heartbeat CPU 3 instructions: 560000000 cycles: 455568674 heartbeat IPC: 2.162 cumulative IPC: 1.126 (Simulation time: 06 hr 16 min 36 sec)
Heartbeat CPU 1 instructions: 180000002 cycles: 455673366 heartbeat IPC: 0.2696 cumulative IPC: 0.282 (Simulation time: 06 hr 16 min 41 sec)
Heartbeat CPU 2 instructions: 1050000004 cycles: 458847445 heartbeat IPC: 2.327 cumulative IPC: 2.223 (Simulation time: 06 hr 19 min 28 sec)
Heartbeat CPU 0 instructions: 1120000001 cycles: 459454485 heartbeat IPC: 2.501 cumulative IPC: 2.419 (Simulation time: 06 hr 20 min 00 sec)
Heartbeat CPU 3 instructions: 570000002 cycles: 460843769 heartbeat IPC: 1.896 cumulative IPC: 1.135 (Simulation time: 06 hr 21 min 14 sec)
Heartbeat CPU 2 instructions: 1060000001 cycles: 463190777 heartbeat IPC: 2.302 cumulative IPC: 2.224 (Simulation time: 06 hr 23 min 18 sec)
Heartbeat CPU 0 instructions: 1130000002 cycles: 463218629 heartbeat IPC: 2.657 cumulative IPC: 2.421 (Simulation time: 06 hr 23 min 19 sec)
Heartbeat CPU 3 instructions: 580000003 cycles: 466156519 heartbeat IPC: 1.882 cumulative IPC: 1.144 (Simulation time: 06 hr 25 min 54 sec)
Heartbeat CPU 0 instructions: 1140000000 cycles: 467095386 heartbeat IPC: 2.579 cumulative IPC: 2.423 (Simulation time: 06 hr 26 min 44 sec)
Heartbeat CPU 2 instructions: 1070000000 cycles: 467507427 heartbeat IPC: 2.317 cumulative IPC: 2.225 (Simulation time: 06 hr 27 min 07 sec)
Heartbeat CPU 0 instructions: 1150000000 cycles: 470949856 heartbeat IPC: 2.594 cumulative IPC: 2.424 (Simulation time: 06 hr 30 min 06 sec)
Heartbeat CPU 3 instructions: 590000000 cycles: 471429112 heartbeat IPC: 1.897 cumulative IPC: 1.152 (Simulation time: 06 hr 30 min 33 sec)
Heartbeat CPU 2 instructions: 1080000000 cycles: 471854134 heartbeat IPC: 2.301 cumulative IPC: 2.225 (Simulation time: 06 hr 30 min 55 sec)
Heartbeat CPU 0 instructions: 1160000000 cycles: 474730606 heartbeat IPC: 2.645 cumulative IPC: 2.426 (Simulation time: 06 hr 33 min 27 sec)
Heartbeat CPU 3 instructions: 600000002 cycles: 475849451 heartbeat IPC: 2.262 cumulative IPC: 1.163 (Simulation time: 06 hr 34 min 27 sec)
Heartbeat CPU 2 instructions: 1090000000 cycles: 476157847 heartbeat IPC: 2.324 cumulative IPC: 2.226 (Simulation time: 06 hr 34 min 44 sec)
Heartbeat CPU 0 instructions: 1170000000 cycles: 479282202 heartbeat IPC: 2.197 cumulative IPC: 2.424 (Simulation time: 06 hr 37 min 13 sec)
Heartbeat CPU 2 instructions: 1100000000 cycles: 480452010 heartbeat IPC: 2.329 cumulative IPC: 2.227 (Simulation time: 06 hr 38 min 07 sec)
Heartbeat CPU 0 instructions: 1180000004 cycles: 483541506 heartbeat IPC: 2.348 cumulative IPC: 2.423 (Simulation time: 06 hr 40 min 34 sec)
Heartbeat CPU 1 instructions: 190000003 cycles: 483851311 heartbeat IPC: 0.3549 cumulative IPC: 0.2864 (Simulation time: 06 hr 40 min 50 sec)
Heartbeat CPU 2 instructions: 1110000001 cycles: 484813052 heartbeat IPC: 2.293 cumulative IPC: 2.228 (Simulation time: 06 hr 41 min 40 sec)
Heartbeat CPU 0 instructions: 1190000001 cycles: 487304022 heartbeat IPC: 2.658 cumulative IPC: 2.425 (Simulation time: 06 hr 43 min 48 sec)
Heartbeat CPU 3 instructions: 610000004 cycles: 488359507 heartbeat IPC: 0.7994 cumulative IPC: 1.153 (Simulation time: 06 hr 44 min 40 sec)
Heartbeat CPU 2 instructions: 1120000004 cycles: 489128610 heartbeat IPC: 2.317 cumulative IPC: 2.229 (Simulation time: 06 hr 45 min 17 sec)
Heartbeat CPU 0 instructions: 1200000001 cycles: 491067934 heartbeat IPC: 2.657 cumulative IPC: 2.427 (Simulation time: 06 hr 46 min 48 sec)
Heartbeat CPU 2 instructions: 1130000000 cycles: 493543152 heartbeat IPC: 2.265 cumulative IPC: 2.229 (Simulation time: 06 hr 48 min 42 sec)
Heartbeat CPU 0 instructions: 1210000000 cycles: 494814825 heartbeat IPC: 2.669 cumulative IPC: 2.429 (Simulation time: 06 hr 49 min 41 sec)
Heartbeat CPU 2 instructions: 1140000002 cycles: 497931232 heartbeat IPC: 2.279 cumulative IPC: 2.229 (Simulation time: 06 hr 52 min 03 sec)
Heartbeat CPU 0 instructions: 1220000002 cycles: 498712811 heartbeat IPC: 2.565 cumulative IPC: 2.43 (Simulation time: 06 hr 52 min 39 sec)
Heartbeat CPU 2 instructions: 1150000000 cycles: 502210021 heartbeat IPC: 2.337 cumulative IPC: 2.23 (Simulation time: 06 hr 55 min 19 sec)
Heartbeat CPU 0 instructions: 1230000002 cycles: 502636144 heartbeat IPC: 2.549 cumulative IPC: 2.431 (Simulation time: 06 hr 55 min 38 sec)
Heartbeat CPU 0 instructions: 1240000003 cycles: 507174149 heartbeat IPC: 2.204 cumulative IPC: 2.429 (Simulation time: 06 hr 58 min 50 sec)
Heartbeat CPU 0 instructions: 1250000001 cycles: 511466937 heartbeat IPC: 2.329 cumulative IPC: 2.428 (Simulation time: 07 hr 01 min 55 sec)
Heartbeat CPU 2 instructions: 1160000001 cycles: 512311125 heartbeat IPC: 0.99 cumulative IPC: 2.205 (Simulation time: 07 hr 02 min 33 sec)
Heartbeat CPU 0 instructions: 1260000000 cycles: 515545792 heartbeat IPC: 2.452 cumulative IPC: 2.428 (Simulation time: 07 hr 04 min 58 sec)
Heartbeat CPU 2 instructions: 1170000004 cycles: 516740716 heartbeat IPC: 2.258 cumulative IPC: 2.206 (Simulation time: 07 hr 05 min 51 sec)
Heartbeat CPU 0 instructions: 1270000003 cycles: 519772210 heartbeat IPC: 2.366 cumulative IPC: 2.428 (Simulation time: 07 hr 08 min 08 sec)
Heartbeat CPU 2 instructions: 1180000001 cycles: 521056651 heartbeat IPC: 2.317 cumulative IPC: 2.206 (Simulation time: 07 hr 09 min 07 sec)
Heartbeat CPU 0 instructions: 1280000001 cycles: 523848597 heartbeat IPC: 2.453 cumulative IPC: 2.428 (Simulation time: 07 hr 11 min 13 sec)
Heartbeat CPU 2 instructions: 1190000001 cycles: 525465535 heartbeat IPC: 2.268 cumulative IPC: 2.207 (Simulation time: 07 hr 12 min 26 sec)
Heartbeat CPU 0 instructions: 1290000000 cycles: 527639879 heartbeat IPC: 2.638 cumulative IPC: 2.429 (Simulation time: 07 hr 14 min 12 sec)
Heartbeat CPU 3 instructions: 620000003 cycles: 529312173 heartbeat IPC: 0.2442 cumulative IPC: 1.081 (Simulation time: 07 hr 15 min 40 sec)
Heartbeat CPU 2 instructions: 1200000001 cycles: 529744871 heartbeat IPC: 2.337 cumulative IPC: 2.208 (Simulation time: 07 hr 16 min 04 sec)
Heartbeat CPU 0 instructions: 1300000001 cycles: 531261522 heartbeat IPC: 2.761 cumulative IPC: 2.432 (Simulation time: 07 hr 17 min 22 sec)
Heartbeat CPU 1 instructions: 200000000 cycles: 533117010 heartbeat IPC: 0.203 cumulative IPC: 0.2784 (Simulation time: 07 hr 19 min 05 sec)
Heartbeat CPU 3 instructions: 630000000 cycles: 533843730 heartbeat IPC: 2.207 cumulative IPC: 1.091 (Simulation time: 07 hr 19 min 47 sec)
Heartbeat CPU 2 instructions: 1210000002 cycles: 534045048 heartbeat IPC: 2.325 cumulative IPC: 2.209 (Simulation time: 07 hr 19 min 58 sec)
Heartbeat CPU 0 instructions: 1310000001 cycles: 534886278 heartbeat IPC: 2.759 cumulative IPC: 2.434 (Simulation time: 07 hr 20 min 45 sec)
Heartbeat CPU 3 instructions: 640000004 cycles: 537576885 heartbeat IPC: 2.679 cumulative IPC: 1.102 (Simulation time: 07 hr 23 min 16 sec)
Heartbeat CPU 2 instructions: 1220000003 cycles: 538385337 heartbeat IPC: 2.304 cumulative IPC: 2.21 (Simulation time: 07 hr 24 min 01 sec)
Heartbeat CPU 0 instructions: 1320000003 cycles: 538589124 heartbeat IPC: 2.701 cumulative IPC: 2.436 (Simulation time: 07 hr 24 min 12 sec)
Heartbeat CPU 3 instructions: 650000000 cycles: 541856339 heartbeat IPC: 2.337 cumulative IPC: 1.112 (Simulation time: 07 hr 27 min 10 sec)
Heartbeat CPU 0 instructions: 1330000000 cycles: 542231121 heartbeat IPC: 2.746 cumulative IPC: 2.438 (Simulation time: 07 hr 27 min 31 sec)
Heartbeat CPU 2 instructions: 1230000000 cycles: 542673211 heartbeat IPC: 2.332 cumulative IPC: 2.211 (Simulation time: 07 hr 27 min 55 sec)
Heartbeat CPU 0 instructions: 1340000003 cycles: 545877885 heartbeat IPC: 2.742 cumulative IPC: 2.44 (Simulation time: 07 hr 30 min 50 sec)
Heartbeat CPU 2 instructions: 1240000002 cycles: 546986775 heartbeat IPC: 2.318 cumulative IPC: 2.212 (Simulation time: 07 hr 31 min 51 sec)
Heartbeat CPU 3 instructions: 660000001 cycles: 547118476 heartbeat IPC: 1.9 cumulative IPC: 1.12 (Simulation time: 07 hr 31 min 59 sec)
Heartbeat CPU 0 instructions: 1350000002 cycles: 549511412 heartbeat IPC: 2.752 cumulative IPC: 2.442 (Simulation time: 07 hr 34 min 09 sec)
Simulation finished CPU 1 instructions: 150000000 cycles: 533281898 cumulative IPC: 0.2813 (Simulation time: 07 hr 35 min 03 sec)
Simulation complete CPU 0 instructions: 1302708248 cycles: 533281898 cumulative IPC: 2.443 (Simulation time: 07 hr 35 min 03 sec)
Simulation complete CPU 1 instructions: 150000000 cycles: 533281898 cumulative IPC: 0.2813 (Simulation time: 07 hr 35 min 03 sec)
Simulation complete CPU 2 instructions: 1179775071 cycles: 533281898 cumulative IPC: 2.212 (Simulation time: 07 hr 35 min 03 sec)
Simulation complete CPU 3 instructions: 599885008 cycles: 533281898 cumulative IPC: 1.125 (Simulation time: 07 hr 35 min 03 sec)

ChampSim completed all CPUs

=== Simulation ===
CPU 0 runs /home/grads/r/rdas40/dpc3_traces/644.nab_s-5853B.champsimtrace.xzCPU 1 runs /home/grads/r/rdas40/dpc3_traces/619.lbm_s-4268B.champsimtrace.xzCPU 2 runs /home/grads/r/rdas40/dpc3_traces/603.bwaves_s-3699B.champsimtrace.xzCPU 3 runs /home/grads/r/rdas40/dpc3_traces/627.cam4_s-573B.champsimtrace.xz
Total Simulation Statistics (not including warmup)

CPU 0 cumulative IPC: 2.443 instructions: 1302708248 cycles: 533281898
CPU 0 Branch Prediction Accuracy: 87.98% MPKI: 11.64 Average ROB Occupancy at Mispredict: 196.9
Branch type MPKI
BRANCH_DIRECT_JUMP: 0.000117
BRANCH_INDIRECT: 7.68e-07
BRANCH_CONDITIONAL: 6.11
BRANCH_DIRECT_CALL: 7.68e-07
BRANCH_INDIRECT_CALL: 0
BRANCH_RETURN: 5.53


CPU 1 cumulative IPC: 0.2813 instructions: 150000000 cycles: 533281898
CPU 1 Branch Prediction Accuracy: 97.12% MPKI: 0.5201 Average ROB Occupancy at Mispredict: 246.2
Branch type MPKI
BRANCH_DIRECT_JUMP: 0
BRANCH_INDIRECT: 0
BRANCH_CONDITIONAL: 0.52
BRANCH_DIRECT_CALL: 0
BRANCH_INDIRECT_CALL: 0
BRANCH_RETURN: 0


CPU 2 cumulative IPC: 2.212 instructions: 1179775071 cycles: 533281898
CPU 2 Branch Prediction Accuracy: 90.07% MPKI: 14.43 Average ROB Occupancy at Mispredict: 30.19
Branch type MPKI
BRANCH_DIRECT_JUMP: 0.0569
BRANCH_INDIRECT: 0
BRANCH_CONDITIONAL: 14.3
BRANCH_DIRECT_CALL: 0
BRANCH_INDIRECT_CALL: 0
BRANCH_RETURN: 0.062


CPU 3 cumulative IPC: 1.125 instructions: 599885008 cycles: 533281898
CPU 3 Branch Prediction Accuracy: 94.65% MPKI: 7.1 Average ROB Occupancy at Mispredict: 67.38
Branch type MPKI
BRANCH_DIRECT_JUMP: 0.00525
BRANCH_INDIRECT: 0.00151
BRANCH_CONDITIONAL: 6.43
BRANCH_DIRECT_CALL: 0.018
BRANCH_INDIRECT_CALL: 0
BRANCH_RETURN: 0.645

LLC TOTAL        ACCESS:    1571167 HIT:    1116461 MISS:     454706
LLC LOAD         ACCESS:     156420 HIT:     131558 MISS:      24862
LLC RFO          ACCESS:        558 HIT:        213 MISS:        345
LLC PREFETCH     ACCESS:    1401796 HIT:     984454 MISS:     417342
LLC WRITE        ACCESS:       8386 HIT:        225 MISS:       8161
LLC TRANSLATION  ACCESS:       4007 HIT:         11 MISS:       3996
LLC PREFETCH REQUESTED:          0 ISSUED:          0 USEFUL:          0 USELESS:          0
LLC AVERAGE MISS LATENCY: 1368 cycles
LLC TOTAL        ACCESS:   17518545 HIT:    6807256 MISS:   10711289
LLC LOAD         ACCESS:    1334108 HIT:     431835 MISS:     902273
LLC RFO          ACCESS:    5444466 HIT:      60956 MISS:    5383510
LLC PREFETCH     ACCESS:    5294739 HIT:     870040 MISS:    4424699
LLC WRITE        ACCESS:    5444417 HIT:    5444412 MISS:          5
LLC TRANSLATION  ACCESS:        815 HIT:         13 MISS:        802
LLC PREFETCH REQUESTED:          0 ISSUED:          0 USEFUL:          0 USELESS:          0
LLC AVERAGE MISS LATENCY: 1368 cycles
LLC TOTAL        ACCESS:     538910 HIT:     156408 MISS:     382502
LLC LOAD         ACCESS:      19584 HIT:      15944 MISS:       3640
LLC RFO          ACCESS:     178355 HIT:        113 MISS:     178242
LLC PREFETCH     ACCESS:     162468 HIT:      63481 MISS:      98987
LLC WRITE        ACCESS:     178480 HIT:      76869 MISS:     101611
LLC TRANSLATION  ACCESS:         23 HIT:          1 MISS:         22
LLC PREFETCH REQUESTED:          0 ISSUED:          0 USEFUL:          0 USELESS:          0
LLC AVERAGE MISS LATENCY: 1368 cycles
LLC TOTAL        ACCESS:    7267985 HIT:    3645711 MISS:    3622274
LLC LOAD         ACCESS:     375688 HIT:     164445 MISS:     211243
LLC RFO          ACCESS:    2928095 HIT:      52479 MISS:    2875616
LLC PREFETCH     ACCESS:     979662 HIT:     514370 MISS:     465292
LLC WRITE        ACCESS:    2974798 HIT:    2913670 MISS:      61128
LLC TRANSLATION  ACCESS:       9742 HIT:        747 MISS:       8995
LLC PREFETCH REQUESTED:          0 ISSUED:          0 USEFUL:          0 USELESS:          0
LLC AVERAGE MISS LATENCY: 1368 cycles
cpu0_DTLB TOTAL        ACCESS:  228350319 HIT:  226029913 MISS:    2320406
cpu0_DTLB LOAD         ACCESS:  228350319 HIT:  226029913 MISS:    2320406
cpu0_DTLB RFO          ACCESS:          0 HIT:          0 MISS:          0
cpu0_DTLB PREFETCH     ACCESS:          0 HIT:          0 MISS:          0
cpu0_DTLB WRITE        ACCESS:          0 HIT:          0 MISS:          0
cpu0_DTLB TRANSLATION  ACCESS:          0 HIT:          0 MISS:          0
cpu0_DTLB PREFETCH REQUESTED:          0 ISSUED:          0 USEFUL:          0 USELESS:          0
cpu0_DTLB AVERAGE MISS LATENCY: 11.84 cycles
cpu0_DTLB TOTAL        ACCESS:          0 HIT:          0 MISS:          0
cpu0_DTLB LOAD         ACCESS:          0 HIT:          0 MISS:          0
cpu0_DTLB RFO          ACCESS:          0 HIT:          0 MISS:          0
cpu0_DTLB PREFETCH     ACCESS:          0 HIT:          0 MISS:          0
cpu0_DTLB WRITE        ACCESS:          0 HIT:          0 MISS:          0
cpu0_DTLB TRANSLATION  ACCESS:          0 HIT:          0 MISS:          0
cpu0_DTLB PREFETCH REQUESTED:          0 ISSUED:          0 USEFUL:          0 USELESS:          0
cpu0_DTLB AVERAGE MISS LATENCY: 11.84 cycles
cpu0_DTLB TOTAL        ACCESS:          0 HIT:          0 MISS:          0
cpu0_DTLB LOAD         ACCESS:          0 HIT:          0 MISS:          0
cpu0_DTLB RFO          ACCESS:          0 HIT:          0 MISS:          0
cpu0_DTLB PREFETCH     ACCESS:          0 HIT:          0 MISS:          0
cpu0_DTLB WRITE        ACCESS:          0 HIT:          0 MISS:          0
cpu0_DTLB TRANSLATION  ACCESS:          0 HIT:          0 MISS:          0
cpu0_DTLB PREFETCH REQUESTED:          0 ISSUED:          0 USEFUL:          0 USELESS:          0
cpu0_DTLB AVERAGE MISS LATENCY: 11.84 cycles
cpu0_DTLB TOTAL        ACCESS:          0 HIT:          0 MISS:          0
cpu0_DTLB LOAD         ACCESS:          0 HIT:          0 MISS:          0
cpu0_DTLB RFO          ACCESS:          0 HIT:          0 MISS:          0
cpu0_DTLB PREFETCH     ACCESS:          0 HIT:          0 MISS:          0
cpu0_DTLB WRITE        ACCESS:          0 HIT:          0 MISS:          0
cpu0_DTLB TRANSLATION  ACCESS:          0 HIT:          0 MISS:          0
cpu0_DTLB PREFETCH REQUESTED:          0 ISSUED:          0 USEFUL:          0 USELESS:          0
cpu0_DTLB AVERAGE MISS LATENCY: 11.84 cycles
cpu0_ITLB TOTAL        ACCESS:      11959 HIT:      11959 MISS:          0
cpu0_ITLB LOAD         ACCESS:      11959 HIT:      11959 MISS:          0
cpu0_ITLB RFO          ACCESS:          0 HIT:          0 MISS:          0
cpu0_ITLB PREFETCH     ACCESS:          0 HIT:          0 MISS:          0
cpu0_ITLB WRITE        ACCESS:          0 HIT:          0 MISS:          0
cpu0_ITLB TRANSLATION  ACCESS:          0 HIT:          0 MISS:          0
cpu0_ITLB PREFETCH REQUESTED:          0 ISSUED:          0 USEFUL:          0 USELESS:          0
cpu0_ITLB AVERAGE MISS LATENCY: -nan cycles
cpu0_ITLB TOTAL        ACCESS:          0 HIT:          0 MISS:          0
cpu0_ITLB LOAD         ACCESS:          0 HIT:          0 MISS:          0
cpu0_ITLB RFO          ACCESS:          0 HIT:          0 MISS:          0
cpu0_ITLB PREFETCH     ACCESS:          0 HIT:          0 MISS:          0
cpu0_ITLB WRITE        ACCESS:          0 HIT:          0 MISS:          0
cpu0_ITLB TRANSLATION  ACCESS:          0 HIT:          0 MISS:          0
cpu0_ITLB PREFETCH REQUESTED:          0 ISSUED:          0 USEFUL:          0 USELESS:          0
cpu0_ITLB AVERAGE MISS LATENCY: -nan cycles
cpu0_ITLB TOTAL        ACCESS:          0 HIT:          0 MISS:          0
cpu0_ITLB LOAD         ACCESS:          0 HIT:          0 MISS:          0
cpu0_ITLB RFO          ACCESS:          0 HIT:          0 MISS:          0
cpu0_ITLB PREFETCH     ACCESS:          0 HIT:          0 MISS:          0
cpu0_ITLB WRITE        ACCESS:          0 HIT:          0 MISS:          0
cpu0_ITLB TRANSLATION  ACCESS:          0 HIT:          0 MISS:          0
cpu0_ITLB PREFETCH REQUESTED:          0 ISSUED:          0 USEFUL:          0 USELESS:          0
cpu0_ITLB AVERAGE MISS LATENCY: -nan cycles
cpu0_ITLB TOTAL        ACCESS:          0 HIT:          0 MISS:          0
cpu0_ITLB LOAD         ACCESS:          0 HIT:          0 MISS:          0
cpu0_ITLB RFO          ACCESS:          0 HIT:          0 MISS:          0
cpu0_ITLB PREFETCH     ACCESS:          0 HIT:          0 MISS:          0
cpu0_ITLB WRITE        ACCESS:          0 HIT:          0 MISS:          0
cpu0_ITLB TRANSLATION  ACCESS:          0 HIT:          0 MISS:          0
cpu0_ITLB PREFETCH REQUESTED:          0 ISSUED:          0 USEFUL:          0 USELESS:          0
cpu0_ITLB AVERAGE MISS LATENCY: -nan cycles
cpu0_L1D TOTAL        ACCESS:  305782924 HIT:  300499146 MISS:    5283778
cpu0_L1D LOAD         ACCESS:  165311030 HIT:  160102068 MISS:    5208962
cpu0_L1D RFO          ACCESS:          0 HIT:          0 MISS:          0
cpu0_L1D PREFETCH     ACCESS:          0 HIT:          0 MISS:          0
cpu0_L1D WRITE        ACCESS:  140461937 HIT:  140396799 MISS:      65138
cpu0_L1D TRANSLATION  ACCESS:       9957 HIT:        279 MISS:       9678
cpu0_L1D PREFETCH REQUESTED:          0 ISSUED:          0 USEFUL:          0 USELESS:          0
cpu0_L1D AVERAGE MISS LATENCY: 20.91 cycles
cpu0_L1D TOTAL        ACCESS:          0 HIT:          0 MISS:          0
cpu0_L1D LOAD         ACCESS:          0 HIT:          0 MISS:          0
cpu0_L1D RFO          ACCESS:          0 HIT:          0 MISS:          0
cpu0_L1D PREFETCH     ACCESS:          0 HIT:          0 MISS:          0
cpu0_L1D WRITE        ACCESS:          0 HIT:          0 MISS:          0
cpu0_L1D TRANSLATION  ACCESS:          0 HIT:          0 MISS:          0
cpu0_L1D PREFETCH REQUESTED:          0 ISSUED:          0 USEFUL:          0 USELESS:          0
cpu0_L1D AVERAGE MISS LATENCY: 20.91 cycles
cpu0_L1D TOTAL        ACCESS:          0 HIT:          0 MISS:          0
cpu0_L1D LOAD         ACCESS:          0 HIT:          0 MISS:          0
cpu0_L1D RFO          ACCESS:          0 HIT:          0 MISS:          0
cpu0_L1D PREFETCH     ACCESS:          0 HIT:          0 MISS:          0
cpu0_L1D WRITE        ACCESS:          0 HIT:          0 MISS:          0
cpu0_L1D TRANSLATION  ACCESS:          0 HIT:          0 MISS:          0
cpu0_L1D PREFETCH REQUESTED:          0 ISSUED:          0 USEFUL:          0 USELESS:          0
cpu0_L1D AVERAGE MISS LATENCY: 20.91 cycles
cpu0_L1D TOTAL        ACCESS:          0 HIT:          0 MISS:          0
cpu0_L1D LOAD         ACCESS:          0 HIT:          0 MISS:          0
cpu0_L1D RFO          ACCESS:          0 HIT:          0 MISS:          0
cpu0_L1D PREFETCH     ACCESS:          0 HIT:          0 MISS:          0
cpu0_L1D WRITE        ACCESS:          0 HIT:          0 MISS:          0
cpu0_L1D TRANSLATION  ACCESS:          0 HIT:          0 MISS:          0
cpu0_L1D PREFETCH REQUESTED:          0 ISSUED:          0 USEFUL:          0 USELESS:          0
cpu0_L1D AVERAGE MISS LATENCY: 20.91 cycles
cpu0_L1I TOTAL        ACCESS:      14570 HIT:      14568 MISS:          2
cpu0_L1I LOAD         ACCESS:      14570 HIT:      14568 MISS:          2
cpu0_L1I RFO          ACCESS:          0 HIT:          0 MISS:          0
cpu0_L1I PREFETCH     ACCESS:          0 HIT:          0 MISS:          0
cpu0_L1I WRITE        ACCESS:          0 HIT:          0 MISS:          0
cpu0_L1I TRANSLATION  ACCESS:          0 HIT:          0 MISS:          0
cpu0_L1I PREFETCH REQUESTED:          0 ISSUED:          0 USEFUL:          0 USELESS:          0
cpu0_L1I AVERAGE MISS LATENCY: 1500 cycles
cpu0_L1I TOTAL        ACCESS:          0 HIT:          0 MISS:          0
cpu0_L1I LOAD         ACCESS:          0 HIT:          0 MISS:          0
cpu0_L1I RFO          ACCESS:          0 HIT:          0 MISS:          0
cpu0_L1I PREFETCH     ACCESS:          0 HIT:          0 MISS:          0
cpu0_L1I WRITE        ACCESS:          0 HIT:          0 MISS:          0
cpu0_L1I TRANSLATION  ACCESS:          0 HIT:          0 MISS:          0
cpu0_L1I PREFETCH REQUESTED:          0 ISSUED:          0 USEFUL:          0 USELESS:          0
cpu0_L1I AVERAGE MISS LATENCY: 1500 cycles
cpu0_L1I TOTAL        ACCESS:          0 HIT:          0 MISS:          0
cpu0_L1I LOAD         ACCESS:          0 HIT:          0 MISS:          0
cpu0_L1I RFO          ACCESS:          0 HIT:          0 MISS:          0
cpu0_L1I PREFETCH     ACCESS:          0 HIT:          0 MISS:          0
cpu0_L1I WRITE        ACCESS:          0 HIT:          0 MISS:          0
cpu0_L1I TRANSLATION  ACCESS:          0 HIT:          0 MISS:          0
cpu0_L1I PREFETCH REQUESTED:          0 ISSUED:          0 USEFUL:          0 USELESS:          0
cpu0_L1I AVERAGE MISS LATENCY: 1500 cycles
cpu0_L1I TOTAL        ACCESS:          0 HIT:          0 MISS:          0
cpu0_L1I LOAD         ACCESS:          0 HIT:          0 MISS:          0
cpu0_L1I RFO          ACCESS:          0 HIT:          0 MISS:          0
cpu0_L1I PREFETCH     ACCESS:          0 HIT:          0 MISS:          0
cpu0_L1I WRITE        ACCESS:          0 HIT:          0 MISS:          0
cpu0_L1I TRANSLATION  ACCESS:          0 HIT:          0 MISS:          0
cpu0_L1I PREFETCH REQUESTED:          0 ISSUED:          0 USEFUL:          0 USELESS:          0
cpu0_L1I AVERAGE MISS LATENCY: 1500 cycles
cpu0_L2C TOTAL        ACCESS:   28253055 HIT:   26587598 MISS:    1665457
cpu0_L2C LOAD         ACCESS:    5197912 HIT:    5040114 MISS:     157798
cpu0_L2C RFO          ACCESS:      16914 HIT:      16356 MISS:        558
cpu0_L2C PREFETCH     ACCESS:   21233909 HIT:   19730820 MISS:    1503089
cpu0_L2C WRITE        ACCESS:    1794642 HIT:    1794637 MISS:          5
cpu0_L2C TRANSLATION  ACCESS:       9678 HIT:       5671 MISS:       4007
cpu0_L2C PREFETCH REQUESTED:   21234813 ISSUED:   21233912 USEFUL:     100592 USELESS:       2506
cpu0_L2C AVERAGE MISS LATENCY: 39.73 cycles
cpu0_L2C TOTAL        ACCESS:          0 HIT:          0 MISS:          0
cpu0_L2C LOAD         ACCESS:          0 HIT:          0 MISS:          0
cpu0_L2C RFO          ACCESS:          0 HIT:          0 MISS:          0
cpu0_L2C PREFETCH     ACCESS:          0 HIT:          0 MISS:          0
cpu0_L2C WRITE        ACCESS:          0 HIT:          0 MISS:          0
cpu0_L2C TRANSLATION  ACCESS:          0 HIT:          0 MISS:          0
cpu0_L2C PREFETCH REQUESTED:   21234813 ISSUED:   21233912 USEFUL:     100592 USELESS:       2506
cpu0_L2C AVERAGE MISS LATENCY: 39.73 cycles
cpu0_L2C TOTAL        ACCESS:          0 HIT:          0 MISS:          0
cpu0_L2C LOAD         ACCESS:          0 HIT:          0 MISS:          0
cpu0_L2C RFO          ACCESS:          0 HIT:          0 MISS:          0
cpu0_L2C PREFETCH     ACCESS:          0 HIT:          0 MISS:          0
cpu0_L2C WRITE        ACCESS:          0 HIT:          0 MISS:          0
cpu0_L2C TRANSLATION  ACCESS:          0 HIT:          0 MISS:          0
cpu0_L2C PREFETCH REQUESTED:   21234813 ISSUED:   21233912 USEFUL:     100592 USELESS:       2506
cpu0_L2C AVERAGE MISS LATENCY: 39.73 cycles
cpu0_L2C TOTAL        ACCESS:          0 HIT:          0 MISS:          0
cpu0_L2C LOAD         ACCESS:          0 HIT:          0 MISS:          0
cpu0_L2C RFO          ACCESS:          0 HIT:          0 MISS:          0
cpu0_L2C PREFETCH     ACCESS:          0 HIT:          0 MISS:          0
cpu0_L2C WRITE        ACCESS:          0 HIT:          0 MISS:          0
cpu0_L2C TRANSLATION  ACCESS:          0 HIT:          0 MISS:          0
cpu0_L2C PREFETCH REQUESTED:   21234813 ISSUED:   21233912 USEFUL:     100592 USELESS:       2506
cpu0_L2C AVERAGE MISS LATENCY: 39.73 cycles
cpu0_STLB TOTAL        ACCESS:    2225516 HIT:    2215891 MISS:       9625
cpu0_STLB LOAD         ACCESS:    2225516 HIT:    2215891 MISS:       9625
cpu0_STLB RFO          ACCESS:          0 HIT:          0 MISS:          0
cpu0_STLB PREFETCH     ACCESS:          0 HIT:          0 MISS:          0
cpu0_STLB WRITE        ACCESS:          0 HIT:          0 MISS:          0
cpu0_STLB TRANSLATION  ACCESS:          0 HIT:          0 MISS:          0
cpu0_STLB PREFETCH REQUESTED:          0 ISSUED:          0 USEFUL:          0 USELESS:          0
cpu0_STLB AVERAGE MISS LATENCY: 1073 cycles
cpu0_STLB TOTAL        ACCESS:          0 HIT:          0 MISS:          0
cpu0_STLB LOAD         ACCESS:          0 HIT:          0 MISS:          0
cpu0_STLB RFO          ACCESS:          0 HIT:          0 MISS:          0
cpu0_STLB PREFETCH     ACCESS:          0 HIT:          0 MISS:          0
cpu0_STLB WRITE        ACCESS:          0 HIT:          0 MISS:          0
cpu0_STLB TRANSLATION  ACCESS:          0 HIT:          0 MISS:          0
cpu0_STLB PREFETCH REQUESTED:          0 ISSUED:          0 USEFUL:          0 USELESS:          0
cpu0_STLB AVERAGE MISS LATENCY: 1073 cycles
cpu0_STLB TOTAL        ACCESS:          0 HIT:          0 MISS:          0
cpu0_STLB LOAD         ACCESS:          0 HIT:          0 MISS:          0
cpu0_STLB RFO          ACCESS:          0 HIT:          0 MISS:          0
cpu0_STLB PREFETCH     ACCESS:          0 HIT:          0 MISS:          0
cpu0_STLB WRITE        ACCESS:          0 HIT:          0 MISS:          0
cpu0_STLB TRANSLATION  ACCESS:          0 HIT:          0 MISS:          0
cpu0_STLB PREFETCH REQUESTED:          0 ISSUED:          0 USEFUL:          0 USELESS:          0
cpu0_STLB AVERAGE MISS LATENCY: 1073 cycles
cpu0_STLB TOTAL        ACCESS:          0 HIT:          0 MISS:          0
cpu0_STLB LOAD         ACCESS:          0 HIT:          0 MISS:          0
cpu0_STLB RFO          ACCESS:          0 HIT:          0 MISS:          0
cpu0_STLB PREFETCH     ACCESS:          0 HIT:          0 MISS:          0
cpu0_STLB WRITE        ACCESS:          0 HIT:          0 MISS:          0
cpu0_STLB TRANSLATION  ACCESS:          0 HIT:          0 MISS:          0
cpu0_STLB PREFETCH REQUESTED:          0 ISSUED:          0 USEFUL:          0 USELESS:          0
cpu0_STLB AVERAGE MISS LATENCY: 1073 cycles
cpu1_DTLB TOTAL        ACCESS:          0 HIT:          0 MISS:          0
cpu1_DTLB LOAD         ACCESS:          0 HIT:          0 MISS:          0
cpu1_DTLB RFO          ACCESS:          0 HIT:          0 MISS:          0
cpu1_DTLB PREFETCH     ACCESS:          0 HIT:          0 MISS:          0
cpu1_DTLB WRITE        ACCESS:          0 HIT:          0 MISS:          0
cpu1_DTLB TRANSLATION  ACCESS:          0 HIT:          0 MISS:          0
cpu1_DTLB PREFETCH REQUESTED:          0 ISSUED:          0 USEFUL:          0 USELESS:          0
cpu1_DTLB AVERAGE MISS LATENCY: 55.1 cycles
cpu1_DTLB TOTAL        ACCESS:   24425110 HIT:   24101178 MISS:     323932
cpu1_DTLB LOAD         ACCESS:   24425110 HIT:   24101178 MISS:     323932
cpu1_DTLB RFO          ACCESS:          0 HIT:          0 MISS:          0
cpu1_DTLB PREFETCH     ACCESS:          0 HIT:          0 MISS:          0
cpu1_DTLB WRITE        ACCESS:          0 HIT:          0 MISS:          0
cpu1_DTLB TRANSLATION  ACCESS:          0 HIT:          0 MISS:          0
cpu1_DTLB PREFETCH REQUESTED:          0 ISSUED:          0 USEFUL:          0 USELESS:          0
cpu1_DTLB AVERAGE MISS LATENCY: 55.1 cycles
cpu1_DTLB TOTAL        ACCESS:          0 HIT:          0 MISS:          0
cpu1_DTLB LOAD         ACCESS:          0 HIT:          0 MISS:          0
cpu1_DTLB RFO          ACCESS:          0 HIT:          0 MISS:          0
cpu1_DTLB PREFETCH     ACCESS:          0 HIT:          0 MISS:          0
cpu1_DTLB WRITE        ACCESS:          0 HIT:          0 MISS:          0
cpu1_DTLB TRANSLATION  ACCESS:          0 HIT:          0 MISS:          0
cpu1_DTLB PREFETCH REQUESTED:          0 ISSUED:          0 USEFUL:          0 USELESS:          0
cpu1_DTLB AVERAGE MISS LATENCY: 55.1 cycles
cpu1_DTLB TOTAL        ACCESS:          0 HIT:          0 MISS:          0
cpu1_DTLB LOAD         ACCESS:          0 HIT:          0 MISS:          0
cpu1_DTLB RFO          ACCESS:          0 HIT:          0 MISS:          0
cpu1_DTLB PREFETCH     ACCESS:          0 HIT:          0 MISS:          0
cpu1_DTLB WRITE        ACCESS:          0 HIT:          0 MISS:          0
cpu1_DTLB TRANSLATION  ACCESS:          0 HIT:          0 MISS:          0
cpu1_DTLB PREFETCH REQUESTED:          0 ISSUED:          0 USEFUL:          0 USELESS:          0
cpu1_DTLB AVERAGE MISS LATENCY: 55.1 cycles
cpu1_ITLB TOTAL        ACCESS:          0 HIT:          0 MISS:          0
cpu1_ITLB LOAD         ACCESS:          0 HIT:          0 MISS:          0
cpu1_ITLB RFO          ACCESS:          0 HIT:          0 MISS:          0
cpu1_ITLB PREFETCH     ACCESS:          0 HIT:          0 MISS:          0
cpu1_ITLB WRITE        ACCESS:          0 HIT:          0 MISS:          0
cpu1_ITLB TRANSLATION  ACCESS:          0 HIT:          0 MISS:          0
cpu1_ITLB PREFETCH REQUESTED:          0 ISSUED:          0 USEFUL:          0 USELESS:          0
cpu1_ITLB AVERAGE MISS LATENCY: -nan cycles
cpu1_ITLB TOTAL        ACCESS:          0 HIT:          0 MISS:          0
cpu1_ITLB LOAD         ACCESS:          0 HIT:          0 MISS:          0
cpu1_ITLB RFO          ACCESS:          0 HIT:          0 MISS:          0
cpu1_ITLB PREFETCH     ACCESS:          0 HIT:          0 MISS:          0
cpu1_ITLB WRITE        ACCESS:          0 HIT:          0 MISS:          0
cpu1_ITLB TRANSLATION  ACCESS:          0 HIT:          0 MISS:          0
cpu1_ITLB PREFETCH REQUESTED:          0 ISSUED:          0 USEFUL:          0 USELESS:          0
cpu1_ITLB AVERAGE MISS LATENCY: -nan cycles
cpu1_ITLB TOTAL        ACCESS:          0 HIT:          0 MISS:          0
cpu1_ITLB LOAD         ACCESS:          0 HIT:          0 MISS:          0
cpu1_ITLB RFO          ACCESS:          0 HIT:          0 MISS:          0
cpu1_ITLB PREFETCH     ACCESS:          0 HIT:          0 MISS:          0
cpu1_ITLB WRITE        ACCESS:          0 HIT:          0 MISS:          0
cpu1_ITLB TRANSLATION  ACCESS:          0 HIT:          0 MISS:          0
cpu1_ITLB PREFETCH REQUESTED:          0 ISSUED:          0 USEFUL:          0 USELESS:          0
cpu1_ITLB AVERAGE MISS LATENCY: -nan cycles
cpu1_ITLB TOTAL        ACCESS:          0 HIT:          0 MISS:          0
cpu1_ITLB LOAD         ACCESS:          0 HIT:          0 MISS:          0
cpu1_ITLB RFO          ACCESS:          0 HIT:          0 MISS:          0
cpu1_ITLB PREFETCH     ACCESS:          0 HIT:          0 MISS:          0
cpu1_ITLB WRITE        ACCESS:          0 HIT:          0 MISS:          0
cpu1_ITLB TRANSLATION  ACCESS:          0 HIT:          0 MISS:          0
cpu1_ITLB PREFETCH REQUESTED:          0 ISSUED:          0 USEFUL:          0 USELESS:          0
cpu1_ITLB AVERAGE MISS LATENCY: -nan cycles
cpu1_L1D TOTAL        ACCESS:          0 HIT:          0 MISS:          0
cpu1_L1D LOAD         ACCESS:          0 HIT:          0 MISS:          0
cpu1_L1D RFO          ACCESS:          0 HIT:          0 MISS:          0
cpu1_L1D PREFETCH     ACCESS:          0 HIT:          0 MISS:          0
cpu1_L1D WRITE        ACCESS:          0 HIT:          0 MISS:          0
cpu1_L1D TRANSLATION  ACCESS:          0 HIT:          0 MISS:          0
cpu1_L1D PREFETCH REQUESTED:          0 ISSUED:          0 USEFUL:          0 USELESS:          0
cpu1_L1D AVERAGE MISS LATENCY: 679 cycles
cpu1_L1D TOTAL        ACCESS:   33522722 HIT:   19327210 MISS:   14195512
cpu1_L1D LOAD         ACCESS:    5809332 HIT:    2928387 MISS:    2880945
cpu1_L1D RFO          ACCESS:          0 HIT:          0 MISS:          0
cpu1_L1D PREFETCH     ACCESS:          0 HIT:          0 MISS:          0
cpu1_L1D WRITE        ACCESS:   27601088 HIT:   16398631 MISS:   11202457
cpu1_L1D TRANSLATION  ACCESS:     112302 HIT:        192 MISS:     112110
cpu1_L1D PREFETCH REQUESTED:          0 ISSUED:          0 USEFUL:          0 USELESS:          0
cpu1_L1D AVERAGE MISS LATENCY: 679 cycles
cpu1_L1D TOTAL        ACCESS:          0 HIT:          0 MISS:          0
cpu1_L1D LOAD         ACCESS:          0 HIT:          0 MISS:          0
cpu1_L1D RFO          ACCESS:          0 HIT:          0 MISS:          0
cpu1_L1D PREFETCH     ACCESS:          0 HIT:          0 MISS:          0
cpu1_L1D WRITE        ACCESS:          0 HIT:          0 MISS:          0
cpu1_L1D TRANSLATION  ACCESS:          0 HIT:          0 MISS:          0
cpu1_L1D PREFETCH REQUESTED:          0 ISSUED:          0 USEFUL:          0 USELESS:          0
cpu1_L1D AVERAGE MISS LATENCY: 679 cycles
cpu1_L1D TOTAL        ACCESS:          0 HIT:          0 MISS:          0
cpu1_L1D LOAD         ACCESS:          0 HIT:          0 MISS:          0
cpu1_L1D RFO          ACCESS:          0 HIT:          0 MISS:          0
cpu1_L1D PREFETCH     ACCESS:          0 HIT:          0 MISS:          0
cpu1_L1D WRITE        ACCESS:          0 HIT:          0 MISS:          0
cpu1_L1D TRANSLATION  ACCESS:          0 HIT:          0 MISS:          0
cpu1_L1D PREFETCH REQUESTED:          0 ISSUED:          0 USEFUL:          0 USELESS:          0
cpu1_L1D AVERAGE MISS LATENCY: 679 cycles
cpu1_L1I TOTAL        ACCESS:          0 HIT:          0 MISS:          0
cpu1_L1I LOAD         ACCESS:          0 HIT:          0 MISS:          0
cpu1_L1I RFO          ACCESS:          0 HIT:          0 MISS:          0
cpu1_L1I PREFETCH     ACCESS:          0 HIT:          0 MISS:          0
cpu1_L1I WRITE        ACCESS:          0 HIT:          0 MISS:          0
cpu1_L1I TRANSLATION  ACCESS:          0 HIT:          0 MISS:          0
cpu1_L1I PREFETCH REQUESTED:          0 ISSUED:          0 USEFUL:          0 USELESS:          0
cpu1_L1I AVERAGE MISS LATENCY: -nan cycles
cpu1_L1I TOTAL        ACCESS:          0 HIT:          0 MISS:          0
cpu1_L1I LOAD         ACCESS:          0 HIT:          0 MISS:          0
cpu1_L1I RFO          ACCESS:          0 HIT:          0 MISS:          0
cpu1_L1I PREFETCH     ACCESS:          0 HIT:          0 MISS:          0
cpu1_L1I WRITE        ACCESS:          0 HIT:          0 MISS:          0
cpu1_L1I TRANSLATION  ACCESS:          0 HIT:          0 MISS:          0
cpu1_L1I PREFETCH REQUESTED:          0 ISSUED:          0 USEFUL:          0 USELESS:          0
cpu1_L1I AVERAGE MISS LATENCY: -nan cycles
cpu1_L1I TOTAL        ACCESS:          0 HIT:          0 MISS:          0
cpu1_L1I LOAD         ACCESS:          0 HIT:          0 MISS:          0
cpu1_L1I RFO          ACCESS:          0 HIT:          0 MISS:          0
cpu1_L1I PREFETCH     ACCESS:          0 HIT:          0 MISS:          0
cpu1_L1I WRITE        ACCESS:          0 HIT:          0 MISS:          0
cpu1_L1I TRANSLATION  ACCESS:          0 HIT:          0 MISS:          0
cpu1_L1I PREFETCH REQUESTED:          0 ISSUED:          0 USEFUL:          0 USELESS:          0
cpu1_L1I AVERAGE MISS LATENCY: -nan cycles
cpu1_L1I TOTAL        ACCESS:          0 HIT:          0 MISS:          0
cpu1_L1I LOAD         ACCESS:          0 HIT:          0 MISS:          0
cpu1_L1I RFO          ACCESS:          0 HIT:          0 MISS:          0
cpu1_L1I PREFETCH     ACCESS:          0 HIT:          0 MISS:          0
cpu1_L1I WRITE        ACCESS:          0 HIT:          0 MISS:          0
cpu1_L1I TRANSLATION  ACCESS:          0 HIT:          0 MISS:          0
cpu1_L1I PREFETCH REQUESTED:          0 ISSUED:          0 USEFUL:          0 USELESS:          0
cpu1_L1I AVERAGE MISS LATENCY: -nan cycles
cpu1_L2C TOTAL        ACCESS:          0 HIT:          0 MISS:          0
cpu1_L2C LOAD         ACCESS:          0 HIT:          0 MISS:          0
cpu1_L2C RFO          ACCESS:          0 HIT:          0 MISS:          0
cpu1_L2C PREFETCH     ACCESS:          0 HIT:          0 MISS:          0
cpu1_L2C WRITE        ACCESS:          0 HIT:          0 MISS:          0
cpu1_L2C TRANSLATION  ACCESS:          0 HIT:          0 MISS:          0
[...]
cpu2_L1I PREFETCH REQUESTED:          0 ISSUED:          0 USEFUL:          0 USELESS:          0
cpu2_L1I AVERAGE MISS LATENCY: -nan cycles
cpu2_L1I TOTAL        ACCESS:          0 HIT:          0 MISS:          0
cpu2_L1I LOAD         ACCESS:          0 HIT:          0 MISS:          0
cpu2_L1I RFO          ACCESS:          0 HIT:          0 MISS:          0
cpu2_L1I PREFETCH     ACCESS:          0 HIT:          0 MISS:          0
cpu2_L1I WRITE        ACCESS:          0 HIT:          0 MISS:          0
cpu2_L1I TRANSLATION  ACCESS:          0 HIT:          0 MISS:          0
cpu2_L1I PREFETCH REQUESTED:          0 ISSUED:          0 USEFUL:          0 USELESS:          0
cpu2_L1I AVERAGE MISS LATENCY: -nan cycles
cpu2_L2C TOTAL        ACCESS:          0 HIT:          0 MISS:          0
cpu2_L2C LOAD         ACCESS:          0 HIT:          0 MISS:          0
cpu2_L2C RFO          ACCESS:          0 HIT:          0 MISS:          0
cpu2_L2C PREFETCH     ACCESS:          0 HIT:          0 MISS:          0
cpu2_L2C WRITE        ACCESS:          0 HIT:          0 MISS:          0
cpu2_L2C TRANSLATION  ACCESS:          0 HIT:          0 MISS:          0
cpu2_L2C PREFETCH REQUESTED:     188502 ISSUED:     188485 USEFUL:      16173 USELESS:         11
cpu2_L2C AVERAGE MISS LATENCY: 1780 cycles
cpu2_L2C TOTAL        ACCESS:          0 HIT:          0 MISS:          0
cpu2_L2C LOAD         ACCESS:          0 HIT:          0 MISS:          0
cpu2_L2C RFO          ACCESS:          0 HIT:          0 MISS:          0
cpu2_L2C PREFETCH     ACCESS:          0 HIT:          0 MISS:          0
cpu2_L2C WRITE        ACCESS:          0 HIT:          0 MISS:          0
cpu2_L2C TRANSLATION  ACCESS:          0 HIT:          0 MISS:          0
cpu2_L2C PREFETCH REQUESTED:     188502 ISSUED:     188485 USEFUL:      16173 USELESS:         11
cpu2_L2C AVERAGE MISS LATENCY: 1780 cycles
cpu2_L2C TOTAL        ACCESS:      42731 HIT:      14558 MISS:      28173
cpu2_L2C LOAD         ACCESS:       2788 HIT:       1168 MISS:       1620
cpu2_L2C RFO          ACCESS:      13148 HIT:        116 MISS:      13032
cpu2_L2C PREFETCH     ACCESS:      13633 HIT:        138 MISS:      13495
cpu2_L2C WRITE        ACCESS:      13140 HIT:      13116 MISS:         24
cpu2_L2C TRANSLATION  ACCESS:         22 HIT:         20 MISS:          2
cpu2_L2C PREFETCH REQUESTED:     188502 ISSUED:     188485 USEFUL:      16173 USELESS:         11
cpu2_L2C AVERAGE MISS LATENCY: 1780 cycles
cpu2_L2C TOTAL        ACCESS:          0 HIT:          0 MISS:          0
cpu2_L2C LOAD         ACCESS:          0 HIT:          0 MISS:          0
cpu2_L2C RFO          ACCESS:          0 HIT:          0 MISS:          0
cpu2_L2C PREFETCH     ACCESS:          0 HIT:          0 MISS:          0
cpu2_L2C WRITE        ACCESS:          0 HIT:          0 MISS:          0
cpu2_L2C TRANSLATION  ACCESS:          0 HIT:          0 MISS:          0
cpu2_L2C PREFETCH REQUESTED:     188502 ISSUED:     188485 USEFUL:      16173 USELESS:         11
cpu2_L2C AVERAGE MISS LATENCY: 1780 cycles
cpu2_STLB TOTAL        ACCESS:          0 HIT:          0 MISS:          0
cpu2_STLB LOAD         ACCESS:          0 HIT:          0 MISS:          0
cpu2_STLB RFO          ACCESS:          0 HIT:          0 MISS:          0
cpu2_STLB PREFETCH     ACCESS:          0 HIT:          0 MISS:          0
cpu2_STLB WRITE        ACCESS:          0 HIT:          0 MISS:          0
cpu2_STLB TRANSLATION  ACCESS:          0 HIT:          0 MISS:          0
cpu2_STLB PREFETCH REQUESTED:          0 ISSUED:          0 USEFUL:          0 USELESS:          0
cpu2_STLB AVERAGE MISS LATENCY: 227.3 cycles
cpu2_STLB TOTAL        ACCESS:          0 HIT:          0 MISS:          0
cpu2_STLB LOAD         ACCESS:          0 HIT:          0 MISS:          0
cpu2_STLB RFO          ACCESS:          0 HIT:          0 MISS:          0
cpu2_STLB PREFETCH     ACCESS:          0 HIT:          0 MISS:          0
cpu2_STLB WRITE        ACCESS:          0 HIT:          0 MISS:          0
cpu2_STLB TRANSLATION  ACCESS:          0 HIT:          0 MISS:          0
cpu2_STLB PREFETCH REQUESTED:          0 ISSUED:          0 USEFUL:          0 USELESS:          0
cpu2_STLB AVERAGE MISS LATENCY: 227.3 cycles
cpu2_STLB TOTAL        ACCESS:        249 HIT:          4 MISS:        245
cpu2_STLB LOAD         ACCESS:        249 HIT:          4 MISS:        245
cpu2_STLB RFO          ACCESS:          0 HIT:          0 MISS:          0
cpu2_STLB PREFETCH     ACCESS:          0 HIT:          0 MISS:          0
cpu2_STLB WRITE        ACCESS:          0 HIT:          0 MISS:          0
cpu2_STLB TRANSLATION  ACCESS:          0 HIT:          0 MISS:          0
cpu2_STLB PREFETCH REQUESTED:          0 ISSUED:          0 USEFUL:          0 USELESS:          0
cpu2_STLB AVERAGE MISS LATENCY: 227.3 cycles
cpu2_STLB TOTAL        ACCESS:          0 HIT:          0 MISS:          0
cpu2_STLB LOAD         ACCESS:          0 HIT:          0 MISS:          0
cpu2_STLB RFO          ACCESS:          0 HIT:          0 MISS:          0
cpu2_STLB PREFETCH     ACCESS:          0 HIT:          0 MISS:          0
cpu2_STLB WRITE        ACCESS:          0 HIT:          0 MISS:          0
cpu2_STLB TRANSLATION  ACCESS:          0 HIT:          0 MISS:          0
cpu2_STLB PREFETCH REQUESTED:          0 ISSUED:          0 USEFUL:          0 USELESS:          0
cpu2_STLB AVERAGE MISS LATENCY: 227.3 cycles
cpu3_DTLB TOTAL        ACCESS:          0 HIT:          0 MISS:          0
cpu3_DTLB LOAD         ACCESS:          0 HIT:          0 MISS:          0
cpu3_DTLB RFO          ACCESS:          0 HIT:          0 MISS:          0
cpu3_DTLB PREFETCH     ACCESS:          0 HIT:          0 MISS:          0
cpu3_DTLB WRITE        ACCESS:          0 HIT:          0 MISS:          0
cpu3_DTLB TRANSLATION  ACCESS:          0 HIT:          0 MISS:          0
cpu3_DTLB PREFETCH REQUESTED:          0 ISSUED:          0 USEFUL:          0 USELESS:          0
cpu3_DTLB AVERAGE MISS LATENCY: 15.18 cycles
cpu3_DTLB TOTAL        ACCESS:          0 HIT:          0 MISS:          0
cpu3_DTLB LOAD         ACCESS:          0 HIT:          0 MISS:          0
cpu3_DTLB RFO          ACCESS:          0 HIT:          0 MISS:          0
cpu3_DTLB PREFETCH     ACCESS:          0 HIT:          0 MISS:          0
cpu3_DTLB WRITE        ACCESS:          0 HIT:          0 MISS:          0
cpu3_DTLB TRANSLATION  ACCESS:          0 HIT:          0 MISS:          0
cpu3_DTLB PREFETCH REQUESTED:          0 ISSUED:          0 USEFUL:          0 USELESS:          0
cpu3_DTLB AVERAGE MISS LATENCY: 15.18 cycles
cpu3_DTLB TOTAL        ACCESS:          0 HIT:          0 MISS:          0
cpu3_DTLB LOAD         ACCESS:          0 HIT:          0 MISS:          0
cpu3_DTLB RFO          ACCESS:          0 HIT:          0 MISS:          0
cpu3_DTLB PREFETCH     ACCESS:          0 HIT:          0 MISS:          0
cpu3_DTLB WRITE        ACCESS:          0 HIT:          0 MISS:          0
cpu3_DTLB TRANSLATION  ACCESS:          0 HIT:          0 MISS:          0
cpu3_DTLB PREFETCH REQUESTED:          0 ISSUED:          0 USEFUL:          0 USELESS:          0
cpu3_DTLB AVERAGE MISS LATENCY: 15.18 cycles
cpu3_DTLB TOTAL        ACCESS:   22395231 HIT:   22103919 MISS:     291312
cpu3_DTLB LOAD         ACCESS:   22395231 HIT:   22103919 MISS:     291312
cpu3_DTLB RFO          ACCESS:          0 HIT:          0 MISS:          0
cpu3_DTLB PREFETCH     ACCESS:          0 HIT:          0 MISS:          0
cpu3_DTLB WRITE        ACCESS:          0 HIT:          0 MISS:          0
cpu3_DTLB TRANSLATION  ACCESS:          0 HIT:          0 MISS:          0
cpu3_DTLB PREFETCH REQUESTED:          0 ISSUED:          0 USEFUL:          0 USELESS:          0
cpu3_DTLB AVERAGE MISS LATENCY: 15.18 cycles
cpu3_ITLB TOTAL        ACCESS:          0 HIT:          0 MISS:          0
cpu3_ITLB LOAD         ACCESS:          0 HIT:          0 MISS:          0
cpu3_ITLB RFO          ACCESS:          0 HIT:          0 MISS:          0
cpu3_ITLB PREFETCH     ACCESS:          0 HIT:          0 MISS:          0
cpu3_ITLB WRITE        ACCESS:          0 HIT:          0 MISS:          0
cpu3_ITLB TRANSLATION  ACCESS:          0 HIT:          0 MISS:          0
cpu3_ITLB PREFETCH REQUESTED:          0 ISSUED:          0 USEFUL:          0 USELESS:          0
cpu3_ITLB AVERAGE MISS LATENCY: 111.2 cycles
cpu3_ITLB TOTAL        ACCESS:          0 HIT:          0 MISS:          0
cpu3_ITLB LOAD         ACCESS:          0 HIT:          0 MISS:          0
cpu3_ITLB RFO          ACCESS:          0 HIT:          0 MISS:          0
cpu3_ITLB PREFETCH     ACCESS:          0 HIT:          0 MISS:          0
cpu3_ITLB WRITE        ACCESS:          0 HIT:          0 MISS:          0
cpu3_ITLB TRANSLATION  ACCESS:          0 HIT:          0 MISS:          0
cpu3_ITLB PREFETCH REQUESTED:          0 ISSUED:          0 USEFUL:          0 USELESS:          0
cpu3_ITLB AVERAGE MISS LATENCY: 111.2 cycles
cpu3_ITLB TOTAL        ACCESS:          0 HIT:          0 MISS:          0
cpu3_ITLB LOAD         ACCESS:          0 HIT:          0 MISS:          0
cpu3_ITLB RFO          ACCESS:          0 HIT:          0 MISS:          0
cpu3_ITLB PREFETCH     ACCESS:          0 HIT:          0 MISS:          0
cpu3_ITLB WRITE        ACCESS:          0 HIT:          0 MISS:          0
cpu3_ITLB TRANSLATION  ACCESS:          0 HIT:          0 MISS:          0
cpu3_ITLB PREFETCH REQUESTED:          0 ISSUED:          0 USEFUL:          0 USELESS:          0
cpu3_ITLB AVERAGE MISS LATENCY: 111.2 cycles
cpu3_ITLB TOTAL        ACCESS:    2461731 HIT:    2458101 MISS:       3630
cpu3_ITLB LOAD         ACCESS:    2461731 HIT:    2458101 MISS:       3630
cpu3_ITLB RFO          ACCESS:          0 HIT:          0 MISS:          0
cpu3_ITLB PREFETCH     ACCESS:          0 HIT:          0 MISS:          0
cpu3_ITLB WRITE        ACCESS:          0 HIT:          0 MISS:          0
cpu3_ITLB TRANSLATION  ACCESS:          0 HIT:          0 MISS:          0
cpu3_ITLB PREFETCH REQUESTED:          0 ISSUED:          0 USEFUL:          0 USELESS:          0
cpu3_ITLB AVERAGE MISS LATENCY: 111.2 cycles
cpu3_L1D TOTAL        ACCESS:          0 HIT:          0 MISS:          0
cpu3_L1D LOAD         ACCESS:          0 HIT:          0 MISS:          0
cpu3_L1D RFO          ACCESS:          0 HIT:          0 MISS:          0
cpu3_L1D PREFETCH     ACCESS:          0 HIT:          0 MISS:          0
cpu3_L1D WRITE        ACCESS:          0 HIT:          0 MISS:          0
cpu3_L1D TRANSLATION  ACCESS:          0 HIT:          0 MISS:          0
cpu3_L1D PREFETCH REQUESTED:          0 ISSUED:          0 USEFUL:          0 USELESS:          0
cpu3_L1D AVERAGE MISS LATENCY: 436.9 cycles
cpu3_L1D TOTAL        ACCESS:          0 HIT:          0 MISS:          0
cpu3_L1D LOAD         ACCESS:          0 HIT:          0 MISS:          0
cpu3_L1D RFO          ACCESS:          0 HIT:          0 MISS:          0
cpu3_L1D PREFETCH     ACCESS:          0 HIT:          0 MISS:          0
cpu3_L1D WRITE        ACCESS:          0 HIT:          0 MISS:          0
cpu3_L1D TRANSLATION  ACCESS:          0 HIT:          0 MISS:          0
cpu3_L1D PREFETCH REQUESTED:          0 ISSUED:          0 USEFUL:          0 USELESS:          0
cpu3_L1D AVERAGE MISS LATENCY: 436.9 cycles
cpu3_L1D TOTAL        ACCESS:          0 HIT:          0 MISS:          0
cpu3_L1D LOAD         ACCESS:          0 HIT:          0 MISS:          0
cpu3_L1D RFO          ACCESS:          0 HIT:          0 MISS:          0
cpu3_L1D PREFETCH     ACCESS:          0 HIT:          0 MISS:          0
cpu3_L1D WRITE        ACCESS:          0 HIT:          0 MISS:          0
cpu3_L1D TRANSLATION  ACCESS:          0 HIT:          0 MISS:          0
cpu3_L1D PREFETCH REQUESTED:          0 ISSUED:          0 USEFUL:          0 USELESS:          0
cpu3_L1D AVERAGE MISS LATENCY: 436.9 cycles
cpu3_L1D TOTAL        ACCESS:   29557098 HIT:   23977875 MISS:    5579223
cpu3_L1D LOAD         ACCESS:   14361225 HIT:   13573529 MISS:     787696
cpu3_L1D RFO          ACCESS:          0 HIT:          0 MISS:          0
cpu3_L1D PREFETCH     ACCESS:          0 HIT:          0 MISS:          0
cpu3_L1D WRITE        ACCESS:   15176491 HIT:   10389148 MISS:    4787343
cpu3_L1D TRANSLATION  ACCESS:      19382 HIT:      15198 MISS:       4184
cpu3_L1D PREFETCH REQUESTED:          0 ISSUED:          0 USEFUL:          0 USELESS:          0
cpu3_L1D AVERAGE MISS LATENCY: 436.9 cycles
cpu3_L1I TOTAL        ACCESS:          0 HIT:          0 MISS:          0
cpu3_L1I LOAD         ACCESS:          0 HIT:          0 MISS:          0
cpu3_L1I RFO          ACCESS:          0 HIT:          0 MISS:          0
cpu3_L1I PREFETCH     ACCESS:          0 HIT:          0 MISS:          0
cpu3_L1I WRITE        ACCESS:          0 HIT:          0 MISS:          0
cpu3_L1I TRANSLATION  ACCESS:          0 HIT:          0 MISS:          0
cpu3_L1I PREFETCH REQUESTED:          0 ISSUED:          0 USEFUL:          0 USELESS:          0
cpu3_L1I AVERAGE MISS LATENCY: 105.4 cycles
cpu3_L1I TOTAL        ACCESS:          0 HIT:          0 MISS:          0
cpu3_L1I LOAD         ACCESS:          0 HIT:          0 MISS:          0
cpu3_L1I RFO          ACCESS:          0 HIT:          0 MISS:          0
cpu3_L1I PREFETCH     ACCESS:          0 HIT:          0 MISS:          0
cpu3_L1I WRITE        ACCESS:          0 HIT:          0 MISS:          0
cpu3_L1I TRANSLATION  ACCESS:          0 HIT:          0 MISS:          0
cpu3_L1I PREFETCH REQUESTED:          0 ISSUED:          0 USEFUL:          0 USELESS:          0
cpu3_L1I AVERAGE MISS LATENCY: 105.4 cycles
cpu3_L1I TOTAL        ACCESS:          0 HIT:          0 MISS:          0
cpu3_L1I LOAD         ACCESS:          0 HIT:          0 MISS:          0
cpu3_L1I RFO          ACCESS:          0 HIT:          0 MISS:          0
cpu3_L1I PREFETCH     ACCESS:          0 HIT:          0 MISS:          0
cpu3_L1I WRITE        ACCESS:          0 HIT:          0 MISS:          0
cpu3_L1I TRANSLATION  ACCESS:          0 HIT:          0 MISS:          0
cpu3_L1I PREFETCH REQUESTED:          0 ISSUED:          0 USEFUL:          0 USELESS:          0
cpu3_L1I AVERAGE MISS LATENCY: 105.4 cycles
cpu3_L1I TOTAL        ACCESS:    3115801 HIT:    3037284 MISS:      78517
cpu3_L1I LOAD         ACCESS:    3115801 HIT:    3037284 MISS:      78517
cpu3_L1I RFO          ACCESS:          0 HIT:          0 MISS:          0
cpu3_L1I PREFETCH     ACCESS:          0 HIT:          0 MISS:          0
cpu3_L1I WRITE        ACCESS:          0 HIT:          0 MISS:          0
cpu3_L1I TRANSLATION  ACCESS:          0 HIT:          0 MISS:          0
cpu3_L1I PREFETCH REQUESTED:          0 ISSUED:          0 USEFUL:          0 USELESS:          0
cpu3_L1I AVERAGE MISS LATENCY: 105.4 cycles
cpu3_L2C TOTAL        ACCESS:          0 HIT:          0 MISS:          0
cpu3_L2C LOAD         ACCESS:          0 HIT:          0 MISS:          0
cpu3_L2C RFO          ACCESS:          0 HIT:          0 MISS:          0
cpu3_L2C PREFETCH     ACCESS:          0 HIT:          0 MISS:          0
cpu3_L2C WRITE        ACCESS:          0 HIT:          0 MISS:          0
cpu3_L2C TRANSLATION  ACCESS:          0 HIT:          0 MISS:          0
cpu3_L2C PREFETCH REQUESTED:    8899296 ISSUED:    6313225 USEFUL:      41874 USELESS:       4041
cpu3_L2C AVERAGE MISS LATENCY: 1644 cycles
cpu3_L2C TOTAL        ACCESS:          0 HIT:          0 MISS:          0
cpu3_L2C LOAD         ACCESS:          0 HIT:          0 MISS:          0
cpu3_L2C RFO          ACCESS:          0 HIT:          0 MISS:          0
cpu3_L2C PREFETCH     ACCESS:          0 HIT:          0 MISS:          0
cpu3_L2C WRITE        ACCESS:          0 HIT:          0 MISS:          0
cpu3_L2C TRANSLATION  ACCESS:          0 HIT:          0 MISS:          0
cpu3_L2C PREFETCH REQUESTED:    8899296 ISSUED:    6313225 USEFUL:      41874 USELESS:       4041
cpu3_L2C AVERAGE MISS LATENCY: 1644 cycles
cpu3_L2C TOTAL        ACCESS:          0 HIT:          0 MISS:          0
cpu3_L2C LOAD         ACCESS:          0 HIT:          0 MISS:          0
cpu3_L2C RFO          ACCESS:          0 HIT:          0 MISS:          0
cpu3_L2C PREFETCH     ACCESS:          0 HIT:          0 MISS:          0
cpu3_L2C WRITE        ACCESS:          0 HIT:          0 MISS:          0
cpu3_L2C TRANSLATION  ACCESS:          0 HIT:          0 MISS:          0
cpu3_L2C PREFETCH REQUESTED:    8899296 ISSUED:    6313225 USEFUL:      41874 USELESS:       4041
cpu3_L2C AVERAGE MISS LATENCY: 1644 cycles
cpu3_L2C TOTAL        ACCESS:    5012509 HIT:    3552820 MISS:    1459689
cpu3_L2C LOAD         ACCESS:     598342 HIT:     485612 MISS:     112730
cpu3_L2C RFO          ACCESS:    1203635 HIT:     231903 MISS:     971732
cpu3_L2C PREFETCH     ACCESS:    1926148 HIT:    1553981 MISS:     372167
cpu3_L2C WRITE        ACCESS:    1280231 HIT:    1280185 MISS:         46
cpu3_L2C TRANSLATION  ACCESS:       4153 HIT:       1139 MISS:       3014
cpu3_L2C PREFETCH REQUESTED:    8899296 ISSUED:    6313225 USEFUL:      41874 USELESS:       4041
cpu3_L2C AVERAGE MISS LATENCY: 1644 cycles
cpu3_STLB TOTAL        ACCESS:          0 HIT:          0 MISS:          0
cpu3_STLB LOAD         ACCESS:          0 HIT:          0 MISS:          0
cpu3_STLB RFO          ACCESS:          0 HIT:          0 MISS:          0
cpu3_STLB PREFETCH     ACCESS:          0 HIT:          0 MISS:          0
cpu3_STLB WRITE        ACCESS:          0 HIT:          0 MISS:          0
cpu3_STLB TRANSLATION  ACCESS:          0 HIT:          0 MISS:          0
cpu3_STLB PREFETCH REQUESTED:          0 ISSUED:          0 USEFUL:          0 USELESS:          0
cpu3_STLB AVERAGE MISS LATENCY: 261.6 cycles
cpu3_STLB TOTAL        ACCESS:          0 HIT:          0 MISS:          0
cpu3_STLB LOAD         ACCESS:          0 HIT:          0 MISS:          0
cpu3_STLB RFO          ACCESS:          0 HIT:          0 MISS:          0
cpu3_STLB PREFETCH     ACCESS:          0 HIT:          0 MISS:          0
cpu3_STLB WRITE        ACCESS:          0 HIT:          0 MISS:          0
cpu3_STLB TRANSLATION  ACCESS:          0 HIT:          0 MISS:          0
cpu3_STLB PREFETCH REQUESTED:          0 ISSUED:          0 USEFUL:          0 USELESS:          0
cpu3_STLB AVERAGE MISS LATENCY: 261.6 cycles
cpu3_STLB TOTAL        ACCESS:          0 HIT:          0 MISS:          0
cpu3_STLB LOAD         ACCESS:          0 HIT:          0 MISS:          0
cpu3_STLB RFO          ACCESS:          0 HIT:          0 MISS:          0
cpu3_STLB PREFETCH     ACCESS:          0 HIT:          0 MISS:          0
cpu3_STLB WRITE        ACCESS:          0 HIT:          0 MISS:          0
cpu3_STLB TRANSLATION  ACCESS:          0 HIT:          0 MISS:          0
cpu3_STLB PREFETCH REQUESTED:          0 ISSUED:          0 USEFUL:          0 USELESS:          0
cpu3_STLB AVERAGE MISS LATENCY: 261.6 cycles
cpu3_STLB TOTAL        ACCESS:     102854 HIT:      83838 MISS:      19016
cpu3_STLB LOAD         ACCESS:     102854 HIT:      83838 MISS:      19016
cpu3_STLB RFO          ACCESS:          0 HIT:          0 MISS:          0
cpu3_STLB PREFETCH     ACCESS:          0 HIT:          0 MISS:          0
cpu3_STLB WRITE        ACCESS:          0 HIT:          0 MISS:          0
cpu3_STLB TRANSLATION  ACCESS:          0 HIT:          0 MISS:          0
cpu3_STLB PREFETCH REQUESTED:          0 ISSUED:          0 USEFUL:          0 USELESS:          0
cpu3_STLB AVERAGE MISS LATENCY: 261.6 cycles

DRAM Statistics

Channel 0 RQ ROW_BUFFER_HIT:     573809
  ROW_BUFFER_MISS:    4922109
 AVG DBUS CONGESTED CYCLE: 3.994
WQ ROW_BUFFER_HIT: Channel 0 
  ROW_BUFFER_MISS:     126457
  FULL:    4121665

Channel 1 RQ ROW_BUFFER_HIT:     569043
  ROW_BUFFER_MISS:    4926748
 AVG DBUS CONGESTED CYCLE: 3.993
WQ ROW_BUFFER_HIT: Channel 1 
  ROW_BUFFER_MISS:     127449
  FULL:    4121149
