Original cmd-> /home/grads/r/rdas40/ECEN676/ChampSim/bin/multi_core/spp_2ch --warmup_instructions=50000000 --simulation_instructions=150000000  /home/grads/r/rdas40/dpc3_traces/620.omnetpp_s-874B.champsimtrace.xz /home/grads/r/rdas40/dpc3_traces/603.bwaves_s-3699B.champsimtrace.xz /home/grads/r/rdas40/dpc3_traces/607.cactuBSSN_s-2421B.champsimtrace.xz /home/grads/r/rdas40/dpc3_traces/619.lbm_s-4268B.champsimtrace.xz
WARNING: physical memory size is smaller than virtual memory size.
WARNING: option --warmup_instructions is deprecated. Use --warmup-instructions instead.
WARNING: option --simulation_instructions is deprecated. Use --simulation-instructions instead.

*** ChampSim Multicore Out-of-Order Simulator ***
Warmup Instructions: 50000000
Simulation Instructions: 150000000
Number of CPUs: 4
Page size: 4096

Initialize SIGNATURE TABLE
ST_SET: 1
ST_WAY: 256
ST_TAG_BIT: 16
ST_TAG_MASK: ffff

Initialize PATTERN TABLE
PT_SET: 512
PT_WAY: 4
SIG_DELTA_BIT: 7
C_SIG_BIT: 4
C_DELTA_BIT: 4

Initialize PREFETCH FILTER
FILTER_SET: 1024
Initialize SIGNATURE TABLE
ST_SET: 1
ST_WAY: 256
ST_TAG_BIT: 16
ST_TAG_MASK: ffff

Initialize PATTERN TABLE
PT_SET: 512
PT_WAY: 4
SIG_DELTA_BIT: 7
C_SIG_BIT: 4
C_DELTA_BIT: 4

Initialize PREFETCH FILTER
FILTER_SET: 1024
Initialize SIGNATURE TABLE
ST_SET: 1
ST_WAY: 256
ST_TAG_BIT: 16
ST_TAG_MASK: ffff

Initialize PATTERN TABLE
PT_SET: 512
PT_WAY: 4
SIG_DELTA_BIT: 7
C_SIG_BIT: 4
C_DELTA_BIT: 4

Initialize PREFETCH FILTER
FILTER_SET: 1024
Initialize SIGNATURE TABLE
ST_SET: 1
ST_WAY: 256
ST_TAG_BIT: 16
ST_TAG_MASK: ffff

Initialize PATTERN TABLE
PT_SET: 512
PT_WAY: 4
SIG_DELTA_BIT: 7
C_SIG_BIT: 4
C_DELTA_BIT: 4

Initialize PREFETCH FILTER
FILTER_SET: 1024
Off-chip DRAM Size: 8 GiB Channels: 2 Width: 64-bit Data Race: 3200 MT/s
Heartbeat CPU 1 instructions: 10000003 cycles: 2521875 heartbeat IPC: 3.965 cumulative IPC: 3.965 (Simulation time: 00 hr 03 min 07 sec)
Heartbeat CPU 3 instructions: 10000003 cycles: 3383414 heartbeat IPC: 2.956 cumulative IPC: 2.956 (Simulation time: 00 hr 04 min 11 sec)
Heartbeat CPU 2 instructions: 10000002 cycles: 3767890 heartbeat IPC: 2.654 cumulative IPC: 2.654 (Simulation time: 00 hr 04 min 39 sec)
Heartbeat CPU 0 instructions: 10000002 cycles: 4175509 heartbeat IPC: 2.395 cumulative IPC: 2.395 (Simulation time: 00 hr 05 min 10 sec)
Heartbeat CPU 1 instructions: 20000001 cycles: 5038237 heartbeat IPC: 3.974 cumulative IPC: 3.97 (Simulation time: 00 hr 06 min 15 sec)
Heartbeat CPU 3 instructions: 20000000 cycles: 6758347 heartbeat IPC: 2.963 cumulative IPC: 2.959 (Simulation time: 00 hr 08 min 26 sec)
Heartbeat CPU 2 instructions: 20000002 cycles: 7533857 heartbeat IPC: 2.655 cumulative IPC: 2.655 (Simulation time: 00 hr 09 min 24 sec)
Heartbeat CPU 1 instructions: 30000000 cycles: 7553266 heartbeat IPC: 3.976 cumulative IPC: 3.972 (Simulation time: 00 hr 09 min 25 sec)
Heartbeat CPU 0 instructions: 20000004 cycles: 8348966 heartbeat IPC: 2.396 cumulative IPC: 2.396 (Simulation time: 00 hr 10 min 25 sec)
Heartbeat CPU 1 instructions: 40000003 cycles: 10077277 heartbeat IPC: 3.962 cumulative IPC: 3.969 (Simulation time: 00 hr 12 min 35 sec)
Heartbeat CPU 3 instructions: 30000002 cycles: 10117244 heartbeat IPC: 2.977 cumulative IPC: 2.965 (Simulation time: 00 hr 12 min 38 sec)
Heartbeat CPU 2 instructions: 30000003 cycles: 11299914 heartbeat IPC: 2.655 cumulative IPC: 2.655 (Simulation time: 00 hr 14 min 07 sec)
Heartbeat CPU 0 instructions: 30000001 cycles: 12523057 heartbeat IPC: 2.396 cumulative IPC: 2.396 (Simulation time: 00 hr 15 min 39 sec)
Heartbeat CPU 1 instructions: 50000000 cycles: 12599099 heartbeat IPC: 3.965 cumulative IPC: 3.969 (Simulation time: 00 hr 15 min 44 sec)
Warmup finished CPU 1 instructions: 50000000 cycles: 12599100 cumulative IPC: 3.969 (Simulation time: 00 hr 15 min 44 sec)
Heartbeat CPU 3 instructions: 40000004 cycles: 13510411 heartbeat IPC: 2.947 cumulative IPC: 2.961 (Simulation time: 00 hr 16 min 53 sec)
Heartbeat CPU 2 instructions: 40000002 cycles: 15067931 heartbeat IPC: 2.654 cumulative IPC: 2.655 (Simulation time: 00 hr 18 min 50 sec)
Heartbeat CPU 1 instructions: 60000002 cycles: 15124094 heartbeat IPC: 3.96 cumulative IPC: 3.967 (Simulation time: 00 hr 18 min 54 sec)
Heartbeat CPU 0 instructions: 40000000 cycles: 16710329 heartbeat IPC: 2.388 cumulative IPC: 2.394 (Simulation time: 00 hr 20 min 54 sec)
Heartbeat CPU 3 instructions: 50000001 cycles: 16908205 heartbeat IPC: 2.943 cumulative IPC: 2.957 (Simulation time: 00 hr 21 min 09 sec)
Warmup finished CPU 3 instructions: 50000001 cycles: 16908206 cumulative IPC: 2.957 (Simulation time: 00 hr 21 min 09 sec)
Heartbeat CPU 1 instructions: 70000000 cycles: 17648868 heartbeat IPC: 3.961 cumulative IPC: 3.966 (Simulation time: 00 hr 22 min 04 sec)
Heartbeat CPU 2 instructions: 50000001 cycles: 18836366 heartbeat IPC: 2.654 cumulative IPC: 2.654 (Simulation time: 00 hr 23 min 34 sec)
Warmup finished CPU 2 instructions: 50000001 cycles: 18836367 cumulative IPC: 2.654 (Simulation time: 00 hr 23 min 34 sec)
Heartbeat CPU 1 instructions: 80000001 cycles: 20174084 heartbeat IPC: 3.96 cumulative IPC: 3.965 (Simulation time: 00 hr 25 min 14 sec)
Heartbeat CPU 3 instructions: 60000004 cycles: 20329971 heartbeat IPC: 2.922 cumulative IPC: 2.951 (Simulation time: 00 hr 25 min 26 sec)
Heartbeat CPU 0 instructions: 50000000 cycles: 20876660 heartbeat IPC: 2.4 cumulative IPC: 2.395 (Simulation time: 00 hr 26 min 06 sec)
Warmup finished CPU 0 instructions: 50000000 cycles: 20876661 cumulative IPC: 2.395 (Simulation time: 00 hr 26 min 06 sec)
Warmup complete CPU 0 instructions: 50000000 cycles: 20876661 cumulative IPC: 2.395 (Simulation time: 00 hr 26 min 06 sec)
Warmup complete CPU 1 instructions: 82781363 cycles: 20876661 cumulative IPC: 3.965 (Simulation time: 00 hr 26 min 06 sec)
Warmup complete CPU 2 instructions: 55226141 cycles: 20876661 cumulative IPC: 2.645 (Simulation time: 00 hr 26 min 06 sec)
Warmup complete CPU 3 instructions: 61621157 cycles: 20876661 cumulative IPC: 2.952 (Simulation time: 00 hr 26 min 06 sec)
Heartbeat CPU 1 instructions: 90000002 cycles: 24103926 heartbeat IPC: 2.545 cumulative IPC: 2.237 (Simulation time: 00 hr 28 min 24 sec)
Heartbeat CPU 2 instructions: 60000004 cycles: 27007176 heartbeat IPC: 1.224 cumulative IPC: 0.7787 (Simulation time: 00 hr 30 min 31 sec)
Heartbeat CPU 1 instructions: 100000000 cycles: 28495588 heartbeat IPC: 2.277 cumulative IPC: 2.26 (Simulation time: 00 hr 31 min 35 sec)
Heartbeat CPU 1 instructions: 110000002 cycles: 32978895 heartbeat IPC: 2.23 cumulative IPC: 2.249 (Simulation time: 00 hr 34 min 49 sec)
Heartbeat CPU 1 instructions: 120000001 cycles: 37363488 heartbeat IPC: 2.281 cumulative IPC: 2.257 (Simulation time: 00 hr 38 min 01 sec)
Heartbeat CPU 2 instructions: 70000000 cycles: 38975822 heartbeat IPC: 0.8355 cumulative IPC: 0.8163 (Simulation time: 00 hr 39 min 12 sec)
Heartbeat CPU 1 instructions: 130000000 cycles: 41945761 heartbeat IPC: 2.182 cumulative IPC: 2.241 (Simulation time: 00 hr 41 min 20 sec)
Heartbeat CPU 1 instructions: 140000000 cycles: 46531838 heartbeat IPC: 2.181 cumulative IPC: 2.23 (Simulation time: 00 hr 44 min 35 sec)
Heartbeat CPU 2 instructions: 80000000 cycles: 50979456 heartbeat IPC: 0.8331 cumulative IPC: 0.823 (Simulation time: 00 hr 47 min 49 sec)
Heartbeat CPU 1 instructions: 150000002 cycles: 51042839 heartbeat IPC: 2.217 cumulative IPC: 2.228 (Simulation time: 00 hr 47 min 52 sec)
Heartbeat CPU 3 instructions: 70000003 cycles: 53448789 heartbeat IPC: 0.3019 cumulative IPC: 0.2572 (Simulation time: 00 hr 49 min 36 sec)
Heartbeat CPU 1 instructions: 160000001 cycles: 55579371 heartbeat IPC: 2.204 cumulative IPC: 2.225 (Simulation time: 00 hr 51 min 08 sec)
Heartbeat CPU 1 instructions: 170000000 cycles: 60072258 heartbeat IPC: 2.226 cumulative IPC: 2.225 (Simulation time: 00 hr 54 min 28 sec)
Heartbeat CPU 2 instructions: 90000001 cycles: 62787871 heartbeat IPC: 0.8469 cumulative IPC: 0.8297 (Simulation time: 00 hr 56 min 25 sec)
Heartbeat CPU 1 instructions: 180000000 cycles: 64702199 heartbeat IPC: 2.16 cumulative IPC: 2.218 (Simulation time: 00 hr 57 min 48 sec)
Heartbeat CPU 1 instructions: 190000000 cycles: 69212757 heartbeat IPC: 2.217 cumulative IPC: 2.218 (Simulation time: 01 hr 01 min 04 sec)
Heartbeat CPU 1 instructions: 200000004 cycles: 73662110 heartbeat IPC: 2.248 cumulative IPC: 2.221 (Simulation time: 01 hr 04 min 16 sec)
Heartbeat CPU 2 instructions: 100000000 cycles: 74993236 heartbeat IPC: 0.8193 cumulative IPC: 0.8274 (Simulation time: 01 hr 05 min 14 sec)
Heartbeat CPU 1 instructions: 210000001 cycles: 78292436 heartbeat IPC: 2.16 cumulative IPC: 2.216 (Simulation time: 01 hr 07 min 35 sec)
Heartbeat CPU 1 instructions: 220000002 cycles: 82968813 heartbeat IPC: 2.138 cumulative IPC: 2.21 (Simulation time: 01 hr 10 min 57 sec)
Heartbeat CPU 2 instructions: 110000003 cycles: 87042687 heartbeat IPC: 0.8299 cumulative IPC: 0.8278 (Simulation time: 01 hr 13 min 52 sec)
Heartbeat CPU 1 instructions: 230000000 cycles: 87519125 heartbeat IPC: 2.198 cumulative IPC: 2.209 (Simulation time: 01 hr 14 min 12 sec)
Simulation finished CPU 1 instructions: 150000002 cycles: 67910419 cumulative IPC: 2.209 (Simulation time: 01 hr 15 min 06 sec)
Heartbeat CPU 3 instructions: 80000003 cycles: 91199922 heartbeat IPC: 0.2649 cumulative IPC: 0.2613 (Simulation time: 01 hr 16 min 51 sec)
Heartbeat CPU 1 instructions: 240000001 cycles: 92127184 heartbeat IPC: 2.17 cumulative IPC: 2.207 (Simulation time: 01 hr 17 min 30 sec)
Heartbeat CPU 1 instructions: 250000001 cycles: 96700433 heartbeat IPC: 2.187 cumulative IPC: 2.205 (Simulation time: 01 hr 20 min 50 sec)
Heartbeat CPU 2 instructions: 120000004 cycles: 98286035 heartbeat IPC: 0.8894 cumulative IPC: 0.8368 (Simulation time: 01 hr 21 min 59 sec)
Heartbeat CPU 1 instructions: 260000000 cycles: 101244304 heartbeat IPC: 2.201 cumulative IPC: 2.205 (Simulation time: 01 hr 24 min 07 sec)
Heartbeat CPU 1 instructions: 270000003 cycles: 105836255 heartbeat IPC: 2.178 cumulative IPC: 2.204 (Simulation time: 01 hr 27 min 25 sec)
Heartbeat CPU 2 instructions: 130000001 cycles: 110166275 heartbeat IPC: 0.8417 cumulative IPC: 0.8374 (Simulation time: 01 hr 30 min 32 sec)
Heartbeat CPU 1 instructions: 280000003 cycles: 110417245 heartbeat IPC: 2.183 cumulative IPC: 2.203 (Simulation time: 01 hr 30 min 43 sec)
Heartbeat CPU 0 instructions: 60000000 cycles: 112406428 heartbeat IPC: 0.1093 cumulative IPC: 0.1093 (Simulation time: 01 hr 32 min 11 sec)
Heartbeat CPU 1 instructions: 290000001 cycles: 114959736 heartbeat IPC: 2.201 cumulative IPC: 2.203 (Simulation time: 01 hr 34 min 01 sec)
Heartbeat CPU 1 instructions: 300000002 cycles: 119507604 heartbeat IPC: 2.199 cumulative IPC: 2.202 (Simulation time: 01 hr 37 min 18 sec)
Heartbeat CPU 2 instructions: 140000004 cycles: 121933188 heartbeat IPC: 0.8498 cumulative IPC: 0.8389 (Simulation time: 01 hr 39 min 04 sec)
Heartbeat CPU 1 instructions: 310000003 cycles: 124012412 heartbeat IPC: 2.22 cumulative IPC: 2.203 (Simulation time: 01 hr 40 min 35 sec)
Heartbeat CPU 1 instructions: 320000002 cycles: 128570764 heartbeat IPC: 2.194 cumulative IPC: 2.203 (Simulation time: 01 hr 43 min 51 sec)
Heartbeat CPU 3 instructions: 90000003 cycles: 129928826 heartbeat IPC: 0.2582 cumulative IPC: 0.2602 (Simulation time: 01 hr 44 min 47 sec)
Heartbeat CPU 1 instructions: 330000004 cycles: 133181493 heartbeat IPC: 2.169 cumulative IPC: 2.201 (Simulation time: 01 hr 47 min 09 sec)
Heartbeat CPU 2 instructions: 150000004 cycles: 134268472 heartbeat IPC: 0.8107 cumulative IPC: 0.8358 (Simulation time: 01 hr 47 min 56 sec)
Heartbeat CPU 1 instructions: 340000001 cycles: 137780064 heartbeat IPC: 2.175 cumulative IPC: 2.2 (Simulation time: 01 hr 50 min 26 sec)
Heartbeat CPU 1 instructions: 350000001 cycles: 142465368 heartbeat IPC: 2.134 cumulative IPC: 2.198 (Simulation time: 01 hr 53 min 48 sec)
Heartbeat CPU 2 instructions: 160000004 cycles: 146182320 heartbeat IPC: 0.8394 cumulative IPC: 0.8361 (Simulation time: 01 hr 56 min 28 sec)
Heartbeat CPU 1 instructions: 360000004 cycles: 147254722 heartbeat IPC: 2.088 cumulative IPC: 2.194 (Simulation time: 01 hr 57 min 15 sec)
Heartbeat CPU 1 instructions: 370000000 cycles: 151791473 heartbeat IPC: 2.204 cumulative IPC: 2.194 (Simulation time: 02 hr 00 min 31 sec)
Heartbeat CPU 1 instructions: 380000000 cycles: 156382226 heartbeat IPC: 2.178 cumulative IPC: 2.193 (Simulation time: 02 hr 03 min 51 sec)
Heartbeat CPU 2 instructions: 170000000 cycles: 158125440 heartbeat IPC: 0.8373 cumulative IPC: 0.8362 (Simulation time: 02 hr 05 min 07 sec)
Heartbeat CPU 1 instructions: 390000000 cycles: 160924275 heartbeat IPC: 2.202 cumulative IPC: 2.194 (Simulation time: 02 hr 07 min 09 sec)
Heartbeat CPU 1 instructions: 400000000 cycles: 165524643 heartbeat IPC: 2.174 cumulative IPC: 2.193 (Simulation time: 02 hr 10 min 27 sec)
Heartbeat CPU 3 instructions: 100000000 cycles: 167312239 heartbeat IPC: 0.2675 cumulative IPC: 0.2621 (Simulation time: 02 hr 11 min 44 sec)
Heartbeat CPU 2 instructions: 180000000 cycles: 169803961 heartbeat IPC: 0.8563 cumulative IPC: 0.8378 (Simulation time: 02 hr 13 min 31 sec)
Heartbeat CPU 1 instructions: 410000000 cycles: 170093377 heartbeat IPC: 2.189 cumulative IPC: 2.193 (Simulation time: 02 hr 13 min 44 sec)
Heartbeat CPU 1 instructions: 420000004 cycles: 174694023 heartbeat IPC: 2.174 cumulative IPC: 2.192 (Simulation time: 02 hr 16 min 56 sec)
Heartbeat CPU 1 instructions: 430000004 cycles: 179316108 heartbeat IPC: 2.164 cumulative IPC: 2.191 (Simulation time: 02 hr 20 min 09 sec)
Heartbeat CPU 2 instructions: 190000001 cycles: 181822621 heartbeat IPC: 0.832 cumulative IPC: 0.8374 (Simulation time: 02 hr 21 min 56 sec)
Heartbeat CPU 1 instructions: 440000003 cycles: 183972729 heartbeat IPC: 2.147 cumulative IPC: 2.19 (Simulation time: 02 hr 23 min 26 sec)
Heartbeat CPU 1 instructions: 450000000 cycles: 188456078 heartbeat IPC: 2.23 cumulative IPC: 2.191 (Simulation time: 02 hr 26 min 38 sec)
Heartbeat CPU 1 instructions: 460000003 cycles: 193029276 heartbeat IPC: 2.187 cumulative IPC: 2.191 (Simulation time: 02 hr 29 min 53 sec)
Heartbeat CPU 2 instructions: 200000002 cycles: 193113312 heartbeat IPC: 0.8857 cumulative IPC: 0.8406 (Simulation time: 02 hr 29 min 57 sec)
Heartbeat CPU 1 instructions: 470000002 cycles: 197391879 heartbeat IPC: 2.292 cumulative IPC: 2.194 (Simulation time: 02 hr 33 min 00 sec)
Simulation finished CPU 2 instructions: 150000004 cycles: 178293494 cumulative IPC: 0.8413 (Simulation time: 02 hr 34 min 15 sec)
Heartbeat CPU 0 instructions: 70000002 cycles: 200161686 heartbeat IPC: 0.114 cumulative IPC: 0.1116 (Simulation time: 02 hr 34 min 57 sec)
Heartbeat CPU 1 instructions: 480000000 cycles: 201851880 heartbeat IPC: 2.242 cumulative IPC: 2.195 (Simulation time: 02 hr 36 min 10 sec)
Heartbeat CPU 2 instructions: 210000003 cycles: 204730229 heartbeat IPC: 0.8608 cumulative IPC: 0.8418 (Simulation time: 02 hr 38 min 14 sec)
Heartbeat CPU 3 instructions: 110000002 cycles: 205257530 heartbeat IPC: 0.2635 cumulative IPC: 0.2624 (Simulation time: 02 hr 38 min 37 sec)
Heartbeat CPU 1 instructions: 490000002 cycles: 206205991 heartbeat IPC: 2.297 cumulative IPC: 2.197 (Simulation time: 02 hr 39 min 18 sec)
Heartbeat CPU 1 instructions: 500000000 cycles: 210577584 heartbeat IPC: 2.287 cumulative IPC: 2.199 (Simulation time: 02 hr 42 min 27 sec)
Heartbeat CPU 1 instructions: 510000004 cycles: 214919655 heartbeat IPC: 2.303 cumulative IPC: 2.202 (Simulation time: 02 hr 45 min 36 sec)
Heartbeat CPU 2 instructions: 220000000 cycles: 216640157 heartbeat IPC: 0.8396 cumulative IPC: 0.8417 (Simulation time: 02 hr 46 min 51 sec)
Heartbeat CPU 1 instructions: 520000000 cycles: 219266419 heartbeat IPC: 2.301 cumulative IPC: 2.204 (Simulation time: 02 hr 48 min 47 sec)
Heartbeat CPU 1 instructions: 530000002 cycles: 225524117 heartbeat IPC: 1.598 cumulative IPC: 2.185 (Simulation time: 02 hr 53 min 02 sec)
Heartbeat CPU 2 instructions: 230000002 cycles: 230498091 heartbeat IPC: 0.7216 cumulative IPC: 0.8338 (Simulation time: 02 hr 56 min 24 sec)
Heartbeat CPU 1 instructions: 540000003 cycles: 231411407 heartbeat IPC: 1.699 cumulative IPC: 2.172 (Simulation time: 02 hr 57 min 03 sec)
Heartbeat CPU 1 instructions: 550000002 cycles: 235773896 heartbeat IPC: 2.292 cumulative IPC: 2.174 (Simulation time: 03 hr 00 min 08 sec)
Heartbeat CPU 1 instructions: 560000002 cycles: 240205165 heartbeat IPC: 2.257 cumulative IPC: 2.176 (Simulation time: 03 hr 03 min 14 sec)
Heartbeat CPU 2 instructions: 240000003 cycles: 243209055 heartbeat IPC: 0.7867 cumulative IPC: 0.8311 (Simulation time: 03 hr 05 min 20 sec)
Heartbeat CPU 1 instructions: 570000001 cycles: 244591744 heartbeat IPC: 2.28 cumulative IPC: 2.178 (Simulation time: 03 hr 06 min 19 sec)
Heartbeat CPU 3 instructions: 120000003 cycles: 246441691 heartbeat IPC: 0.2428 cumulative IPC: 0.2588 (Simulation time: 03 hr 07 min 37 sec)
Heartbeat CPU 1 instructions: 580000002 cycles: 248954491 heartbeat IPC: 2.292 cumulative IPC: 2.18 (Simulation time: 03 hr 09 min 23 sec)
Heartbeat CPU 1 instructions: 590000002 cycles: 253253467 heartbeat IPC: 2.326 cumulative IPC: 2.183 (Simulation time: 03 hr 12 min 27 sec)
Heartbeat CPU 2 instructions: 250000002 cycles: 254767660 heartbeat IPC: 0.8652 cumulative IPC: 0.8328 (Simulation time: 03 hr 13 min 31 sec)
Heartbeat CPU 1 instructions: 600000000 cycles: 257539146 heartbeat IPC: 2.333 cumulative IPC: 2.185 (Simulation time: 03 hr 15 min 30 sec)
Heartbeat CPU 1 instructions: 610000000 cycles: 261897261 heartbeat IPC: 2.295 cumulative IPC: 2.187 (Simulation time: 03 hr 18 min 37 sec)
Heartbeat CPU 1 instructions: 620000001 cycles: 266287944 heartbeat IPC: 2.278 cumulative IPC: 2.189 (Simulation time: 03 hr 21 min 46 sec)
Heartbeat CPU 2 instructions: 260000004 cycles: 266380055 heartbeat IPC: 0.8611 cumulative IPC: 0.8341 (Simulation time: 03 hr 21 min 50 sec)
Heartbeat CPU 1 instructions: 630000001 cycles: 270695716 heartbeat IPC: 2.269 cumulative IPC: 2.19 (Simulation time: 03 hr 24 min 57 sec)
Heartbeat CPU 1 instructions: 640000001 cycles: 275081198 heartbeat IPC: 2.28 cumulative IPC: 2.192 (Simulation time: 03 hr 28 min 08 sec)
Heartbeat CPU 2 instructions: 270000000 cycles: 278252553 heartbeat IPC: 0.8423 cumulative IPC: 0.8345 (Simulation time: 03 hr 30 min 21 sec)
Heartbeat CPU 1 instructions: 650000000 cycles: 279480121 heartbeat IPC: 2.273 cumulative IPC: 2.193 (Simulation time: 03 hr 31 min 13 sec)
Heartbeat CPU 3 instructions: 130000000 cycles: 283547661 heartbeat IPC: 0.2695 cumulative IPC: 0.2603 (Simulation time: 03 hr 34 min 08 sec)
Heartbeat CPU 1 instructions: 660000002 cycles: 283978387 heartbeat IPC: 2.223 cumulative IPC: 2.194 (Simulation time: 03 hr 34 min 26 sec)
Heartbeat CPU 1 instructions: 670000001 cycles: 288495004 heartbeat IPC: 2.214 cumulative IPC: 2.194 (Simulation time: 03 hr 37 min 37 sec)
Heartbeat CPU 2 instructions: 280000000 cycles: 289784463 heartbeat IPC: 0.8672 cumulative IPC: 0.8359 (Simulation time: 03 hr 38 min 31 sec)
Heartbeat CPU 1 instructions: 680000002 cycles: 293093268 heartbeat IPC: 2.175 cumulative IPC: 2.194 (Simulation time: 03 hr 40 min 53 sec)
Heartbeat CPU 0 instructions: 80000002 cycles: 293230795 heartbeat IPC: 0.1074 cumulative IPC: 0.1102 (Simulation time: 03 hr 40 min 59 sec)
Heartbeat CPU 1 instructions: 690000001 cycles: 297612738 heartbeat IPC: 2.213 cumulative IPC: 2.194 (Simulation time: 03 hr 44 min 08 sec)
Heartbeat CPU 2 instructions: 290000001 cycles: 301557865 heartbeat IPC: 0.8494 cumulative IPC: 0.8364 (Simulation time: 03 hr 46 min 58 sec)
Heartbeat CPU 1 instructions: 700000000 cycles: 302145121 heartbeat IPC: 2.206 cumulative IPC: 2.194 (Simulation time: 03 hr 47 min 24 sec)
Heartbeat CPU 1 instructions: 710000002 cycles: 306685896 heartbeat IPC: 2.202 cumulative IPC: 2.195 (Simulation time: 03 hr 50 min 39 sec)
Heartbeat CPU 1 instructions: 720000004 cycles: 311279363 heartbeat IPC: 2.177 cumulative IPC: 2.194 (Simulation time: 03 hr 53 min 56 sec)
Heartbeat CPU 2 instructions: 300000004 cycles: 313489181 heartbeat IPC: 0.8381 cumulative IPC: 0.8365 (Simulation time: 03 hr 55 min 30 sec)
Heartbeat CPU 1 instructions: 730000002 cycles: 315856163 heartbeat IPC: 2.185 cumulative IPC: 2.194 (Simulation time: 03 hr 57 min 09 sec)
Heartbeat CPU 1 instructions: 740000004 cycles: 320427452 heartbeat IPC: 2.188 cumulative IPC: 2.194 (Simulation time: 04 hr 00 min 22 sec)
Heartbeat CPU 3 instructions: 140000003 cycles: 321222447 heartbeat IPC: 0.2654 cumulative IPC: 0.261 (Simulation time: 04 hr 00 min 56 sec)
Heartbeat CPU 1 instructions: 750000001 cycles: 325124520 heartbeat IPC: 2.129 cumulative IPC: 2.193 (Simulation time: 04 hr 03 min 38 sec)
Heartbeat CPU 2 instructions: 310000000 cycles: 325411095 heartbeat IPC: 0.8388 cumulative IPC: 0.8366 (Simulation time: 04 hr 03 min 49 sec)
Heartbeat CPU 1 instructions: 760000000 cycles: 329700929 heartbeat IPC: 2.185 cumulative IPC: 2.193 (Simulation time: 04 hr 06 min 43 sec)
Heartbeat CPU 1 instructions: 770000002 cycles: 334199895 heartbeat IPC: 2.223 cumulative IPC: 2.193 (Simulation time: 04 hr 09 min 49 sec)
Heartbeat CPU 2 instructions: 320000000 cycles: 336994591 heartbeat IPC: 0.8633 cumulative IPC: 0.8376 (Simulation time: 04 hr 11 min 43 sec)
Heartbeat CPU 1 instructions: 780000002 cycles: 338747085 heartbeat IPC: 2.199 cumulative IPC: 2.193 (Simulation time: 04 hr 12 min 56 sec)
Heartbeat CPU 1 instructions: 790000002 cycles: 343254287 heartbeat IPC: 2.219 cumulative IPC: 2.194 (Simulation time: 04 hr 16 min 00 sec)
Heartbeat CPU 1 instructions: 800000001 cycles: 347772246 heartbeat IPC: 2.213 cumulative IPC: 2.194 (Simulation time: 04 hr 19 min 08 sec)
Heartbeat CPU 2 instructions: 330000001 cycles: 348728813 heartbeat IPC: 0.8522 cumulative IPC: 0.8381 (Simulation time: 04 hr 19 min 49 sec)
Heartbeat CPU 1 instructions: 810000000 cycles: 352326899 heartbeat IPC: 2.196 cumulative IPC: 2.194 (Simulation time: 04 hr 22 min 16 sec)
Heartbeat CPU 1 instructions: 820000000 cycles: 356787623 heartbeat IPC: 2.242 cumulative IPC: 2.195 (Simulation time: 04 hr 25 min 24 sec)
Heartbeat CPU 3 instructions: 150000001 cycles: 359813791 heartbeat IPC: 0.2591 cumulative IPC: 0.2608 (Simulation time: 04 hr 27 min 32 sec)
Heartbeat CPU 2 instructions: 340000003 cycles: 361076774 heartbeat IPC: 0.8099 cumulative IPC: 0.8371 (Simulation time: 04 hr 28 min 24 sec)
Heartbeat CPU 1 instructions: 830000004 cycles: 361346661 heartbeat IPC: 2.193 cumulative IPC: 2.195 (Simulation time: 04 hr 28 min 35 sec)
Heartbeat CPU 1 instructions: 840000003 cycles: 365894007 heartbeat IPC: 2.199 cumulative IPC: 2.195 (Simulation time: 04 hr 31 min 47 sec)
Heartbeat CPU 1 instructions: 850000001 cycles: 370372329 heartbeat IPC: 2.233 cumulative IPC: 2.195 (Simulation time: 04 hr 34 min 57 sec)
Heartbeat CPU 2 instructions: 350000002 cycles: 372009459 heartbeat IPC: 0.9147 cumulative IPC: 0.8395 (Simulation time: 04 hr 36 min 07 sec)
Heartbeat CPU 1 instructions: 860000003 cycles: 374882230 heartbeat IPC: 2.217 cumulative IPC: 2.195 (Simulation time: 04 hr 38 min 07 sec)
Heartbeat CPU 1 instructions: 870000003 cycles: 379399221 heartbeat IPC: 2.214 cumulative IPC: 2.196 (Simulation time: 04 hr 41 min 19 sec)
Heartbeat CPU 0 instructions: 90000001 cycles: 381106884 heartbeat IPC: 0.1138 cumulative IPC: 0.111 (Simulation time: 04 hr 42 min 30 sec)
Heartbeat CPU 1 instructions: 880000000 cycles: 383969839 heartbeat IPC: 2.188 cumulative IPC: 2.196 (Simulation time: 04 hr 44 min 29 sec)
Heartbeat CPU 2 instructions: 360000000 cycles: 384003902 heartbeat IPC: 0.8337 cumulative IPC: 0.8393 (Simulation time: 04 hr 44 min 31 sec)
Heartbeat CPU 1 instructions: 890000004 cycles: 388498527 heartbeat IPC: 2.208 cumulative IPC: 2.196 (Simulation time: 04 hr 47 min 39 sec)
Heartbeat CPU 1 instructions: 900000000 cycles: 392987672 heartbeat IPC: 2.228 cumulative IPC: 2.196 (Simulation time: 04 hr 50 min 50 sec)
Heartbeat CPU 2 instructions: 370000001 cycles: 395155920 heartbeat IPC: 0.8967 cumulative IPC: 0.841 (Simulation time: 04 hr 52 min 22 sec)
Heartbeat CPU 1 instructions: 910000003 cycles: 397566956 heartbeat IPC: 2.184 cumulative IPC: 2.196 (Simulation time: 04 hr 54 min 05 sec)
Heartbeat CPU 3 instructions: 160000003 cycles: 398792505 heartbeat IPC: 0.2566 cumulative IPC: 0.2603 (Simulation time: 04 hr 54 min 57 sec)
Heartbeat CPU 1 instructions: 920000001 cycles: 402057979 heartbeat IPC: 2.227 cumulative IPC: 2.196 (Simulation time: 04 hr 57 min 16 sec)
Heartbeat CPU 1 instructions: 930000001 cycles: 406540237 heartbeat IPC: 2.231 cumulative IPC: 2.197 (Simulation time: 05 hr 00 min 27 sec)
Heartbeat CPU 2 instructions: 380000000 cycles: 407122111 heartbeat IPC: 0.8357 cumulative IPC: 0.8408 (Simulation time: 05 hr 00 min 51 sec)
Heartbeat CPU 1 instructions: 940000000 cycles: 411181499 heartbeat IPC: 2.155 cumulative IPC: 2.196 (Simulation time: 05 hr 03 min 43 sec)
Heartbeat CPU 1 instructions: 950000000 cycles: 415842347 heartbeat IPC: 2.146 cumulative IPC: 2.196 (Simulation time: 05 hr 06 min 59 sec)
Heartbeat CPU 2 instructions: 390000004 cycles: 418935589 heartbeat IPC: 0.8465 cumulative IPC: 0.841 (Simulation time: 05 hr 09 min 11 sec)
Heartbeat CPU 1 instructions: 960000003 cycles: 420435301 heartbeat IPC: 2.177 cumulative IPC: 2.195 (Simulation time: 05 hr 10 min 15 sec)
Heartbeat CPU 1 instructions: 970000001 cycles: 424975366 heartbeat IPC: 2.203 cumulative IPC: 2.196 (Simulation time: 05 hr 13 min 30 sec)
Heartbeat CPU 1 instructions: 980000000 cycles: 429579611 heartbeat IPC: 2.172 cumulative IPC: 2.195 (Simulation time: 05 hr 16 min 43 sec)
Heartbeat CPU 2 instructions: 400000000 cycles: 430467873 heartbeat IPC: 0.8671 cumulative IPC: 0.8418 (Simulation time: 05 hr 17 min 22 sec)
Heartbeat CPU 1 instructions: 990000004 cycles: 434098226 heartbeat IPC: 2.213 cumulative IPC: 2.195 (Simulation time: 05 hr 19 min 56 sec)
Heartbeat CPU 3 instructions: 170000004 cycles: 437409822 heartbeat IPC: 0.259 cumulative IPC: 0.2602 (Simulation time: 05 hr 22 min 16 sec)
Heartbeat CPU 1 instructions: 1000000004 cycles: 438731776 heartbeat IPC: 2.158 cumulative IPC: 2.195 (Simulation time: 05 hr 23 min 11 sec)
Heartbeat CPU 2 instructions: 410000004 cycles: 442344581 heartbeat IPC: 0.842 cumulative IPC: 0.8418 (Simulation time: 05 hr 25 min 44 sec)
Heartbeat CPU 1 instructions: 1010000000 cycles: 443376537 heartbeat IPC: 2.153 cumulative IPC: 2.195 (Simulation time: 05 hr 26 min 28 sec)
Heartbeat CPU 1 instructions: 1020000002 cycles: 447845209 heartbeat IPC: 2.238 cumulative IPC: 2.195 (Simulation time: 05 hr 29 min 38 sec)
Heartbeat CPU 1 instructions: 1030000004 cycles: 452290209 heartbeat IPC: 2.25 cumulative IPC: 2.196 (Simulation time: 05 hr 32 min 48 sec)
Heartbeat CPU 2 instructions: 420000000 cycles: 454135363 heartbeat IPC: 0.8481 cumulative IPC: 0.8419 (Simulation time: 05 hr 34 min 06 sec)
Heartbeat CPU 1 instructions: 1040000001 cycles: 456700376 heartbeat IPC: 2.267 cumulative IPC: 2.196 (Simulation time: 05 hr 35 min 56 sec)
Heartbeat CPU 1 instructions: 1050000004 cycles: 461010034 heartbeat IPC: 2.32 cumulative IPC: 2.198 (Simulation time: 05 hr 38 min 58 sec)
Heartbeat CPU 1 instructions: 1060000001 cycles: 465380547 heartbeat IPC: 2.288 cumulative IPC: 2.198 (Simulation time: 05 hr 42 min 02 sec)
Heartbeat CPU 2 instructions: 430000003 cycles: 466282752 heartbeat IPC: 0.8232 cumulative IPC: 0.8414 (Simulation time: 05 hr 42 min 40 sec)
Heartbeat CPU 1 instructions: 1070000000 cycles: 469765242 heartbeat IPC: 2.281 cumulative IPC: 2.199 (Simulation time: 05 hr 45 min 10 sec)
Heartbeat CPU 1 instructions: 1080000000 cycles: 474169649 heartbeat IPC: 2.27 cumulative IPC: 2.2 (Simulation time: 05 hr 48 min 16 sec)
Heartbeat CPU 3 instructions: 180000002 cycles: 475539708 heartbeat IPC: 0.2623 cumulative IPC: 0.2604 (Simulation time: 05 hr 49 min 16 sec)
Heartbeat CPU 0 instructions: 100000000 cycles: 475583471 heartbeat IPC: 0.1058 cumulative IPC: 0.11 (Simulation time: 05 hr 49 min 18 sec)
Heartbeat CPU 2 instructions: 440000002 cycles: 477852963 heartbeat IPC: 0.8643 cumulative IPC: 0.842 (Simulation time: 05 hr 50 min 55 sec)
Heartbeat CPU 1 instructions: 1090000000 cycles: 478490606 heartbeat IPC: 2.314 cumulative IPC: 2.201 (Simulation time: 05 hr 51 min 22 sec)
Heartbeat CPU 1 instructions: 1100000000 cycles: 482804414 heartbeat IPC: 2.318 cumulative IPC: 2.202 (Simulation time: 05 hr 54 min 24 sec)
Heartbeat CPU 1 instructions: 1110000001 cycles: 487193965 heartbeat IPC: 2.278 cumulative IPC: 2.203 (Simulation time: 05 hr 57 min 30 sec)
Heartbeat CPU 2 instructions: 450000000 cycles: 489294499 heartbeat IPC: 0.874 cumulative IPC: 0.8428 (Simulation time: 05 hr 59 min 01 sec)
Heartbeat CPU 1 instructions: 1120000004 cycles: 491532281 heartbeat IPC: 2.305 cumulative IPC: 2.204 (Simulation time: 06 hr 00 min 37 sec)
Heartbeat CPU 1 instructions: 1130000000 cycles: 495944794 heartbeat IPC: 2.266 cumulative IPC: 2.204 (Simulation time: 06 hr 03 min 46 sec)
Heartbeat CPU 1 instructions: 1140000002 cycles: 500371489 heartbeat IPC: 2.259 cumulative IPC: 2.205 (Simulation time: 06 hr 06 min 54 sec)
Heartbeat CPU 2 instructions: 460000001 cycles: 500871210 heartbeat IPC: 0.8638 cumulative IPC: 0.8433 (Simulation time: 06 hr 07 min 16 sec)
Heartbeat CPU 1 instructions: 1150000000 cycles: 504667112 heartbeat IPC: 2.328 cumulative IPC: 2.206 (Simulation time: 06 hr 09 min 59 sec)
Heartbeat CPU 1 instructions: 1160000001 cycles: 511853460 heartbeat IPC: 1.392 cumulative IPC: 2.194 (Simulation time: 06 hr 14 min 54 sec)
Heartbeat CPU 2 instructions: 470000001 cycles: 514375590 heartbeat IPC: 0.7405 cumulative IPC: 0.8405 (Simulation time: 06 hr 16 min 38 sec)
Heartbeat CPU 1 instructions: 1170000004 cycles: 516312042 heartbeat IPC: 2.243 cumulative IPC: 2.194 (Simulation time: 06 hr 18 min 00 sec)
Heartbeat CPU 3 instructions: 190000000 cycles: 516820364 heartbeat IPC: 0.2422 cumulative IPC: 0.2589 (Simulation time: 06 hr 18 min 21 sec)
Heartbeat CPU 1 instructions: 1180000001 cycles: 520647722 heartbeat IPC: 2.306 cumulative IPC: 2.195 (Simulation time: 06 hr 21 min 04 sec)
Heartbeat CPU 1 instructions: 1190000001 cycles: 525031268 heartbeat IPC: 2.281 cumulative IPC: 2.196 (Simulation time: 06 hr 24 min 10 sec)
Heartbeat CPU 2 instructions: 480000000 cycles: 526399034 heartbeat IPC: 0.8317 cumulative IPC: 0.8403 (Simulation time: 06 hr 25 min 08 sec)
Heartbeat CPU 1 instructions: 1200000001 cycles: 529325796 heartbeat IPC: 2.329 cumulative IPC: 2.197 (Simulation time: 06 hr 27 min 13 sec)
Heartbeat CPU 1 instructions: 1210000002 cycles: 533638643 heartbeat IPC: 2.319 cumulative IPC: 2.198 (Simulation time: 06 hr 30 min 19 sec)
Heartbeat CPU 2 instructions: 490000004 cycles: 537604959 heartbeat IPC: 0.8924 cumulative IPC: 0.8414 (Simulation time: 06 hr 33 min 09 sec)
Heartbeat CPU 1 instructions: 1220000003 cycles: 538023035 heartbeat IPC: 2.281 cumulative IPC: 2.199 (Simulation time: 06 hr 33 min 27 sec)
Heartbeat CPU 1 instructions: 1230000002 cycles: 542330126 heartbeat IPC: 2.322 cumulative IPC: 2.2 (Simulation time: 06 hr 36 min 29 sec)
Heartbeat CPU 1 instructions: 1240000002 cycles: 546694848 heartbeat IPC: 2.291 cumulative IPC: 2.201 (Simulation time: 06 hr 39 min 34 sec)
Heartbeat CPU 2 instructions: 500000001 cycles: 549207749 heartbeat IPC: 0.8619 cumulative IPC: 0.8418 (Simulation time: 06 hr 41 min 21 sec)
Heartbeat CPU 1 instructions: 1250000003 cycles: 551088245 heartbeat IPC: 2.276 cumulative IPC: 2.201 (Simulation time: 06 hr 42 min 42 sec)
Heartbeat CPU 3 instructions: 200000001 cycles: 554779252 heartbeat IPC: 0.2634 cumulative IPC: 0.2592 (Simulation time: 06 hr 45 min 24 sec)
Heartbeat CPU 1 instructions: 1260000000 cycles: 555387695 heartbeat IPC: 2.326 cumulative IPC: 2.202 (Simulation time: 06 hr 45 min 52 sec)
Heartbeat CPU 1 instructions: 1270000000 cycles: 559677055 heartbeat IPC: 2.331 cumulative IPC: 2.203 (Simulation time: 06 hr 48 min 59 sec)
Heartbeat CPU 2 instructions: 510000004 cycles: 561128758 heartbeat IPC: 0.8389 cumulative IPC: 0.8418 (Simulation time: 06 hr 50 min 03 sec)
Heartbeat CPU 1 instructions: 1280000001 cycles: 563982479 heartbeat IPC: 2.323 cumulative IPC: 2.204 (Simulation time: 06 hr 52 min 08 sec)
Heartbeat CPU 1 instructions: 1290000003 cycles: 568376346 heartbeat IPC: 2.276 cumulative IPC: 2.205 (Simulation time: 06 hr 55 min 19 sec)
Heartbeat CPU 0 instructions: 110000004 cycles: 569723362 heartbeat IPC: 0.1062 cumulative IPC: 0.1093 (Simulation time: 06 hr 56 min 18 sec)
Heartbeat CPU 1 instructions: 1300000001 cycles: 572759397 heartbeat IPC: 2.282 cumulative IPC: 2.206 (Simulation time: 06 hr 58 min 26 sec)
Heartbeat CPU 2 instructions: 520000001 cycles: 573136808 heartbeat IPC: 0.8328 cumulative IPC: 0.8416 (Simulation time: 06 hr 58 min 43 sec)
Heartbeat CPU 1 instructions: 1310000003 cycles: 577207377 heartbeat IPC: 2.248 cumulative IPC: 2.206 (Simulation time: 07 hr 01 min 40 sec)
Heartbeat CPU 1 instructions: 1320000000 cycles: 581652107 heartbeat IPC: 2.25 cumulative IPC: 2.206 (Simulation time: 07 hr 04 min 54 sec)
Heartbeat CPU 2 instructions: 530000001 cycles: 584457774 heartbeat IPC: 0.8833 cumulative IPC: 0.8424 (Simulation time: 07 hr 06 min 56 sec)
Heartbeat CPU 1 instructions: 1330000004 cycles: 586138754 heartbeat IPC: 2.229 cumulative IPC: 2.206 (Simulation time: 07 hr 08 min 09 sec)
Heartbeat CPU 1 instructions: 1340000000 cycles: 590612875 heartbeat IPC: 2.235 cumulative IPC: 2.207 (Simulation time: 07 hr 11 min 23 sec)
Heartbeat CPU 3 instructions: 210000000 cycles: 593875144 heartbeat IPC: 0.2558 cumulative IPC: 0.259 (Simulation time: 07 hr 13 min 44 sec)
Heartbeat CPU 1 instructions: 1350000001 cycles: 595130967 heartbeat IPC: 2.213 cumulative IPC: 2.207 (Simulation time: 07 hr 14 min 39 sec)
Heartbeat CPU 2 instructions: 540000002 cycles: 595946673 heartbeat IPC: 0.8704 cumulative IPC: 0.843 (Simulation time: 07 hr 15 min 15 sec)
Heartbeat CPU 1 instructions: 1360000003 cycles: 599640687 heartbeat IPC: 2.217 cumulative IPC: 2.207 (Simulation time: 07 hr 17 min 55 sec)
Simulation finished CPU 3 instructions: 150000001 cycles: 579308043 cumulative IPC: 0.2589 (Simulation time: 07 hr 18 min 19 sec)
Heartbeat CPU 1 instructions: 1370000003 cycles: 604279903 heartbeat IPC: 2.156 cumulative IPC: 2.206 (Simulation time: 07 hr 21 min 17 sec)
Heartbeat CPU 2 instructions: 550000000 cycles: 607557381 heartbeat IPC: 0.8613 cumulative IPC: 0.8433 (Simulation time: 07 hr 23 min 39 sec)
Heartbeat CPU 1 instructions: 1380000002 cycles: 608796847 heartbeat IPC: 2.214 cumulative IPC: 2.206 (Simulation time: 07 hr 24 min 33 sec)
Heartbeat CPU 1 instructions: 1390000000 cycles: 613464196 heartbeat IPC: 2.143 cumulative IPC: 2.206 (Simulation time: 07 hr 27 min 55 sec)
Heartbeat CPU 1 instructions: 1400000003 cycles: 618043698 heartbeat IPC: 2.184 cumulative IPC: 2.206 (Simulation time: 07 hr 31 min 13 sec)
Heartbeat CPU 2 instructions: 560000002 cycles: 619529417 heartbeat IPC: 0.8353 cumulative IPC: 0.8432 (Simulation time: 07 hr 32 min 16 sec)
Heartbeat CPU 1 instructions: 1410000002 cycles: 622549652 heartbeat IPC: 2.219 cumulative IPC: 2.206 (Simulation time: 07 hr 34 min 27 sec)
Heartbeat CPU 1 instructions: 1420000001 cycles: 627114367 heartbeat IPC: 2.191 cumulative IPC: 2.206 (Simulation time: 07 hr 37 min 44 sec)
Heartbeat CPU 1 instructions: 1430000000 cycles: 631632064 heartbeat IPC: 2.214 cumulative IPC: 2.206 (Simulation time: 07 hr 41 min 01 sec)
Heartbeat CPU 2 instructions: 570000001 cycles: 631636507 heartbeat IPC: 0.826 cumulative IPC: 0.8428 (Simulation time: 07 hr 41 min 01 sec)
Heartbeat CPU 3 instructions: 220000000 cycles: 632721243 heartbeat IPC: 0.2574 cumulative IPC: 0.2589 (Simulation time: 07 hr 41 min 48 sec)
Heartbeat CPU 1 instructions: 1440000000 cycles: 636180196 heartbeat IPC: 2.199 cumulative IPC: 2.206 (Simulation time: 07 hr 44 min 18 sec)
Heartbeat CPU 1 instructions: 1450000001 cycles: 640806490 heartbeat IPC: 2.162 cumulative IPC: 2.205 (Simulation time: 07 hr 47 min 39 sec)
Heartbeat CPU 2 instructions: 580000000 cycles: 643540903 heartbeat IPC: 0.84 cumulative IPC: 0.8428 (Simulation time: 07 hr 49 min 37 sec)
Heartbeat CPU 1 instructions: 1460000004 cycles: 645290790 heartbeat IPC: 2.23 cumulative IPC: 2.206 (Simulation time: 07 hr 50 min 53 sec)
Heartbeat CPU 1 instructions: 1470000000 cycles: 649851154 heartbeat IPC: 2.193 cumulative IPC: 2.206 (Simulation time: 07 hr 54 min 12 sec)
Heartbeat CPU 1 instructions: 1480000001 cycles: 654402938 heartbeat IPC: 2.197 cumulative IPC: 2.205 (Simulation time: 07 hr 57 min 29 sec)
Heartbeat CPU 2 instructions: 590000003 cycles: 654960664 heartbeat IPC: 0.8757 cumulative IPC: 0.8434 (Simulation time: 07 hr 57 min 53 sec)
Heartbeat CPU 1 instructions: 1490000000 cycles: 658923443 heartbeat IPC: 2.212 cumulative IPC: 2.206 (Simulation time: 08 hr 00 min 45 sec)
Heartbeat CPU 0 instructions: 120000004 cycles: 659744684 heartbeat IPC: 0.1111 cumulative IPC: 0.1096 (Simulation time: 08 hr 01 min 21 sec)
Heartbeat CPU 1 instructions: 1500000003 cycles: 663473675 heartbeat IPC: 2.198 cumulative IPC: 2.205 (Simulation time: 08 hr 04 min 03 sec)
Heartbeat CPU 2 instructions: 600000004 cycles: 666438703 heartbeat IPC: 0.8712 cumulative IPC: 0.8439 (Simulation time: 08 hr 06 min 11 sec)
Heartbeat CPU 1 instructions: 1510000002 cycles: 668000931 heartbeat IPC: 2.209 cumulative IPC: 2.205 (Simulation time: 08 hr 07 min 19 sec)
Heartbeat CPU 3 instructions: 230000000 cycles: 671322680 heartbeat IPC: 0.2591 cumulative IPC: 0.2589 (Simulation time: 08 hr 09 min 43 sec)
Heartbeat CPU 1 instructions: 1520000003 cycles: 672548164 heartbeat IPC: 2.199 cumulative IPC: 2.205 (Simulation time: 08 hr 10 min 36 sec)
Heartbeat CPU 1 instructions: 1530000002 cycles: 677080701 heartbeat IPC: 2.206 cumulative IPC: 2.205 (Simulation time: 08 hr 13 min 51 sec)
Heartbeat CPU 2 instructions: 610000001 cycles: 678142988 heartbeat IPC: 0.8544 cumulative IPC: 0.8441 (Simulation time: 08 hr 14 min 36 sec)
Heartbeat CPU 1 instructions: 1540000002 cycles: 681592535 heartbeat IPC: 2.216 cumulative IPC: 2.206 (Simulation time: 08 hr 17 min 05 sec)
Heartbeat CPU 1 instructions: 1550000003 cycles: 686155651 heartbeat IPC: 2.191 cumulative IPC: 2.205 (Simulation time: 08 hr 20 min 22 sec)
Heartbeat CPU 2 instructions: 620000000 cycles: 690317233 heartbeat IPC: 0.8214 cumulative IPC: 0.8437 (Simulation time: 08 hr 23 min 22 sec)
Heartbeat CPU 1 instructions: 1560000002 cycles: 690630413 heartbeat IPC: 2.235 cumulative IPC: 2.206 (Simulation time: 08 hr 23 min 36 sec)
Heartbeat CPU 1 instructions: 1570000004 cycles: 695072035 heartbeat IPC: 2.251 cumulative IPC: 2.206 (Simulation time: 08 hr 26 min 49 sec)
Heartbeat CPU 1 instructions: 1580000000 cycles: 699561931 heartbeat IPC: 2.227 cumulative IPC: 2.206 (Simulation time: 08 hr 30 min 04 sec)
Heartbeat CPU 2 instructions: 630000000 cycles: 701609068 heartbeat IPC: 0.8856 cumulative IPC: 0.8443 (Simulation time: 08 hr 31 min 34 sec)
Heartbeat CPU 1 instructions: 1590000000 cycles: 704064609 heartbeat IPC: 2.221 cumulative IPC: 2.206 (Simulation time: 08 hr 33 min 20 sec)
Heartbeat CPU 1 instructions: 1600000003 cycles: 708542716 heartbeat IPC: 2.233 cumulative IPC: 2.206 (Simulation time: 08 hr 36 min 36 sec)
Heartbeat CPU 3 instructions: 240000003 cycles: 710117389 heartbeat IPC: 0.2578 cumulative IPC: 0.2588 (Simulation time: 08 hr 37 min 43 sec)
Heartbeat CPU 1 instructions: 1610000001 cycles: 713129062 heartbeat IPC: 2.18 cumulative IPC: 2.206 (Simulation time: 08 hr 39 min 54 sec)
Heartbeat CPU 2 instructions: 640000004 cycles: 713188752 heartbeat IPC: 0.8636 cumulative IPC: 0.8447 (Simulation time: 08 hr 39 min 57 sec)
Heartbeat CPU 1 instructions: 1620000000 cycles: 717580865 heartbeat IPC: 2.246 cumulative IPC: 2.206 (Simulation time: 08 hr 43 min 09 sec)
Heartbeat CPU 1 instructions: 1630000000 cycles: 722105740 heartbeat IPC: 2.21 cumulative IPC: 2.206 (Simulation time: 08 hr 46 min 26 sec)
Heartbeat CPU 2 instructions: 650000000 cycles: 724861419 heartbeat IPC: 0.8567 cumulative IPC: 0.8449 (Simulation time: 08 hr 48 min 26 sec)
Heartbeat CPU 1 instructions: 1640000001 cycles: 726576239 heartbeat IPC: 2.237 cumulative IPC: 2.207 (Simulation time: 08 hr 49 min 40 sec)
Heartbeat CPU 1 instructions: 1650000001 cycles: 731120937 heartbeat IPC: 2.2 cumulative IPC: 2.207 (Simulation time: 08 hr 52 min 56 sec)
Heartbeat CPU 1 instructions: 1660000004 cycles: 735588874 heartbeat IPC: 2.238 cumulative IPC: 2.207 (Simulation time: 08 hr 56 min 13 sec)
Heartbeat CPU 2 instructions: 660000002 cycles: 736770150 heartbeat IPC: 0.8397 cumulative IPC: 0.8448 (Simulation time: 08 hr 57 min 03 sec)
Heartbeat CPU 1 instructions: 1670000004 cycles: 740089041 heartbeat IPC: 2.222 cumulative IPC: 2.207 (Simulation time: 08 hr 59 min 28 sec)
Heartbeat CPU 1 instructions: 1680000000 cycles: 744730767 heartbeat IPC: 2.154 cumulative IPC: 2.207 (Simulation time: 09 hr 02 min 48 sec)
Heartbeat CPU 3 instructions: 250000000 cycles: 747486824 heartbeat IPC: 0.2676 cumulative IPC: 0.2593 (Simulation time: 09 hr 04 min 48 sec)
Heartbeat CPU 2 instructions: 670000001 cycles: 748944799 heartbeat IPC: 0.8214 cumulative IPC: 0.8444 (Simulation time: 09 hr 05 min 51 sec)
Heartbeat CPU 1 instructions: 1690000003 cycles: 749253485 heartbeat IPC: 2.211 cumulative IPC: 2.207 (Simulation time: 09 hr 06 min 04 sec)
Heartbeat CPU 0 instructions: 130000002 cycles: 751342946 heartbeat IPC: 0.1092 cumulative IPC: 0.1095 (Simulation time: 09 hr 07 min 36 sec)
Heartbeat CPU 1 instructions: 1700000002 cycles: 753732272 heartbeat IPC: 2.233 cumulative IPC: 2.207 (Simulation time: 09 hr 09 min 20 sec)
Heartbeat CPU 1 instructions: 1710000000 cycles: 758283613 heartbeat IPC: 2.197 cumulative IPC: 2.207 (Simulation time: 09 hr 12 min 39 sec)
Heartbeat CPU 2 instructions: 680000002 cycles: 760677239 heartbeat IPC: 0.8523 cumulative IPC: 0.8445 (Simulation time: 09 hr 14 min 22 sec)
Heartbeat CPU 1 instructions: 1720000002 cycles: 762852126 heartbeat IPC: 2.189 cumulative IPC: 2.207 (Simulation time: 09 hr 15 min 56 sec)
Heartbeat CPU 1 instructions: 1730000001 cycles: 767289479 heartbeat IPC: 2.254 cumulative IPC: 2.207 (Simulation time: 09 hr 19 min 12 sec)
Heartbeat CPU 1 instructions: 1740000002 cycles: 771699727 heartbeat IPC: 2.267 cumulative IPC: 2.207 (Simulation time: 09 hr 22 min 25 sec)
Heartbeat CPU 2 instructions: 690000004 cycles: 772075057 heartbeat IPC: 0.8774 cumulative IPC: 0.845 (Simulation time: 09 hr 22 min 41 sec)
Heartbeat CPU 1 instructions: 1750000001 cycles: 775964465 heartbeat IPC: 2.345 cumulative IPC: 2.208 (Simulation time: 09 hr 25 min 33 sec)
Heartbeat CPU 1 instructions: 1760000003 cycles: 780236445 heartbeat IPC: 2.341 cumulative IPC: 2.209 (Simulation time: 09 hr 28 min 40 sec)
Heartbeat CPU 2 instructions: 700000002 cycles: 783470138 heartbeat IPC: 0.8776 cumulative IPC: 0.8455 (Simulation time: 09 hr 31 min 02 sec)
Heartbeat CPU 1 instructions: 1770000001 cycles: 784597857 heartbeat IPC: 2.293 cumulative IPC: 2.209 (Simulation time: 09 hr 31 min 52 sec)
Heartbeat CPU 3 instructions: 260000003 cycles: 785488918 heartbeat IPC: 0.2631 cumulative IPC: 0.2595 (Simulation time: 09 hr 32 min 31 sec)
Heartbeat CPU 1 instructions: 1780000001 cycles: 788816152 heartbeat IPC: 2.371 cumulative IPC: 2.21 (Simulation time: 09 hr 34 min 58 sec)
Heartbeat CPU 1 instructions: 1790000004 cycles: 793082898 heartbeat IPC: 2.344 cumulative IPC: 2.211 (Simulation time: 09 hr 38 min 01 sec)
Heartbeat CPU 2 instructions: 710000002 cycles: 795515771 heartbeat IPC: 0.8302 cumulative IPC: 0.8453 (Simulation time: 09 hr 39 min 47 sec)
Heartbeat CPU 1 instructions: 1800000003 cycles: 797401762 heartbeat IPC: 2.315 cumulative IPC: 2.211 (Simulation time: 09 hr 41 min 11 sec)
Heartbeat CPU 1 instructions: 1810000002 cycles: 801767879 heartbeat IPC: 2.29 cumulative IPC: 2.212 (Simulation time: 09 hr 44 min 21 sec)
Heartbeat CPU 1 instructions: 1820000002 cycles: 806000388 heartbeat IPC: 2.363 cumulative IPC: 2.213 (Simulation time: 09 hr 47 min 27 sec)
Heartbeat CPU 2 instructions: 720000000 cycles: 807230708 heartbeat IPC: 0.8536 cumulative IPC: 0.8454 (Simulation time: 09 hr 48 min 22 sec)
Heartbeat CPU 1 instructions: 1830000001 cycles: 810364636 heartbeat IPC: 2.291 cumulative IPC: 2.213 (Simulation time: 09 hr 50 min 39 sec)
Heartbeat CPU 1 instructions: 1840000001 cycles: 814633300 heartbeat IPC: 2.343 cumulative IPC: 2.214 (Simulation time: 09 hr 53 min 44 sec)
Heartbeat CPU 1 instructions: 1850000001 cycles: 818886146 heartbeat IPC: 2.351 cumulative IPC: 2.215 (Simulation time: 09 hr 56 min 51 sec)
Heartbeat CPU 2 instructions: 730000003 cycles: 818928994 heartbeat IPC: 0.8548 cumulative IPC: 0.8455 (Simulation time: 09 hr 56 min 53 sec)
Heartbeat CPU 3 instructions: 270000002 cycles: 822982939 heartbeat IPC: 0.2667 cumulative IPC: 0.2598 (Simulation time: 09 hr 59 min 51 sec)
Heartbeat CPU 1 instructions: 1860000001 cycles: 823140191 heartbeat IPC: 2.351 cumulative IPC: 2.215 (Simulation time: 09 hr 59 min 58 sec)
Heartbeat CPU 1 instructions: 1870000004 cycles: 827529726 heartbeat IPC: 2.278 cumulative IPC: 2.216 (Simulation time: 10 hr 03 min 09 sec)
Heartbeat CPU 2 instructions: 740000001 cycles: 830521474 heartbeat IPC: 0.8626 cumulative IPC: 0.8458 (Simulation time: 10 hr 05 min 20 sec)
Heartbeat CPU 1 instructions: 1880000003 cycles: 831797606 heartbeat IPC: 2.343 cumulative IPC: 2.216 (Simulation time: 10 hr 06 min 16 sec)
Heartbeat CPU 1 instructions: 1890000000 cycles: 836258796 heartbeat IPC: 2.242 cumulative IPC: 2.216 (Simulation time: 10 hr 09 min 30 sec)
Heartbeat CPU 0 instructions: 140000001 cycles: 839589640 heartbeat IPC: 0.1133 cumulative IPC: 0.1099 (Simulation time: 10 hr 11 min 56 sec)
Heartbeat CPU 1 instructions: 1900000000 cycles: 840608838 heartbeat IPC: 2.299 cumulative IPC: 2.217 (Simulation time: 10 hr 12 min 40 sec)
Heartbeat CPU 2 instructions: 750000002 cycles: 842586881 heartbeat IPC: 0.8288 cumulative IPC: 0.8455 (Simulation time: 10 hr 14 min 02 sec)
Heartbeat CPU 1 instructions: 1910000002 cycles: 848463290 heartbeat IPC: 1.273 cumulative IPC: 2.208 (Simulation time: 10 hr 18 min 06 sec)
Heartbeat CPU 1 instructions: 1920000004 cycles: 852862501 heartbeat IPC: 2.273 cumulative IPC: 2.208 (Simulation time: 10 hr 21 min 19 sec)
Heartbeat CPU 2 instructions: 760000004 cycles: 855269788 heartbeat IPC: 0.7885 cumulative IPC: 0.8447 (Simulation time: 10 hr 23 min 04 sec)
Heartbeat CPU 1 instructions: 1930000002 cycles: 857181418 heartbeat IPC: 2.315 cumulative IPC: 2.209 (Simulation time: 10 hr 24 min 28 sec)
Heartbeat CPU 1 instructions: 1940000003 cycles: 861593241 heartbeat IPC: 2.267 cumulative IPC: 2.209 (Simulation time: 10 hr 27 min 40 sec)
Heartbeat CPU 3 instructions: 280000003 cycles: 862917565 heartbeat IPC: 0.2504 cumulative IPC: 0.2593 (Simulation time: 10 hr 28 min 38 sec)
Heartbeat CPU 1 instructions: 1950000004 cycles: 865864711 heartbeat IPC: 2.341 cumulative IPC: 2.21 (Simulation time: 10 hr 30 min 46 sec)
Heartbeat CPU 2 instructions: 770000003 cycles: 866928295 heartbeat IPC: 0.8577 cumulative IPC: 0.8448 (Simulation time: 10 hr 31 min 34 sec)
Heartbeat CPU 1 instructions: 1960000000 cycles: 870109871 heartbeat IPC: 2.356 cumulative IPC: 2.21 (Simulation time: 10 hr 33 min 52 sec)
Heartbeat CPU 1 instructions: 1970000004 cycles: 874422078 heartbeat IPC: 2.319 cumulative IPC: 2.211 (Simulation time: 10 hr 37 min 01 sec)
Heartbeat CPU 1 instructions: 1980000000 cycles: 878674461 heartbeat IPC: 2.352 cumulative IPC: 2.212 (Simulation time: 10 hr 40 min 07 sec)
Heartbeat CPU 2 instructions: 780000000 cycles: 878820768 heartbeat IPC: 0.8409 cumulative IPC: 0.8448 (Simulation time: 10 hr 40 min 13 sec)
Heartbeat CPU 1 instructions: 1990000001 cycles: 882929268 heartbeat IPC: 2.35 cumulative IPC: 2.212 (Simulation time: 10 hr 43 min 13 sec)
*** Reached end of trace: (1, "/home/grads/r/rdas40/dpc3_traces/603.bwaves_s-3699B.champsimtrace.xz")
Heartbeat CPU 1 instructions: 2000000001 cycles: 887222430 heartbeat IPC: 2.329 cumulative IPC: 2.213 (Simulation time: 10 hr 46 min 20 sec)
Heartbeat CPU 2 instructions: 790000004 cycles: 890891397 heartbeat IPC: 0.8285 cumulative IPC: 0.8446 (Simulation time: 10 hr 49 min 00 sec)
Heartbeat CPU 1 instructions: 2010000004 cycles: 891542335 heartbeat IPC: 2.315 cumulative IPC: 2.214 (Simulation time: 10 hr 49 min 28 sec)
Heartbeat CPU 1 instructions: 2020000004 cycles: 897466970 heartbeat IPC: 1.688 cumulative IPC: 2.21 (Simulation time: 10 hr 53 min 41 sec)
Heartbeat CPU 3 instructions: 290000000 cycles: 903049738 heartbeat IPC: 0.2492 cumulative IPC: 0.2589 (Simulation time: 10 hr 57 min 36 sec)
Heartbeat CPU 1 instructions: 2030000000 cycles: 903372391 heartbeat IPC: 1.693 cumulative IPC: 2.206 (Simulation time: 10 hr 57 min 49 sec)
Heartbeat CPU 2 instructions: 800000001 cycles: 905294851 heartbeat IPC: 0.6943 cumulative IPC: 0.8421 (Simulation time: 10 hr 59 min 09 sec)
Heartbeat CPU 1 instructions: 2040000001 cycles: 907719444 heartbeat IPC: 2.3 cumulative IPC: 2.207 (Simulation time: 11 hr 00 min 55 sec)
Heartbeat CPU 1 instructions: 2050000003 cycles: 912069490 heartbeat IPC: 2.299 cumulative IPC: 2.207 (Simulation time: 11 hr 04 min 05 sec)
Heartbeat CPU 1 instructions: 2060000001 cycles: 916349929 heartbeat IPC: 2.336 cumulative IPC: 2.208 (Simulation time: 11 hr 07 min 13 sec)
Heartbeat CPU 2 instructions: 810000004 cycles: 916786751 heartbeat IPC: 0.8702 cumulative IPC: 0.8425 (Simulation time: 11 hr 07 min 33 sec)
Heartbeat CPU 1 instructions: 2070000003 cycles: 920633290 heartbeat IPC: 2.335 cumulative IPC: 2.209 (Simulation time: 11 hr 10 min 21 sec)
Heartbeat CPU 1 instructions: 2080000002 cycles: 924921918 heartbeat IPC: 2.332 cumulative IPC: 2.209 (Simulation time: 11 hr 13 min 29 sec)
Heartbeat CPU 2 instructions: 820000002 cycles: 928237720 heartbeat IPC: 0.8733 cumulative IPC: 0.8429 (Simulation time: 11 hr 15 min 56 sec)
Heartbeat CPU 1 instructions: 2090000003 cycles: 929296666 heartbeat IPC: 2.286 cumulative IPC: 2.21 (Simulation time: 11 hr 16 min 42 sec)
Heartbeat CPU 1 instructions: 2100000004 cycles: 933684631 heartbeat IPC: 2.279 cumulative IPC: 2.21 (Simulation time: 11 hr 19 min 54 sec)
Heartbeat CPU 0 instructions: 150000003 cycles: 936796149 heartbeat IPC: 0.1029 cumulative IPC: 0.1092 (Simulation time: 11 hr 22 min 09 sec)
Heartbeat CPU 1 instructions: 2110000001 cycles: 938271391 heartbeat IPC: 2.18 cumulative IPC: 2.21 (Simulation time: 11 hr 23 min 13 sec)
Heartbeat CPU 2 instructions: 830000003 cycles: 940010750 heartbeat IPC: 0.8494 cumulative IPC: 0.8429 (Simulation time: 11 hr 24 min 29 sec)
Heartbeat CPU 3 instructions: 300000000 cycles: 941279694 heartbeat IPC: 0.2616 cumulative IPC: 0.259 (Simulation time: 11 hr 25 min 24 sec)
Heartbeat CPU 1 instructions: 2120000000 cycles: 942700778 heartbeat IPC: 2.258 cumulative IPC: 2.21 (Simulation time: 11 hr 26 min 26 sec)
Heartbeat CPU 1 instructions: 2130000004 cycles: 947265088 heartbeat IPC: 2.191 cumulative IPC: 2.21 (Simulation time: 11 hr 29 min 43 sec)
Heartbeat CPU 1 instructions: 2140000001 cycles: 951824409 heartbeat IPC: 2.193 cumulative IPC: 2.21 (Simulation time: 11 hr 33 min 03 sec)
Heartbeat CPU 2 instructions: 840000000 cycles: 952062119 heartbeat IPC: 0.8298 cumulative IPC: 0.8428 (Simulation time: 11 hr 33 min 13 sec)
Heartbeat CPU 1 instructions: 2150000001 cycles: 956302201 heartbeat IPC: 2.233 cumulative IPC: 2.21 (Simulation time: 11 hr 36 min 17 sec)
Heartbeat CPU 1 instructions: 2160000000 cycles: 960760395 heartbeat IPC: 2.243 cumulative IPC: 2.21 (Simulation time: 11 hr 39 min 32 sec)
Heartbeat CPU 2 instructions: 850000000 cycles: 963916255 heartbeat IPC: 0.8436 cumulative IPC: 0.8428 (Simulation time: 11 hr 41 min 51 sec)
Heartbeat CPU 1 instructions: 2170000000 cycles: 965224337 heartbeat IPC: 2.24 cumulative IPC: 2.21 (Simulation time: 11 hr 42 min 47 sec)
Heartbeat CPU 1 instructions: 2180000002 cycles: 969861800 heartbeat IPC: 2.156 cumulative IPC: 2.21 (Simulation time: 11 hr 46 min 08 sec)
Heartbeat CPU 1 instructions: 2190000000 cycles: 974410861 heartbeat IPC: 2.198 cumulative IPC: 2.21 (Simulation time: 11 hr 49 min 27 sec)
Heartbeat CPU 2 instructions: 860000002 cycles: 975720561 heartbeat IPC: 0.8471 cumulative IPC: 0.8428 (Simulation time: 11 hr 50 min 24 sec)
Heartbeat CPU 1 instructions: 2200000003 cycles: 978901754 heartbeat IPC: 2.227 cumulative IPC: 2.21 (Simulation time: 11 hr 52 min 43 sec)
Heartbeat CPU 3 instructions: 310000002 cycles: 979573336 heartbeat IPC: 0.2611 cumulative IPC: 0.2591 (Simulation time: 11 hr 53 min 13 sec)
Heartbeat CPU 1 instructions: 2210000000 cycles: 983486121 heartbeat IPC: 2.181 cumulative IPC: 2.21 (Simulation time: 11 hr 56 min 02 sec)
Heartbeat CPU 2 instructions: 870000003 cycles: 987198287 heartbeat IPC: 0.8713 cumulative IPC: 0.8432 (Simulation time: 11 hr 58 min 43 sec)
Heartbeat CPU 1 instructions: 2220000001 cycles: 988154151 heartbeat IPC: 2.142 cumulative IPC: 2.21 (Simulation time: 11 hr 59 min 25 sec)
Heartbeat CPU 1 instructions: 2230000004 cycles: 992780331 heartbeat IPC: 2.162 cumulative IPC: 2.209 (Simulation time: 12 hr 02 min 47 sec)
Heartbeat CPU 1 instructions: 2240000000 cycles: 997443848 heartbeat IPC: 2.144 cumulative IPC: 2.209 (Simulation time: 12 hr 06 min 09 sec)
Heartbeat CPU 2 instructions: 880000000 cycles: 999001097 heartbeat IPC: 0.8473 cumulative IPC: 0.8432 (Simulation time: 12 hr 07 min 17 sec)
Heartbeat CPU 1 instructions: 2250000004 cycles: 1002001454 heartbeat IPC: 2.194 cumulative IPC: 2.209 (Simulation time: 12 hr 09 min 27 sec)
Heartbeat CPU 1 instructions: 2260000000 cycles: 1006519703 heartbeat IPC: 2.213 cumulative IPC: 2.209 (Simulation time: 12 hr 12 min 43 sec)
Heartbeat CPU 2 instructions: 890000004 cycles: 1011064782 heartbeat IPC: 0.8289 cumulative IPC: 0.843 (Simulation time: 12 hr 16 min 00 sec)
Heartbeat CPU 1 instructions: 2270000002 cycles: 1011186033 heartbeat IPC: 2.143 cumulative IPC: 2.209 (Simulation time: 12 hr 16 min 05 sec)
Heartbeat CPU 1 instructions: 2280000002 cycles: 1015674083 heartbeat IPC: 2.228 cumulative IPC: 2.209 (Simulation time: 12 hr 19 min 18 sec)
Heartbeat CPU 3 instructions: 320000000 cycles: 1017939509 heartbeat IPC: 0.2606 cumulative IPC: 0.2591 (Simulation time: 12 hr 20 min 56 sec)
Heartbeat CPU 1 instructions: 2290000000 cycles: 1020209169 heartbeat IPC: 2.205 cumulative IPC: 2.209 (Simulation time: 12 hr 22 min 36 sec)
Heartbeat CPU 2 instructions: 900000000 cycles: 1023672047 heartbeat IPC: 0.7932 cumulative IPC: 0.8424 (Simulation time: 12 hr 25 min 06 sec)
Heartbeat CPU 1 instructions: 2300000001 cycles: 1024820022 heartbeat IPC: 2.169 cumulative IPC: 2.209 (Simulation time: 12 hr 25 min 56 sec)
Heartbeat CPU 1 instructions: 2310000002 cycles: 1029314930 heartbeat IPC: 2.225 cumulative IPC: 2.209 (Simulation time: 12 hr 29 min 17 sec)
Heartbeat CPU 0 instructions: 160000002 cycles: 1029616231 heartbeat IPC: 0.1077 cumulative IPC: 0.109 (Simulation time: 12 hr 29 min 30 sec)
Heartbeat CPU 1 instructions: 2320000001 cycles: 1033829038 heartbeat IPC: 2.215 cumulative IPC: 2.209 (Simulation time: 12 hr 32 min 35 sec)
Heartbeat CPU 2 instructions: 910000002 cycles: 1035082520 heartbeat IPC: 0.8764 cumulative IPC: 0.8428 (Simulation time: 12 hr 33 min 29 sec)
Heartbeat CPU 1 instructions: 2330000003 cycles: 1038337697 heartbeat IPC: 2.218 cumulative IPC: 2.209 (Simulation time: 12 hr 35 min 51 sec)
Heartbeat CPU 1 instructions: 2340000000 cycles: 1042889580 heartbeat IPC: 2.197 cumulative IPC: 2.209 (Simulation time: 12 hr 39 min 11 sec)
Heartbeat CPU 2 instructions: 920000001 cycles: 1046440914 heartbeat IPC: 0.8804 cumulative IPC: 0.8432 (Simulation time: 12 hr 41 min 48 sec)
Heartbeat CPU 1 instructions: 2350000000 cycles: 1047486614 heartbeat IPC: 2.175 cumulative IPC: 2.208 (Simulation time: 12 hr 42 min 35 sec)
Heartbeat CPU 1 instructions: 2360000003 cycles: 1052173476 heartbeat IPC: 2.134 cumulative IPC: 2.208 (Simulation time: 12 hr 45 min 59 sec)
Heartbeat CPU 3 instructions: 330000003 cycles: 1056161015 heartbeat IPC: 0.2616 cumulative IPC: 0.2592 (Simulation time: 12 hr 48 min 53 sec)
Heartbeat CPU 1 instructions: 2370000001 cycles: 1056749706 heartbeat IPC: 2.185 cumulative IPC: 2.208 (Simulation time: 12 hr 49 min 19 sec)
Heartbeat CPU 2 instructions: 930000004 cycles: 1058105523 heartbeat IPC: 0.8573 cumulative IPC: 0.8434 (Simulation time: 12 hr 50 min 18 sec)
Heartbeat CPU 1 instructions: 2380000001 cycles: 1061348115 heartbeat IPC: 2.175 cumulative IPC: 2.208 (Simulation time: 12 hr 52 min 38 sec)
Heartbeat CPU 1 instructions: 2390000004 cycles: 1065870722 heartbeat IPC: 2.211 cumulative IPC: 2.208 (Simulation time: 12 hr 55 min 54 sec)
Heartbeat CPU 2 instructions: 940000003 cycles: 1069879282 heartbeat IPC: 0.8493 cumulative IPC: 0.8434 (Simulation time: 12 hr 58 min 48 sec)
Heartbeat CPU 1 instructions: 2400000000 cycles: 1070443009 heartbeat IPC: 2.187 cumulative IPC: 2.208 (Simulation time: 12 hr 59 min 13 sec)
Heartbeat CPU 1 instructions: 2410000001 cycles: 1074951347 heartbeat IPC: 2.218 cumulative IPC: 2.208 (Simulation time: 13 hr 02 min 30 sec)
Heartbeat CPU 1 instructions: 2420000003 cycles: 1079393617 heartbeat IPC: 2.251 cumulative IPC: 2.208 (Simulation time: 13 hr 05 min 43 sec)
Heartbeat CPU 2 instructions: 950000001 cycles: 1081629633 heartbeat IPC: 0.851 cumulative IPC: 0.8435 (Simulation time: 13 hr 07 min 20 sec)
Heartbeat CPU 1 instructions: 2430000001 cycles: 1083963680 heartbeat IPC: 2.188 cumulative IPC: 2.208 (Simulation time: 13 hr 09 min 02 sec)
Heartbeat CPU 1 instructions: 2440000002 cycles: 1088508061 heartbeat IPC: 2.201 cumulative IPC: 2.208 (Simulation time: 13 hr 12 min 20 sec)
Heartbeat CPU 1 instructions: 2450000002 cycles: 1092972306 heartbeat IPC: 2.24 cumulative IPC: 2.208 (Simulation time: 13 hr 15 min 35 sec)
Heartbeat CPU 3 instructions: 340000001 cycles: 1093284623 heartbeat IPC: 0.2694 cumulative IPC: 0.2596 (Simulation time: 13 hr 15 min 48 sec)
Heartbeat CPU 2 instructions: 960000002 cycles: 1093519240 heartbeat IPC: 0.8411 cumulative IPC: 0.8435 (Simulation time: 13 hr 15 min 58 sec)
Heartbeat CPU 1 instructions: 2460000002 cycles: 1097504993 heartbeat IPC: 2.206 cumulative IPC: 2.208 (Simulation time: 13 hr 18 min 54 sec)
Heartbeat CPU 1 instructions: 2470000001 cycles: 1101766355 heartbeat IPC: 2.347 cumulative IPC: 2.209 (Simulation time: 13 hr 22 min 00 sec)
Heartbeat CPU 2 instructions: 970000004 cycles: 1105370091 heartbeat IPC: 0.8438 cumulative IPC: 0.8435 (Simulation time: 13 hr 24 min 37 sec)
Heartbeat CPU 1 instructions: 2480000004 cycles: 1106157649 heartbeat IPC: 2.277 cumulative IPC: 2.209 (Simulation time: 13 hr 25 min 13 sec)
Heartbeat CPU 1 instructions: 2490000001 cycles: 1110431290 heartbeat IPC: 2.34 cumulative IPC: 2.209 (Simulation time: 13 hr 28 min 19 sec)
Heartbeat CPU 1 instructions: 2500000000 cycles: 1114790480 heartbeat IPC: 2.294 cumulative IPC: 2.21 (Simulation time: 13 hr 31 min 30 sec)
Heartbeat CPU 2 instructions: 980000003 cycles: 1117070212 heartbeat IPC: 0.8547 cumulative IPC: 0.8436 (Simulation time: 13 hr 33 min 11 sec)
Heartbeat CPU 0 instructions: 170000001 cycles: 1118905901 heartbeat IPC: 0.112 cumulative IPC: 0.1093 (Simulation time: 13 hr 34 min 30 sec)
Heartbeat CPU 1 instructions: 2510000003 cycles: 1119156949 heartbeat IPC: 2.29 cumulative IPC: 2.21 (Simulation time: 13 hr 34 min 42 sec)
Heartbeat CPU 1 instructions: 2520000004 cycles: 1123561299 heartbeat IPC: 2.27 cumulative IPC: 2.21 (Simulation time: 13 hr 37 min 56 sec)
Heartbeat CPU 1 instructions: 2530000001 cycles: 1129763160 heartbeat IPC: 1.612 cumulative IPC: 2.207 (Simulation time: 13 hr 42 min 17 sec)
Heartbeat CPU 2 instructions: 990000000 cycles: 1130212307 heartbeat IPC: 0.7609 cumulative IPC: 0.8426 (Simulation time: 13 hr 42 min 36 sec)
Heartbeat CPU 3 instructions: 350000001 cycles: 1132829221 heartbeat IPC: 0.2529 cumulative IPC: 0.2593 (Simulation time: 13 hr 44 min 25 sec)
Heartbeat CPU 1 instructions: 2540000003 cycles: 1135476410 heartbeat IPC: 1.75 cumulative IPC: 2.205 (Simulation time: 13 hr 46 min 20 sec)
Heartbeat CPU 1 instructions: 2550000001 cycles: 1139801789 heartbeat IPC: 2.312 cumulative IPC: 2.205 (Simulation time: 13 hr 49 min 30 sec)
Heartbeat CPU 2 instructions: 1000000002 cycles: 1142444780 heartbeat IPC: 0.8175 cumulative IPC: 0.8424 (Simulation time: 13 hr 51 min 25 sec)
Heartbeat CPU 1 instructions: 2560000001 cycles: 1144153715 heartbeat IPC: 2.298 cumulative IPC: 2.205 (Simulation time: 13 hr 52 min 40 sec)
Heartbeat CPU 1 instructions: 2570000000 cycles: 1148457004 heartbeat IPC: 2.324 cumulative IPC: 2.206 (Simulation time: 13 hr 55 min 49 sec)
Heartbeat CPU 1 instructions: 2580000001 cycles: 1152865233 heartbeat IPC: 2.268 cumulative IPC: 2.206 (Simulation time: 13 hr 59 min 01 sec)
Heartbeat CPU 2 instructions: 1010000001 cycles: 1154350926 heartbeat IPC: 0.8399 cumulative IPC: 0.8423 (Simulation time: 14 hr 00 min 05 sec)
Heartbeat CPU 1 instructions: 2590000001 cycles: 1157151922 heartbeat IPC: 2.333 cumulative IPC: 2.207 (Simulation time: 14 hr 02 min 10 sec)
Heartbeat CPU 1 instructions: 2600000004 cycles: 1161439211 heartbeat IPC: 2.332 cumulative IPC: 2.207 (Simulation time: 14 hr 05 min 18 sec)
Heartbeat CPU 1 instructions: 2610000000 cycles: 1165820421 heartbeat IPC: 2.282 cumulative IPC: 2.207 (Simulation time: 14 hr 08 min 28 sec)
Heartbeat CPU 2 instructions: 1020000000 cycles: 1165998377 heartbeat IPC: 0.8586 cumulative IPC: 0.8425 (Simulation time: 14 hr 08 min 36 sec)
Heartbeat CPU 1 instructions: 2620000000 cycles: 1170179276 heartbeat IPC: 2.294 cumulative IPC: 2.208 (Simulation time: 14 hr 11 min 39 sec)
Heartbeat CPU 3 instructions: 360000004 cycles: 1170338807 heartbeat IPC: 0.2666 cumulative IPC: 0.2596 (Simulation time: 14 hr 11 min 46 sec)
Heartbeat CPU 1 instructions: 2630000000 cycles: 1174570360 heartbeat IPC: 2.277 cumulative IPC: 2.208 (Simulation time: 14 hr 14 min 52 sec)
Heartbeat CPU 2 instructions: 1030000004 cycles: 1177638007 heartbeat IPC: 0.8591 cumulative IPC: 0.8427 (Simulation time: 14 hr 17 min 06 sec)
Heartbeat CPU 1 instructions: 2640000000 cycles: 1178906434 heartbeat IPC: 2.306 cumulative IPC: 2.208 (Simulation time: 14 hr 18 min 02 sec)
Heartbeat CPU 1 instructions: 2650000004 cycles: 1183348150 heartbeat IPC: 2.251 cumulative IPC: 2.208 (Simulation time: 14 hr 21 min 17 sec)
Heartbeat CPU 1 instructions: 2660000000 cycles: 1187843329 heartbeat IPC: 2.225 cumulative IPC: 2.208 (Simulation time: 14 hr 24 min 33 sec)
Heartbeat CPU 2 instructions: 1040000000 cycles: 1189393172 heartbeat IPC: 0.8507 cumulative IPC: 0.8428 (Simulation time: 14 hr 25 min 40 sec)
Heartbeat CPU 1 instructions: 2670000000 cycles: 1192359148 heartbeat IPC: 2.214 cumulative IPC: 2.208 (Simulation time: 14 hr 27 min 52 sec)
Heartbeat CPU 1 instructions: 2680000001 cycles: 1196921184 heartbeat IPC: 2.192 cumulative IPC: 2.208 (Simulation time: 14 hr 31 min 09 sec)
Heartbeat CPU 2 instructions: 1050000001 cycles: 1201107734 heartbeat IPC: 0.8536 cumulative IPC: 0.8429 (Simulation time: 14 hr 34 min 10 sec)
Heartbeat CPU 1 instructions: 2690000000 cycles: 1201410628 heartbeat IPC: 2.227 cumulative IPC: 2.209 (Simulation time: 14 hr 34 min 23 sec)
Heartbeat CPU 1 instructions: 2700000004 cycles: 1205944298 heartbeat IPC: 2.206 cumulative IPC: 2.208 (Simulation time: 14 hr 37 min 41 sec)
Heartbeat CPU 3 instructions: 370000002 cycles: 1207080339 heartbeat IPC: 0.2722 cumulative IPC: 0.26 (Simulation time: 14 hr 38 min 31 sec)
Heartbeat CPU 1 instructions: 2710000001 cycles: 1210446944 heartbeat IPC: 2.221 cumulative IPC: 2.209 (Simulation time: 14 hr 40 min 59 sec)
Heartbeat CPU 0 instructions: 180000001 cycles: 1211867031 heartbeat IPC: 0.1076 cumulative IPC: 0.1092 (Simulation time: 14 hr 42 min 01 sec)
Heartbeat CPU 2 instructions: 1060000002 cycles: 1212663021 heartbeat IPC: 0.8654 cumulative IPC: 0.8431 (Simulation time: 14 hr 42 min 36 sec)
Heartbeat CPU 1 instructions: 2720000003 cycles: 1215009709 heartbeat IPC: 2.192 cumulative IPC: 2.208 (Simulation time: 14 hr 44 min 18 sec)
Heartbeat CPU 1 instructions: 2730000001 cycles: 1219469753 heartbeat IPC: 2.242 cumulative IPC: 2.209 (Simulation time: 14 hr 47 min 34 sec)
Heartbeat CPU 1 instructions: 2740000003 cycles: 1223948958 heartbeat IPC: 2.233 cumulative IPC: 2.209 (Simulation time: 14 hr 50 min 49 sec)
Heartbeat CPU 2 instructions: 1070000000 cycles: 1224033877 heartbeat IPC: 0.8794 cumulative IPC: 0.8434 (Simulation time: 14 hr 50 min 53 sec)
Heartbeat CPU 1 instructions: 2750000000 cycles: 1228505022 heartbeat IPC: 2.195 cumulative IPC: 2.209 (Simulation time: 14 hr 54 min 09 sec)
Heartbeat CPU 1 instructions: 2760000000 cycles: 1232984602 heartbeat IPC: 2.232 cumulative IPC: 2.209 (Simulation time: 14 hr 57 min 26 sec)
Heartbeat CPU 2 instructions: 1080000001 cycles: 1236055035 heartbeat IPC: 0.8319 cumulative IPC: 0.8433 (Simulation time: 14 hr 59 min 37 sec)
Heartbeat CPU 1 instructions: 2770000001 cycles: 1237493584 heartbeat IPC: 2.218 cumulative IPC: 2.209 (Simulation time: 15 hr 00 min 40 sec)
Heartbeat CPU 1 instructions: 2780000001 cycles: 1241968101 heartbeat IPC: 2.235 cumulative IPC: 2.209 (Simulation time: 15 hr 03 min 55 sec)
Heartbeat CPU 3 instructions: 380000004 cycles: 1244484015 heartbeat IPC: 0.2674 cumulative IPC: 0.2602 (Simulation time: 15 hr 05 min 44 sec)
Heartbeat CPU 1 instructions: 2790000001 cycles: 1246480023 heartbeat IPC: 2.216 cumulative IPC: 2.209 (Simulation time: 15 hr 07 min 11 sec)
Heartbeat CPU 2 instructions: 1090000000 cycles: 1247866321 heartbeat IPC: 0.8466 cumulative IPC: 0.8433 (Simulation time: 15 hr 08 min 11 sec)
Heartbeat CPU 1 instructions: 2800000000 cycles: 1250961779 heartbeat IPC: 2.231 cumulative IPC: 2.209 (Simulation time: 15 hr 10 min 26 sec)
Heartbeat CPU 1 instructions: 2810000004 cycles: 1255483326 heartbeat IPC: 2.212 cumulative IPC: 2.209 (Simulation time: 15 hr 13 min 44 sec)
Heartbeat CPU 2 instructions: 1100000001 cycles: 1259581564 heartbeat IPC: 0.8536 cumulative IPC: 0.8434 (Simulation time: 15 hr 16 min 41 sec)
Heartbeat CPU 1 instructions: 2820000002 cycles: 1260055019 heartbeat IPC: 2.187 cumulative IPC: 2.209 (Simulation time: 15 hr 17 min 01 sec)
Heartbeat CPU 1 instructions: 2830000003 cycles: 1264589763 heartbeat IPC: 2.205 cumulative IPC: 2.209 (Simulation time: 15 hr 20 min 18 sec)
Heartbeat CPU 1 instructions: 2840000002 cycles: 1269132171 heartbeat IPC: 2.201 cumulative IPC: 2.209 (Simulation time: 15 hr 23 min 36 sec)
Heartbeat CPU 2 instructions: 1110000004 cycles: 1271536897 heartbeat IPC: 0.8364 cumulative IPC: 0.8434 (Simulation time: 15 hr 25 min 21 sec)
Heartbeat CPU 1 instructions: 2850000000 cycles: 1273582263 heartbeat IPC: 2.247 cumulative IPC: 2.209 (Simulation time: 15 hr 26 min 52 sec)
Heartbeat CPU 1 instructions: 2860000002 cycles: 1278086598 heartbeat IPC: 2.22 cumulative IPC: 2.209 (Simulation time: 15 hr 30 min 10 sec)
Heartbeat CPU 3 instructions: 390000001 cycles: 1282040506 heartbeat IPC: 0.2663 cumulative IPC: 0.2604 (Simulation time: 15 hr 33 min 02 sec)
Heartbeat CPU 2 instructions: 1120000001 cycles: 1282492105 heartbeat IPC: 0.9128 cumulative IPC: 0.844 (Simulation time: 15 hr 33 min 22 sec)
Heartbeat CPU 1 instructions: 2870000002 cycles: 1282550749 heartbeat IPC: 2.24 cumulative IPC: 2.209 (Simulation time: 15 hr 33 min 24 sec)
Heartbeat CPU 1 instructions: 2880000004 cycles: 1287021171 heartbeat IPC: 2.237 cumulative IPC: 2.209 (Simulation time: 15 hr 36 min 39 sec)
Heartbeat CPU 1 instructions: 2890000003 cycles: 1291498003 heartbeat IPC: 2.234 cumulative IPC: 2.209 (Simulation time: 15 hr 39 min 54 sec)
Heartbeat CPU 2 instructions: 1130000004 cycles: 1294068868 heartbeat IPC: 0.8638 cumulative IPC: 0.8442 (Simulation time: 15 hr 41 min 47 sec)
Heartbeat CPU 1 instructions: 2900000001 cycles: 1296010669 heartbeat IPC: 2.216 cumulative IPC: 2.209 (Simulation time: 15 hr 43 min 11 sec)
Heartbeat CPU 1 instructions: 2910000002 cycles: 1300564288 heartbeat IPC: 2.196 cumulative IPC: 2.209 (Simulation time: 15 hr 46 min 30 sec)
Heartbeat CPU 0 instructions: 190000003 cycles: 1302206872 heartbeat IPC: 0.1107 cumulative IPC: 0.1093 (Simulation time: 15 hr 47 min 42 sec)
Heartbeat CPU 1 instructions: 2920000000 cycles: 1305061085 heartbeat IPC: 2.224 cumulative IPC: 2.209 (Simulation time: 15 hr 49 min 47 sec)
Heartbeat CPU 2 instructions: 1140000002 cycles: 1305619221 heartbeat IPC: 0.8658 cumulative IPC: 0.8444 (Simulation time: 15 hr 50 min 12 sec)
Heartbeat CPU 1 instructions: 2930000000 cycles: 1309582141 heartbeat IPC: 2.212 cumulative IPC: 2.209 (Simulation time: 15 hr 53 min 05 sec)
Heartbeat CPU 1 instructions: 2940000004 cycles: 1314252361 heartbeat IPC: 2.141 cumulative IPC: 2.209 (Simulation time: 15 hr 56 min 28 sec)
Heartbeat CPU 2 instructions: 1150000003 cycles: 1317099596 heartbeat IPC: 0.8711 cumulative IPC: 0.8446 (Simulation time: 15 hr 58 min 34 sec)
Heartbeat CPU 1 instructions: 2950000004 cycles: 1318792192 heartbeat IPC: 2.203 cumulative IPC: 2.209 (Simulation time: 15 hr 59 min 48 sec)
Heartbeat CPU 3 instructions: 400000000 cycles: 1318895302 heartbeat IPC: 0.2713 cumulative IPC: 0.2607 (Simulation time: 15 hr 59 min 52 sec)
Heartbeat CPU 1 instructions: 2960000004 cycles: 1323345008 heartbeat IPC: 2.196 cumulative IPC: 2.209 (Simulation time: 16 hr 03 min 06 sec)
Heartbeat CPU 1 instructions: 2970000000 cycles: 1327831958 heartbeat IPC: 2.229 cumulative IPC: 2.209 (Simulation time: 16 hr 06 min 21 sec)
Heartbeat CPU 2 instructions: 1160000003 cycles: 1328632949 heartbeat IPC: 0.8671 cumulative IPC: 0.8448 (Simulation time: 16 hr 06 min 56 sec)
Heartbeat CPU 1 instructions: 2980000004 cycles: 1332426196 heartbeat IPC: 2.177 cumulative IPC: 2.209 (Simulation time: 16 hr 09 min 41 sec)
Heartbeat CPU 1 instructions: 2990000003 cycles: 1336973874 heartbeat IPC: 2.199 cumulative IPC: 2.209 (Simulation time: 16 hr 13 min 00 sec)
Heartbeat CPU 2 instructions: 1170000004 cycles: 1340577149 heartbeat IPC: 0.8372 cumulative IPC: 0.8447 (Simulation time: 16 hr 15 min 36 sec)
Heartbeat CPU 1 instructions: 3000000003 cycles: 1341524524 heartbeat IPC: 2.197 cumulative IPC: 2.209 (Simulation time: 16 hr 16 min 16 sec)
Heartbeat CPU 1 instructions: 3010000002 cycles: 1346143334 heartbeat IPC: 2.165 cumulative IPC: 2.209 (Simulation time: 16 hr 19 min 32 sec)
Heartbeat CPU 1 instructions: 3020000001 cycles: 1350616295 heartbeat IPC: 2.236 cumulative IPC: 2.209 (Simulation time: 16 hr 22 min 48 sec)
Heartbeat CPU 2 instructions: 1180000001 cycles: 1352717228 heartbeat IPC: 0.8237 cumulative IPC: 0.8445 (Simulation time: 16 hr 24 min 20 sec)
Heartbeat CPU 1 instructions: 3030000003 cycles: 1355067405 heartbeat IPC: 2.247 cumulative IPC: 2.209 (Simulation time: 16 hr 26 min 04 sec)
Heartbeat CPU 3 instructions: 410000000 cycles: 1356289520 heartbeat IPC: 0.2674 cumulative IPC: 0.2609 (Simulation time: 16 hr 26 min 57 sec)
Heartbeat CPU 1 instructions: 3040000000 cycles: 1359489610 heartbeat IPC: 2.261 cumulative IPC: 2.209 (Simulation time: 16 hr 29 min 17 sec)
Heartbeat CPU 1 instructions: 3050000003 cycles: 1363798392 heartbeat IPC: 2.321 cumulative IPC: 2.21 (Simulation time: 16 hr 32 min 26 sec)
Heartbeat CPU 2 instructions: 1190000000 cycles: 1364182349 heartbeat IPC: 0.8722 cumulative IPC: 0.8448 (Simulation time: 16 hr 32 min 43 sec)
Heartbeat CPU 1 instructions: 3060000000 cycles: 1368123163 heartbeat IPC: 2.312 cumulative IPC: 2.21 (Simulation time: 16 hr 35 min 35 sec)
Heartbeat CPU 1 instructions: 3070000004 cycles: 1372526675 heartbeat IPC: 2.271 cumulative IPC: 2.21 (Simulation time: 16 hr 38 min 47 sec)
Heartbeat CPU 2 instructions: 1200000001 cycles: 1376342973 heartbeat IPC: 0.8223 cumulative IPC: 0.8446 (Simulation time: 16 hr 41 min 34 sec)
Heartbeat CPU 1 instructions: 3080000002 cycles: 1376911824 heartbeat IPC: 2.28 cumulative IPC: 2.21 (Simulation time: 16 hr 41 min 58 sec)
Heartbeat CPU 1 instructions: 3090000004 cycles: 1381274397 heartbeat IPC: 2.292 cumulative IPC: 2.211 (Simulation time: 16 hr 45 min 09 sec)
Heartbeat CPU 1 instructions: 3100000004 cycles: 1385624070 heartbeat IPC: 2.299 cumulative IPC: 2.211 (Simulation time: 16 hr 48 min 21 sec)
Heartbeat CPU 2 instructions: 1210000002 cycles: 1387692884 heartbeat IPC: 0.8811 cumulative IPC: 0.8449 (Simulation time: 16 hr 49 min 51 sec)
Heartbeat CPU 0 instructions: 200000001 cycles: 1389214447 heartbeat IPC: 0.1149 cumulative IPC: 0.1096 (Simulation time: 16 hr 50 min 58 sec)
Simulation finished CPU 0 instructions: 150000001 cycles: 1368337787 cumulative IPC: 0.1096 (Simulation time: 16 hr 50 min 58 sec)
Simulation complete CPU 0 instructions: 150000001 cycles: 1368337787 cumulative IPC: 0.1096 (Simulation time: 16 hr 50 min 58 sec)
Simulation complete CPU 1 instructions: 3025416188 cycles: 1368337787 cumulative IPC: 2.211 (Simulation time: 16 hr 50 min 58 sec)
Simulation complete CPU 2 instructions: 1156060300 cycles: 1368337787 cumulative IPC: 0.8449 (Simulation time: 16 hr 50 min 58 sec)
Simulation complete CPU 3 instructions: 357325158 cycles: 1368337787 cumulative IPC: 0.2611 (Simulation time: 16 hr 50 min 58 sec)

ChampSim completed all CPUs

=== Simulation ===
CPU 0 runs /home/grads/r/rdas40/dpc3_traces/620.omnetpp_s-874B.champsimtrace.xzCPU 1 runs /home/grads/r/rdas40/dpc3_traces/603.bwaves_s-3699B.champsimtrace.xzCPU 2 runs /home/grads/r/rdas40/dpc3_traces/607.cactuBSSN_s-2421B.champsimtrace.xzCPU 3 runs /home/grads/r/rdas40/dpc3_traces/619.lbm_s-4268B.champsimtrace.xz
Total Simulation Statistics (not including warmup)

CPU 0 cumulative IPC: 0.1096 instructions: 150000001 cycles: 1368337787
CPU 0 Branch Prediction Accuracy: 94.9% MPKI: 10.6 Average ROB Occupancy at Mispredict: 87.41
Branch type MPKI
BRANCH_DIRECT_JUMP: 0.923
BRANCH_INDIRECT: 0.128
BRANCH_CONDITIONAL: 8.42
BRANCH_DIRECT_CALL: 0.00016
BRANCH_INDIRECT_CALL: 0.734
BRANCH_RETURN: 0.399


CPU 1 cumulative IPC: 2.211 instructions: 3025416188 cycles: 1368337787
CPU 1 Branch Prediction Accuracy: 90.14% MPKI: 14.33 Average ROB Occupancy at Mispredict: 30.62
Branch type MPKI
BRANCH_DIRECT_JUMP: 0.0573
BRANCH_INDIRECT: 0
BRANCH_CONDITIONAL: 14.2
BRANCH_DIRECT_CALL: 0
BRANCH_INDIRECT_CALL: 0
BRANCH_RETURN: 0.0626


CPU 2 cumulative IPC: 0.8449 instructions: 1156060300 cycles: 1368337787
CPU 2 Branch Prediction Accuracy: 99.85% MPKI: 0.001797 Average ROB Occupancy at Mispredict: 349.2
Branch type MPKI
BRANCH_DIRECT_JUMP: 8.65e-07
BRANCH_INDIRECT: 4.33e-06
BRANCH_CONDITIONAL: 0.00179
BRANCH_DIRECT_CALL: 0
BRANCH_INDIRECT_CALL: 0
BRANCH_RETURN: 0


CPU 3 cumulative IPC: 0.2611 instructions: 357325158 cycles: 1368337787
CPU 3 Branch Prediction Accuracy: 97.11% MPKI: 0.5186 Average ROB Occupancy at Mispredict: 246.2
Branch type MPKI
BRANCH_DIRECT_JUMP: 0
BRANCH_INDIRECT: 0
BRANCH_CONDITIONAL: 0.519
BRANCH_DIRECT_CALL: 0
BRANCH_INDIRECT_CALL: 0
BRANCH_RETURN: 0

LLC TOTAL        ACCESS:    5044267 HIT:    1284994 MISS:    3759273
LLC LOAD         ACCESS:    1685450 HIT:     247333 MISS:    1438117
LLC RFO          ACCESS:     257856 HIT:      54211 MISS:     203645
LLC PREFETCH     ACCESS:    1541803 HIT:     301117 MISS:    1240686
LLC WRITE        ACCESS:     962990 HIT:     669942 MISS:     293048
LLC TRANSLATION  ACCESS:     596168 HIT:      12391 MISS:     583777
LLC PREFETCH REQUESTED:          0 ISSUED:          0 USEFUL:          0 USELESS:          0
LLC AVERAGE MISS LATENCY: 1521 cycles
LLC TOTAL        ACCESS:    1195792 HIT:     313688 MISS:     882104
LLC LOAD         ACCESS:      67240 HIT:      39255 MISS:      27985
LLC RFO          ACCESS:     442529 HIT:        319 MISS:     442210
LLC PREFETCH     ACCESS:     243300 HIT:      81330 MISS:     161970
LLC WRITE        ACCESS:     442669 HIT:     192783 MISS:     249886
LLC TRANSLATION  ACCESS:         54 HIT:          1 MISS:         53
LLC PREFETCH REQUESTED:          0 ISSUED:          0 USEFUL:          0 USELESS:          0
LLC AVERAGE MISS LATENCY: 1521 cycles
LLC TOTAL        ACCESS:   52555685 HIT:   43191325 MISS:    9364360
LLC LOAD         ACCESS:   10823278 HIT:    6454810 MISS:    4368468
LLC RFO          ACCESS:      23282 HIT:      23282 MISS:          0
LLC PREFETCH     ACCESS:   40391212 HIT:   35503741 MISS:    4887471
LLC WRITE        ACCESS:    1140724 HIT:    1140382 MISS:        342
LLC TRANSLATION  ACCESS:     177189 HIT:      69110 MISS:     108079
LLC PREFETCH REQUESTED:          0 ISSUED:          0 USEFUL:          0 USELESS:          0
LLC AVERAGE MISS LATENCY: 1521 cycles
LLC TOTAL        ACCESS:   37591983 HIT:   15488775 MISS:   22103208
LLC LOAD         ACCESS:    3773354 HIT:    1183301 MISS:    2590053
LLC RFO          ACCESS:   12908279 HIT:     183773 MISS:   12724506
LLC PREFETCH     ACCESS:    7999991 HIT:    1213313 MISS:    6786678
LLC WRITE        ACCESS:   12908405 HIT:   12908357 MISS:         48
LLC TRANSLATION  ACCESS:       1954 HIT:         31 MISS:       1923
LLC PREFETCH REQUESTED:          0 ISSUED:          0 USEFUL:          0 USELESS:          0
LLC AVERAGE MISS LATENCY: 1521 cycles
cpu0_DTLB TOTAL        ACCESS:   38229909 HIT:   34922376 MISS:    3307533
cpu0_DTLB LOAD         ACCESS:   38229909 HIT:   34922376 MISS:    3307533
cpu0_DTLB RFO          ACCESS:          0 HIT:          0 MISS:          0
cpu0_DTLB PREFETCH     ACCESS:          0 HIT:          0 MISS:          0
cpu0_DTLB WRITE        ACCESS:          0 HIT:          0 MISS:          0
cpu0_DTLB TRANSLATION  ACCESS:          0 HIT:          0 MISS:          0
cpu0_DTLB PREFETCH REQUESTED:          0 ISSUED:          0 USEFUL:          0 USELESS:          0
cpu0_DTLB AVERAGE MISS LATENCY: 257.8 cycles
cpu0_DTLB TOTAL        ACCESS:          0 HIT:          0 MISS:          0
cpu0_DTLB LOAD         ACCESS:          0 HIT:          0 MISS:          0
cpu0_DTLB RFO          ACCESS:          0 HIT:          0 MISS:          0
cpu0_DTLB PREFETCH     ACCESS:          0 HIT:          0 MISS:          0
cpu0_DTLB WRITE        ACCESS:          0 HIT:          0 MISS:          0
cpu0_DTLB TRANSLATION  ACCESS:          0 HIT:          0 MISS:          0
cpu0_DTLB PREFETCH REQUESTED:          0 ISSUED:          0 USEFUL:          0 USELESS:          0
cpu0_DTLB AVERAGE MISS LATENCY: 257.8 cycles
cpu0_DTLB TOTAL        ACCESS:          0 HIT:          0 MISS:          0
cpu0_DTLB LOAD         ACCESS:          0 HIT:          0 MISS:          0
cpu0_DTLB RFO          ACCESS:          0 HIT:          0 MISS:          0
cpu0_DTLB PREFETCH     ACCESS:          0 HIT:          0 MISS:          0
cpu0_DTLB WRITE        ACCESS:          0 HIT:          0 MISS:          0
cpu0_DTLB TRANSLATION  ACCESS:          0 HIT:          0 MISS:          0
cpu0_DTLB PREFETCH REQUESTED:          0 ISSUED:          0 USEFUL:          0 USELESS:          0
cpu0_DTLB AVERAGE MISS LATENCY: 257.8 cycles
cpu0_DTLB TOTAL        ACCESS:          0 HIT:          0 MISS:          0
cpu0_DTLB LOAD         ACCESS:          0 HIT:          0 MISS:          0
cpu0_DTLB RFO          ACCESS:          0 HIT:          0 MISS:          0
cpu0_DTLB PREFETCH     ACCESS:          0 HIT:          0 MISS:          0
cpu0_DTLB WRITE        ACCESS:          0 HIT:          0 MISS:          0
cpu0_DTLB TRANSLATION  ACCESS:          0 HIT:          0 MISS:          0
cpu0_DTLB PREFETCH REQUESTED:          0 ISSUED:          0 USEFUL:          0 USELESS:          0
cpu0_DTLB AVERAGE MISS LATENCY: 257.8 cycles
cpu0_ITLB TOTAL        ACCESS:   10788183 HIT:   10515704 MISS:     272479
cpu0_ITLB LOAD         ACCESS:   10788183 HIT:   10515704 MISS:     272479
cpu0_ITLB RFO          ACCESS:          0 HIT:          0 MISS:          0
cpu0_ITLB PREFETCH     ACCESS:          0 HIT:          0 MISS:          0
cpu0_ITLB WRITE        ACCESS:          0 HIT:          0 MISS:          0
[...]
cpu2_L1I PREFETCH REQUESTED:          0 ISSUED:          0 USEFUL:          0 USELESS:          0
cpu2_L1I AVERAGE MISS LATENCY: -nan cycles
cpu2_L1I TOTAL        ACCESS:          0 HIT:          0 MISS:          0
cpu2_L1I LOAD         ACCESS:          0 HIT:          0 MISS:          0
cpu2_L1I RFO          ACCESS:          0 HIT:          0 MISS:          0
cpu2_L1I PREFETCH     ACCESS:          0 HIT:          0 MISS:          0
cpu2_L1I WRITE        ACCESS:          0 HIT:          0 MISS:          0
cpu2_L1I TRANSLATION  ACCESS:          0 HIT:          0 MISS:          0
cpu2_L1I PREFETCH REQUESTED:          0 ISSUED:          0 USEFUL:          0 USELESS:          0
cpu2_L1I AVERAGE MISS LATENCY: -nan cycles
cpu2_L2C TOTAL        ACCESS:          0 HIT:          0 MISS:          0
cpu2_L2C LOAD         ACCESS:          0 HIT:          0 MISS:          0
cpu2_L2C RFO          ACCESS:          0 HIT:          0 MISS:          0
cpu2_L2C PREFETCH     ACCESS:          0 HIT:          0 MISS:          0
cpu2_L2C WRITE        ACCESS:          0 HIT:          0 MISS:          0
cpu2_L2C TRANSLATION  ACCESS:          0 HIT:          0 MISS:          0
cpu2_L2C PREFETCH REQUESTED:  123676384 ISSUED:  123230376 USEFUL:     391306 USELESS:      36127
cpu2_L2C AVERAGE MISS LATENCY: 189.3 cycles
cpu2_L2C TOTAL        ACCESS:          0 HIT:          0 MISS:          0
cpu2_L2C LOAD         ACCESS:          0 HIT:          0 MISS:          0
cpu2_L2C RFO          ACCESS:          0 HIT:          0 MISS:          0
cpu2_L2C PREFETCH     ACCESS:          0 HIT:          0 MISS:          0
cpu2_L2C WRITE        ACCESS:          0 HIT:          0 MISS:          0
cpu2_L2C TRANSLATION  ACCESS:          0 HIT:          0 MISS:          0
cpu2_L2C PREFETCH REQUESTED:  123676384 ISSUED:  123230376 USEFUL:     391306 USELESS:      36127
cpu2_L2C AVERAGE MISS LATENCY: 189.3 cycles
cpu2_L2C TOTAL        ACCESS:   34428183 HIT:   27354560 MISS:    7073623
cpu2_L2C LOAD         ACCESS:   16324036 HIT:   14932847 MISS:    1391189
cpu2_L2C RFO          ACCESS:     674690 HIT:     672450 MISS:       2240
cpu2_L2C PREFETCH     ACCESS:   16102673 HIT:   10445334 MISS:    5657339
cpu2_L2C WRITE        ACCESS:    1298742 HIT:    1298737 MISS:          5
cpu2_L2C TRANSLATION  ACCESS:      28042 HIT:       5192 MISS:      22850
cpu2_L2C PREFETCH REQUESTED:  123676384 ISSUED:  123230376 USEFUL:     391306 USELESS:      36127
cpu2_L2C AVERAGE MISS LATENCY: 189.3 cycles
cpu2_L2C TOTAL        ACCESS:          0 HIT:          0 MISS:          0
cpu2_L2C LOAD         ACCESS:          0 HIT:          0 MISS:          0
cpu2_L2C RFO          ACCESS:          0 HIT:          0 MISS:          0
cpu2_L2C PREFETCH     ACCESS:          0 HIT:          0 MISS:          0
cpu2_L2C WRITE        ACCESS:          0 HIT:          0 MISS:          0
cpu2_L2C TRANSLATION  ACCESS:          0 HIT:          0 MISS:          0
cpu2_L2C PREFETCH REQUESTED:  123676384 ISSUED:  123230376 USEFUL:     391306 USELESS:      36127
cpu2_L2C AVERAGE MISS LATENCY: 189.3 cycles
cpu2_STLB TOTAL        ACCESS:          0 HIT:          0 MISS:          0
cpu2_STLB LOAD         ACCESS:          0 HIT:          0 MISS:          0
cpu2_STLB RFO          ACCESS:          0 HIT:          0 MISS:          0
cpu2_STLB PREFETCH     ACCESS:          0 HIT:          0 MISS:          0
cpu2_STLB WRITE        ACCESS:          0 HIT:          0 MISS:          0
cpu2_STLB TRANSLATION  ACCESS:          0 HIT:          0 MISS:          0
cpu2_STLB PREFETCH REQUESTED:          0 ISSUED:          0 USEFUL:          0 USELESS:          0
cpu2_STLB AVERAGE MISS LATENCY: 1532 cycles
cpu2_STLB TOTAL        ACCESS:          0 HIT:          0 MISS:          0
cpu2_STLB LOAD         ACCESS:          0 HIT:          0 MISS:          0
cpu2_STLB RFO          ACCESS:          0 HIT:          0 MISS:          0
cpu2_STLB PREFETCH     ACCESS:          0 HIT:          0 MISS:          0
cpu2_STLB WRITE        ACCESS:          0 HIT:          0 MISS:          0
cpu2_STLB TRANSLATION  ACCESS:          0 HIT:          0 MISS:          0
cpu2_STLB PREFETCH REQUESTED:          0 ISSUED:          0 USEFUL:          0 USELESS:          0
cpu2_STLB AVERAGE MISS LATENCY: 1532 cycles
cpu2_STLB TOTAL        ACCESS:   11317909 HIT:   11299759 MISS:      18150
cpu2_STLB LOAD         ACCESS:   11317909 HIT:   11299759 MISS:      18150
cpu2_STLB RFO          ACCESS:          0 HIT:          0 MISS:          0
cpu2_STLB PREFETCH     ACCESS:          0 HIT:          0 MISS:          0
cpu2_STLB WRITE        ACCESS:          0 HIT:          0 MISS:          0
cpu2_STLB TRANSLATION  ACCESS:          0 HIT:          0 MISS:          0
cpu2_STLB PREFETCH REQUESTED:          0 ISSUED:          0 USEFUL:          0 USELESS:          0
cpu2_STLB AVERAGE MISS LATENCY: 1532 cycles
cpu2_STLB TOTAL        ACCESS:          0 HIT:          0 MISS:          0
cpu2_STLB LOAD         ACCESS:          0 HIT:          0 MISS:          0
cpu2_STLB RFO          ACCESS:          0 HIT:          0 MISS:          0
cpu2_STLB PREFETCH     ACCESS:          0 HIT:          0 MISS:          0
cpu2_STLB WRITE        ACCESS:          0 HIT:          0 MISS:          0
cpu2_STLB TRANSLATION  ACCESS:          0 HIT:          0 MISS:          0
cpu2_STLB PREFETCH REQUESTED:          0 ISSUED:          0 USEFUL:          0 USELESS:          0
cpu2_STLB AVERAGE MISS LATENCY: 1532 cycles
cpu3_DTLB TOTAL        ACCESS:          0 HIT:          0 MISS:          0
cpu3_DTLB LOAD         ACCESS:          0 HIT:          0 MISS:          0
cpu3_DTLB RFO          ACCESS:          0 HIT:          0 MISS:          0
cpu3_DTLB PREFETCH     ACCESS:          0 HIT:          0 MISS:          0
cpu3_DTLB WRITE        ACCESS:          0 HIT:          0 MISS:          0
cpu3_DTLB TRANSLATION  ACCESS:          0 HIT:          0 MISS:          0
cpu3_DTLB PREFETCH REQUESTED:          0 ISSUED:          0 USEFUL:          0 USELESS:          0
cpu3_DTLB AVERAGE MISS LATENCY: 53.26 cycles
cpu3_DTLB TOTAL        ACCESS:          0 HIT:          0 MISS:          0
cpu3_DTLB LOAD         ACCESS:          0 HIT:          0 MISS:          0
cpu3_DTLB RFO          ACCESS:          0 HIT:          0 MISS:          0
cpu3_DTLB PREFETCH     ACCESS:          0 HIT:          0 MISS:          0
cpu3_DTLB WRITE        ACCESS:          0 HIT:          0 MISS:          0
cpu3_DTLB TRANSLATION  ACCESS:          0 HIT:          0 MISS:          0
cpu3_DTLB PREFETCH REQUESTED:          0 ISSUED:          0 USEFUL:          0 USELESS:          0
cpu3_DTLB AVERAGE MISS LATENCY: 53.26 cycles
cpu3_DTLB TOTAL        ACCESS:          0 HIT:          0 MISS:          0
cpu3_DTLB LOAD         ACCESS:          0 HIT:          0 MISS:          0
cpu3_DTLB RFO          ACCESS:          0 HIT:          0 MISS:          0
cpu3_DTLB PREFETCH     ACCESS:          0 HIT:          0 MISS:          0
cpu3_DTLB WRITE        ACCESS:          0 HIT:          0 MISS:          0
cpu3_DTLB TRANSLATION  ACCESS:          0 HIT:          0 MISS:          0
cpu3_DTLB PREFETCH REQUESTED:          0 ISSUED:          0 USEFUL:          0 USELESS:          0
cpu3_DTLB AVERAGE MISS LATENCY: 53.26 cycles
cpu3_DTLB TOTAL        ACCESS:   24083916 HIT:   23760718 MISS:     323198
cpu3_DTLB LOAD         ACCESS:   24083916 HIT:   23760718 MISS:     323198
cpu3_DTLB RFO          ACCESS:          0 HIT:          0 MISS:          0
cpu3_DTLB PREFETCH     ACCESS:          0 HIT:          0 MISS:          0
cpu3_DTLB WRITE        ACCESS:          0 HIT:          0 MISS:          0
cpu3_DTLB TRANSLATION  ACCESS:          0 HIT:          0 MISS:          0
cpu3_DTLB PREFETCH REQUESTED:          0 ISSUED:          0 USEFUL:          0 USELESS:          0
cpu3_DTLB AVERAGE MISS LATENCY: 53.26 cycles
cpu3_ITLB TOTAL        ACCESS:          0 HIT:          0 MISS:          0
cpu3_ITLB LOAD         ACCESS:          0 HIT:          0 MISS:          0
cpu3_ITLB RFO          ACCESS:          0 HIT:          0 MISS:          0
cpu3_ITLB PREFETCH     ACCESS:          0 HIT:          0 MISS:          0
cpu3_ITLB WRITE        ACCESS:          0 HIT:          0 MISS:          0
cpu3_ITLB TRANSLATION  ACCESS:          0 HIT:          0 MISS:          0
cpu3_ITLB PREFETCH REQUESTED:          0 ISSUED:          0 USEFUL:          0 USELESS:          0
cpu3_ITLB AVERAGE MISS LATENCY: -nan cycles
cpu3_ITLB TOTAL        ACCESS:          0 HIT:          0 MISS:          0
cpu3_ITLB LOAD         ACCESS:          0 HIT:          0 MISS:          0
cpu3_ITLB RFO          ACCESS:          0 HIT:          0 MISS:          0
cpu3_ITLB PREFETCH     ACCESS:          0 HIT:          0 MISS:          0
cpu3_ITLB WRITE        ACCESS:          0 HIT:          0 MISS:          0
cpu3_ITLB TRANSLATION  ACCESS:          0 HIT:          0 MISS:          0
cpu3_ITLB PREFETCH REQUESTED:          0 ISSUED:          0 USEFUL:          0 USELESS:          0
cpu3_ITLB AVERAGE MISS LATENCY: -nan cycles
cpu3_ITLB TOTAL        ACCESS:          0 HIT:          0 MISS:          0
cpu3_ITLB LOAD         ACCESS:          0 HIT:          0 MISS:          0
cpu3_ITLB RFO          ACCESS:          0 HIT:          0 MISS:          0
cpu3_ITLB PREFETCH     ACCESS:          0 HIT:          0 MISS:          0
cpu3_ITLB WRITE        ACCESS:          0 HIT:          0 MISS:          0
cpu3_ITLB TRANSLATION  ACCESS:          0 HIT:          0 MISS:          0
cpu3_ITLB PREFETCH REQUESTED:          0 ISSUED:          0 USEFUL:          0 USELESS:          0
cpu3_ITLB AVERAGE MISS LATENCY: -nan cycles
cpu3_ITLB TOTAL        ACCESS:          0 HIT:          0 MISS:          0
cpu3_ITLB LOAD         ACCESS:          0 HIT:          0 MISS:          0
cpu3_ITLB RFO          ACCESS:          0 HIT:          0 MISS:          0
cpu3_ITLB PREFETCH     ACCESS:          0 HIT:          0 MISS:          0
cpu3_ITLB WRITE        ACCESS:          0 HIT:          0 MISS:          0
cpu3_ITLB TRANSLATION  ACCESS:          0 HIT:          0 MISS:          0
cpu3_ITLB PREFETCH REQUESTED:          0 ISSUED:          0 USEFUL:          0 USELESS:          0
cpu3_ITLB AVERAGE MISS LATENCY: -nan cycles
cpu3_L1D TOTAL        ACCESS:          0 HIT:          0 MISS:          0
cpu3_L1D LOAD         ACCESS:          0 HIT:          0 MISS:          0
cpu3_L1D RFO          ACCESS:          0 HIT:          0 MISS:          0
cpu3_L1D PREFETCH     ACCESS:          0 HIT:          0 MISS:          0
cpu3_L1D WRITE        ACCESS:          0 HIT:          0 MISS:          0
cpu3_L1D TRANSLATION  ACCESS:          0 HIT:          0 MISS:          0
cpu3_L1D PREFETCH REQUESTED:          0 ISSUED:          0 USEFUL:          0 USELESS:          0
cpu3_L1D AVERAGE MISS LATENCY: 644.8 cycles
cpu3_L1D TOTAL        ACCESS:          0 HIT:          0 MISS:          0
cpu3_L1D LOAD         ACCESS:          0 HIT:          0 MISS:          0
cpu3_L1D RFO          ACCESS:          0 HIT:          0 MISS:          0
cpu3_L1D PREFETCH     ACCESS:          0 HIT:          0 MISS:          0
cpu3_L1D WRITE        ACCESS:          0 HIT:          0 MISS:          0
cpu3_L1D TRANSLATION  ACCESS:          0 HIT:          0 MISS:          0
cpu3_L1D PREFETCH REQUESTED:          0 ISSUED:          0 USEFUL:          0 USELESS:          0
cpu3_L1D AVERAGE MISS LATENCY: 644.8 cycles
cpu3_L1D TOTAL        ACCESS:          0 HIT:          0 MISS:          0
cpu3_L1D LOAD         ACCESS:          0 HIT:          0 MISS:          0
cpu3_L1D RFO          ACCESS:          0 HIT:          0 MISS:          0
cpu3_L1D PREFETCH     ACCESS:          0 HIT:          0 MISS:          0
cpu3_L1D WRITE        ACCESS:          0 HIT:          0 MISS:          0
cpu3_L1D TRANSLATION  ACCESS:          0 HIT:          0 MISS:          0
cpu3_L1D PREFETCH REQUESTED:          0 ISSUED:          0 USEFUL:          0 USELESS:          0
cpu3_L1D AVERAGE MISS LATENCY: 644.8 cycles
cpu3_L1D TOTAL        ACCESS:   33566281 HIT:   19456414 MISS:   14109867
cpu3_L1D LOAD         ACCESS:    5829090 HIT:    2932049 MISS:    2897041
cpu3_L1D RFO          ACCESS:          0 HIT:          0 MISS:          0
cpu3_L1D PREFETCH     ACCESS:          0 HIT:          0 MISS:          0
cpu3_L1D WRITE        ACCESS:   27624735 HIT:   16524134 MISS:   11100601
cpu3_L1D TRANSLATION  ACCESS:     112456 HIT:        231 MISS:     112225
cpu3_L1D PREFETCH REQUESTED:          0 ISSUED:          0 USEFUL:          0 USELESS:          0
cpu3_L1D AVERAGE MISS LATENCY: 644.8 cycles
cpu3_L1I TOTAL        ACCESS:          0 HIT:          0 MISS:          0
cpu3_L1I LOAD         ACCESS:          0 HIT:          0 MISS:          0
cpu3_L1I RFO          ACCESS:          0 HIT:          0 MISS:          0
cpu3_L1I PREFETCH     ACCESS:          0 HIT:          0 MISS:          0
cpu3_L1I WRITE        ACCESS:          0 HIT:          0 MISS:          0
cpu3_L1I TRANSLATION  ACCESS:          0 HIT:          0 MISS:          0
cpu3_L1I PREFETCH REQUESTED:          0 ISSUED:          0 USEFUL:          0 USELESS:          0
cpu3_L1I AVERAGE MISS LATENCY: -nan cycles
cpu3_L1I TOTAL        ACCESS:          0 HIT:          0 MISS:          0
cpu3_L1I LOAD         ACCESS:          0 HIT:          0 MISS:          0
cpu3_L1I RFO          ACCESS:          0 HIT:          0 MISS:          0
cpu3_L1I PREFETCH     ACCESS:          0 HIT:          0 MISS:          0
cpu3_L1I WRITE        ACCESS:          0 HIT:          0 MISS:          0
cpu3_L1I TRANSLATION  ACCESS:          0 HIT:          0 MISS:          0
cpu3_L1I PREFETCH REQUESTED:          0 ISSUED:          0 USEFUL:          0 USELESS:          0
cpu3_L1I AVERAGE MISS LATENCY: -nan cycles
cpu3_L1I TOTAL        ACCESS:          0 HIT:          0 MISS:          0
cpu3_L1I LOAD         ACCESS:          0 HIT:          0 MISS:          0
cpu3_L1I RFO          ACCESS:          0 HIT:          0 MISS:          0
cpu3_L1I PREFETCH     ACCESS:          0 HIT:          0 MISS:          0
cpu3_L1I WRITE        ACCESS:          0 HIT:          0 MISS:          0
cpu3_L1I TRANSLATION  ACCESS:          0 HIT:          0 MISS:          0
cpu3_L1I PREFETCH REQUESTED:          0 ISSUED:          0 USEFUL:          0 USELESS:          0
cpu3_L1I AVERAGE MISS LATENCY: -nan cycles
cpu3_L1I TOTAL        ACCESS:          0 HIT:          0 MISS:          0
cpu3_L1I LOAD         ACCESS:          0 HIT:          0 MISS:          0
cpu3_L1I RFO          ACCESS:          0 HIT:          0 MISS:          0
cpu3_L1I PREFETCH     ACCESS:          0 HIT:          0 MISS:          0
cpu3_L1I WRITE        ACCESS:          0 HIT:          0 MISS:          0
cpu3_L1I TRANSLATION  ACCESS:          0 HIT:          0 MISS:          0
cpu3_L1I PREFETCH REQUESTED:          0 ISSUED:          0 USEFUL:          0 USELESS:          0
cpu3_L1I AVERAGE MISS LATENCY: -nan cycles
cpu3_L2C TOTAL        ACCESS:          0 HIT:          0 MISS:          0
cpu3_L2C LOAD         ACCESS:          0 HIT:          0 MISS:          0
cpu3_L2C RFO          ACCESS:          0 HIT:          0 MISS:          0
cpu3_L2C PREFETCH     ACCESS:          0 HIT:          0 MISS:          0
cpu3_L2C WRITE        ACCESS:          0 HIT:          0 MISS:          0
cpu3_L2C TRANSLATION  ACCESS:          0 HIT:          0 MISS:          0
cpu3_L2C PREFETCH REQUESTED:   13314111 ISSUED:   13301203 USEFUL:     468514 USELESS:         31
cpu3_L2C AVERAGE MISS LATENCY: 778.6 cycles
cpu3_L2C TOTAL        ACCESS:          0 HIT:          0 MISS:          0
cpu3_L2C LOAD         ACCESS:          0 HIT:          0 MISS:          0
cpu3_L2C RFO          ACCESS:          0 HIT:          0 MISS:          0
cpu3_L2C PREFETCH     ACCESS:          0 HIT:          0 MISS:          0
cpu3_L2C WRITE        ACCESS:          0 HIT:          0 MISS:          0
cpu3_L2C TRANSLATION  ACCESS:          0 HIT:          0 MISS:          0
cpu3_L2C PREFETCH REQUESTED:   13314111 ISSUED:   13301203 USEFUL:     468514 USELESS:         31
cpu3_L2C AVERAGE MISS LATENCY: 778.6 cycles
cpu3_L2C TOTAL        ACCESS:          0 HIT:          0 MISS:          0
cpu3_L2C LOAD         ACCESS:          0 HIT:          0 MISS:          0
cpu3_L2C RFO          ACCESS:          0 HIT:          0 MISS:          0
cpu3_L2C PREFETCH     ACCESS:          0 HIT:          0 MISS:          0
cpu3_L2C WRITE        ACCESS:          0 HIT:          0 MISS:          0
cpu3_L2C TRANSLATION  ACCESS:          0 HIT:          0 MISS:          0
cpu3_L2C PREFETCH REQUESTED:   13314111 ISSUED:   13301203 USEFUL:     468514 USELESS:         31
cpu3_L2C AVERAGE MISS LATENCY: 778.6 cycles
cpu3_L2C TOTAL        ACCESS:   27874997 HIT:   15228190 MISS:   12646807
cpu3_L2C LOAD         ACCESS:    1797180 HIT:      59130 MISS:    1738050
cpu3_L2C RFO          ACCESS:   10150519 HIT:    4684023 MISS:    5466496
cpu3_L2C PREFETCH     ACCESS:    5664163 HIT:     222721 MISS:    5441442
cpu3_L2C WRITE        ACCESS:   10150910 HIT:   10150910 MISS:          0
cpu3_L2C TRANSLATION  ACCESS:     112225 HIT:     111406 MISS:        819
cpu3_L2C PREFETCH REQUESTED:   13314111 ISSUED:   13301203 USEFUL:     468514 USELESS:         31
cpu3_L2C AVERAGE MISS LATENCY: 778.6 cycles
cpu3_STLB TOTAL        ACCESS:          0 HIT:          0 MISS:          0
cpu3_STLB LOAD         ACCESS:          0 HIT:          0 MISS:          0
cpu3_STLB RFO          ACCESS:          0 HIT:          0 MISS:          0
cpu3_STLB PREFETCH     ACCESS:          0 HIT:          0 MISS:          0
cpu3_STLB WRITE        ACCESS:          0 HIT:          0 MISS:          0
cpu3_STLB TRANSLATION  ACCESS:          0 HIT:          0 MISS:          0
cpu3_STLB PREFETCH REQUESTED:          0 ISSUED:          0 USEFUL:          0 USELESS:          0
cpu3_STLB AVERAGE MISS LATENCY: 174.5 cycles
cpu3_STLB TOTAL        ACCESS:          0 HIT:          0 MISS:          0
cpu3_STLB LOAD         ACCESS:          0 HIT:          0 MISS:          0
cpu3_STLB RFO          ACCESS:          0 HIT:          0 MISS:          0
cpu3_STLB PREFETCH     ACCESS:          0 HIT:          0 MISS:          0
cpu3_STLB WRITE        ACCESS:          0 HIT:          0 MISS:          0
cpu3_STLB TRANSLATION  ACCESS:          0 HIT:          0 MISS:          0
cpu3_STLB PREFETCH REQUESTED:          0 ISSUED:          0 USEFUL:          0 USELESS:          0
cpu3_STLB AVERAGE MISS LATENCY: 174.5 cycles
cpu3_STLB TOTAL        ACCESS:          0 HIT:          0 MISS:          0
cpu3_STLB LOAD         ACCESS:          0 HIT:          0 MISS:          0
cpu3_STLB RFO          ACCESS:          0 HIT:          0 MISS:          0
cpu3_STLB PREFETCH     ACCESS:          0 HIT:          0 MISS:          0
cpu3_STLB WRITE        ACCESS:          0 HIT:          0 MISS:          0
cpu3_STLB TRANSLATION  ACCESS:          0 HIT:          0 MISS:          0
cpu3_STLB PREFETCH REQUESTED:          0 ISSUED:          0 USEFUL:          0 USELESS:          0
cpu3_STLB AVERAGE MISS LATENCY: 174.5 cycles
cpu3_STLB TOTAL        ACCESS:     207044 HIT:      94698 MISS:     112346
cpu3_STLB LOAD         ACCESS:     207044 HIT:      94698 MISS:     112346
cpu3_STLB RFO          ACCESS:          0 HIT:          0 MISS:          0
cpu3_STLB PREFETCH     ACCESS:          0 HIT:          0 MISS:          0
cpu3_STLB WRITE        ACCESS:          0 HIT:          0 MISS:          0
cpu3_STLB TRANSLATION  ACCESS:          0 HIT:          0 MISS:          0
cpu3_STLB PREFETCH REQUESTED:          0 ISSUED:          0 USEFUL:          0 USELESS:          0
cpu3_STLB AVERAGE MISS LATENCY: 174.5 cycles

DRAM Statistics

Channel 0 RQ ROW_BUFFER_HIT:    2305213
  ROW_BUFFER_MISS:   12682636
 AVG DBUS CONGESTED CYCLE: 3.986
WQ ROW_BUFFER_HIT: Channel 0 
  ROW_BUFFER_MISS:     153427
  FULL:    7424968

Channel 1 RQ ROW_BUFFER_HIT:    2318560
  ROW_BUFFER_MISS:   12621020
 AVG DBUS CONGESTED CYCLE: 3.985
WQ ROW_BUFFER_HIT: Channel 1 
  ROW_BUFFER_MISS:     157190
  FULL:    7420368
