Original cmd-> /home/grads/r/rdas40/ECEN676/ChampSim/bin/multi_core/spp_2ch --warmup_instructions=50000000 --simulation_instructions=150000000  /home/grads/r/rdas40/dpc3_traces/644.nab_s-5853B.champsimtrace.xz /home/grads/r/rdas40/dpc3_traces/620.omnetpp_s-874B.champsimtrace.xz /home/grads/r/rdas40/dpc3_traces/649.fotonik3d_s-1176B.champsimtrace.xz /home/grads/r/rdas40/dpc3_traces/605.mcf_s-665B.champsimtrace.xz
WARNING: physical memory size is smaller than virtual memory size.
WARNING: option --warmup_instructions is deprecated. Use --warmup-instructions instead.
WARNING: option --simulation_instructions is deprecated. Use --simulation-instructions instead.

*** ChampSim Multicore Out-of-Order Simulator ***
Warmup Instructions: 50000000
Simulation Instructions: 150000000
Number of CPUs: 4
Page size: 4096

Initialize SIGNATURE TABLE
ST_SET: 1
ST_WAY: 256
ST_TAG_BIT: 16
ST_TAG_MASK: ffff

Initialize PATTERN TABLE
PT_SET: 512
PT_WAY: 4
SIG_DELTA_BIT: 7
C_SIG_BIT: 4
C_DELTA_BIT: 4

Initialize PREFETCH FILTER
FILTER_SET: 1024
Initialize SIGNATURE TABLE
ST_SET: 1
ST_WAY: 256
ST_TAG_BIT: 16
ST_TAG_MASK: ffff

Initialize PATTERN TABLE
PT_SET: 512
PT_WAY: 4
SIG_DELTA_BIT: 7
C_SIG_BIT: 4
C_DELTA_BIT: 4

Initialize PREFETCH FILTER
FILTER_SET: 1024
Initialize SIGNATURE TABLE
ST_SET: 1
ST_WAY: 256
ST_TAG_BIT: 16
ST_TAG_MASK: ffff

Initialize PATTERN TABLE
PT_SET: 512
PT_WAY: 4
SIG_DELTA_BIT: 7
C_SIG_BIT: 4
C_DELTA_BIT: 4

Initialize PREFETCH FILTER
FILTER_SET: 1024
Initialize SIGNATURE TABLE
ST_SET: 1
ST_WAY: 256
ST_TAG_BIT: 16
ST_TAG_MASK: ffff

Initialize PATTERN TABLE
PT_SET: 512
PT_WAY: 4
SIG_DELTA_BIT: 7
C_SIG_BIT: 4
C_DELTA_BIT: 4

Initialize PREFETCH FILTER
FILTER_SET: 1024
Off-chip DRAM Size: 8 GiB Channels: 2 Width: 64-bit Data Race: 3200 MT/s
Heartbeat CPU 2 instructions: 10000001 cycles: 2500049 heartbeat IPC: 4 cumulative IPC: 4 (Simulation time: 00 hr 03 min 10 sec)
Heartbeat CPU 3 instructions: 10000002 cycles: 3099714 heartbeat IPC: 3.226 cumulative IPC: 3.226 (Simulation time: 00 hr 03 min 56 sec)
Heartbeat CPU 0 instructions: 10000001 cycles: 3456693 heartbeat IPC: 2.893 cumulative IPC: 2.893 (Simulation time: 00 hr 04 min 23 sec)
Heartbeat CPU 1 instructions: 10000001 cycles: 3914986 heartbeat IPC: 2.554 cumulative IPC: 2.554 (Simulation time: 00 hr 04 min 59 sec)
Heartbeat CPU 2 instructions: 20000001 cycles: 5000049 heartbeat IPC: 4 cumulative IPC: 4 (Simulation time: 00 hr 06 min 22 sec)
Heartbeat CPU 3 instructions: 20000000 cycles: 6206266 heartbeat IPC: 3.219 cumulative IPC: 3.223 (Simulation time: 00 hr 07 min 55 sec)
Heartbeat CPU 0 instructions: 20000001 cycles: 6913725 heartbeat IPC: 2.893 cumulative IPC: 2.893 (Simulation time: 00 hr 08 min 49 sec)
Heartbeat CPU 2 instructions: 30000001 cycles: 7500049 heartbeat IPC: 4 cumulative IPC: 4 (Simulation time: 00 hr 09 min 34 sec)
Heartbeat CPU 1 instructions: 20000003 cycles: 7829983 heartbeat IPC: 2.554 cumulative IPC: 2.554 (Simulation time: 00 hr 10 min 00 sec)
Heartbeat CPU 3 instructions: 30000004 cycles: 9305379 heartbeat IPC: 3.227 cumulative IPC: 3.224 (Simulation time: 00 hr 11 min 53 sec)
Heartbeat CPU 2 instructions: 40000001 cycles: 10000049 heartbeat IPC: 4 cumulative IPC: 4 (Simulation time: 00 hr 12 min 47 sec)
Heartbeat CPU 0 instructions: 30000002 cycles: 10364602 heartbeat IPC: 2.898 cumulative IPC: 2.894 (Simulation time: 00 hr 13 min 15 sec)
Heartbeat CPU 1 instructions: 30000001 cycles: 11747938 heartbeat IPC: 2.552 cumulative IPC: 2.554 (Simulation time: 00 hr 15 min 02 sec)
Heartbeat CPU 3 instructions: 40000002 cycles: 12402604 heartbeat IPC: 3.229 cumulative IPC: 3.225 (Simulation time: 00 hr 15 min 53 sec)
Heartbeat CPU 2 instructions: 50000001 cycles: 12500049 heartbeat IPC: 4 cumulative IPC: 4 (Simulation time: 00 hr 16 min 00 sec)
Warmup finished CPU 2 instructions: 50000001 cycles: 12500050 cumulative IPC: 4 (Simulation time: 00 hr 16 min 00 sec)
Heartbeat CPU 0 instructions: 40000004 cycles: 13791035 heartbeat IPC: 2.918 cumulative IPC: 2.9 (Simulation time: 00 hr 17 min 40 sec)
Heartbeat CPU 2 instructions: 60000001 cycles: 15000049 heartbeat IPC: 4 cumulative IPC: 4 (Simulation time: 00 hr 19 min 14 sec)
Heartbeat CPU 3 instructions: 50000001 cycles: 15489456 heartbeat IPC: 3.24 cumulative IPC: 3.228 (Simulation time: 00 hr 19 min 51 sec)
Warmup finished CPU 3 instructions: 50000001 cycles: 15489457 cumulative IPC: 3.228 (Simulation time: 00 hr 19 min 51 sec)
Heartbeat CPU 1 instructions: 40000004 cycles: 15674036 heartbeat IPC: 2.547 cumulative IPC: 2.552 (Simulation time: 00 hr 20 min 06 sec)
Heartbeat CPU 0 instructions: 50000002 cycles: 17222835 heartbeat IPC: 2.914 cumulative IPC: 2.903 (Simulation time: 00 hr 22 min 06 sec)
Warmup finished CPU 0 instructions: 50000002 cycles: 17222836 cumulative IPC: 2.903 (Simulation time: 00 hr 22 min 06 sec)
Heartbeat CPU 2 instructions: 70000001 cycles: 17500049 heartbeat IPC: 4 cumulative IPC: 4 (Simulation time: 00 hr 22 min 27 sec)
Heartbeat CPU 3 instructions: 60000003 cycles: 18587302 heartbeat IPC: 3.228 cumulative IPC: 3.228 (Simulation time: 00 hr 23 min 52 sec)
Heartbeat CPU 1 instructions: 50000002 cycles: 19582300 heartbeat IPC: 2.559 cumulative IPC: 2.553 (Simulation time: 00 hr 25 min 09 sec)
Warmup finished CPU 1 instructions: 50000002 cycles: 19582301 cumulative IPC: 2.553 (Simulation time: 00 hr 25 min 09 sec)
Warmup complete CPU 0 instructions: 56872222 cycles: 19582301 cumulative IPC: 2.904 (Simulation time: 00 hr 25 min 09 sec)
Warmup complete CPU 1 instructions: 50000002 cycles: 19582301 cumulative IPC: 2.553 (Simulation time: 00 hr 25 min 09 sec)
Warmup complete CPU 2 instructions: 78329005 cycles: 19582301 cumulative IPC: 4 (Simulation time: 00 hr 25 min 09 sec)
Warmup complete CPU 3 instructions: 63210517 cycles: 19582301 cumulative IPC: 3.228 (Simulation time: 00 hr 25 min 09 sec)
Heartbeat CPU 0 instructions: 60000001 cycles: 20702615 heartbeat IPC: 2.874 cumulative IPC: 2.792 (Simulation time: 00 hr 26 min 02 sec)
Heartbeat CPU 2 instructions: 80000003 cycles: 20889346 heartbeat IPC: 2.95 cumulative IPC: 1.278 (Simulation time: 00 hr 26 min 12 sec)
Heartbeat CPU 0 instructions: 70000000 cycles: 24268643 heartbeat IPC: 2.804 cumulative IPC: 2.801 (Simulation time: 00 hr 28 min 57 sec)
Heartbeat CPU 2 instructions: 90000003 cycles: 28428502 heartbeat IPC: 1.326 cumulative IPC: 1.319 (Simulation time: 00 hr 32 min 02 sec)
Heartbeat CPU 0 instructions: 80000003 cycles: 28782616 heartbeat IPC: 2.215 cumulative IPC: 2.514 (Simulation time: 00 hr 32 min 17 sec)
Heartbeat CPU 0 instructions: 90000002 cycles: 33565167 heartbeat IPC: 2.091 cumulative IPC: 2.369 (Simulation time: 00 hr 35 min 46 sec)
Heartbeat CPU 2 instructions: 100000002 cycles: 37007191 heartbeat IPC: 1.166 cumulative IPC: 1.244 (Simulation time: 00 hr 38 min 10 sec)
Heartbeat CPU 0 instructions: 100000000 cycles: 38769310 heartbeat IPC: 1.922 cumulative IPC: 2.248 (Simulation time: 00 hr 39 min 27 sec)
Heartbeat CPU 3 instructions: 70000000 cycles: 38872351 heartbeat IPC: 0.493 cumulative IPC: 0.352 (Simulation time: 00 hr 39 min 31 sec)
Heartbeat CPU 0 instructions: 110000003 cycles: 43805232 heartbeat IPC: 1.986 cumulative IPC: 2.193 (Simulation time: 00 hr 43 min 00 sec)
Heartbeat CPU 2 instructions: 110000001 cycles: 45054273 heartbeat IPC: 1.243 cumulative IPC: 1.243 (Simulation time: 00 hr 43 min 54 sec)
Heartbeat CPU 1 instructions: 60000000 cycles: 45423089 heartbeat IPC: 0.387 cumulative IPC: 0.387 (Simulation time: 00 hr 44 min 10 sec)
Heartbeat CPU 0 instructions: 120000000 cycles: 48457003 heartbeat IPC: 2.15 cumulative IPC: 2.186 (Simulation time: 00 hr 46 min 22 sec)
Heartbeat CPU 2 instructions: 120000000 cycles: 52941678 heartbeat IPC: 1.268 cumulative IPC: 1.249 (Simulation time: 00 hr 49 min 36 sec)
Heartbeat CPU 0 instructions: 130000001 cycles: 53101847 heartbeat IPC: 2.153 cumulative IPC: 2.182 (Simulation time: 00 hr 49 min 43 sec)
Heartbeat CPU 0 instructions: 140000000 cycles: 57841134 heartbeat IPC: 2.11 cumulative IPC: 2.173 (Simulation time: 00 hr 53 min 07 sec)
Heartbeat CPU 2 instructions: 130000000 cycles: 60801228 heartbeat IPC: 1.272 cumulative IPC: 1.254 (Simulation time: 00 hr 55 min 14 sec)
Heartbeat CPU 0 instructions: 150000003 cycles: 62587732 heartbeat IPC: 2.107 cumulative IPC: 2.165 (Simulation time: 00 hr 56 min 33 sec)
Heartbeat CPU 0 instructions: 160000000 cycles: 67345877 heartbeat IPC: 2.102 cumulative IPC: 2.159 (Simulation time: 00 hr 59 min 59 sec)
Heartbeat CPU 3 instructions: 80000000 cycles: 68448842 heartbeat IPC: 0.3381 cumulative IPC: 0.3436 (Simulation time: 01 hr 00 min 45 sec)
Heartbeat CPU 2 instructions: 140000001 cycles: 68690239 heartbeat IPC: 1.268 cumulative IPC: 1.256 (Simulation time: 01 hr 00 min 56 sec)
Heartbeat CPU 0 instructions: 170000003 cycles: 72117529 heartbeat IPC: 2.096 cumulative IPC: 2.153 (Simulation time: 01 hr 03 min 23 sec)
Heartbeat CPU 1 instructions: 70000002 cycles: 72195028 heartbeat IPC: 0.3735 cumulative IPC: 0.3801 (Simulation time: 01 hr 03 min 27 sec)
Heartbeat CPU 2 instructions: 150000000 cycles: 76630216 heartbeat IPC: 1.259 cumulative IPC: 1.256 (Simulation time: 01 hr 06 min 38 sec)
Heartbeat CPU 0 instructions: 180000002 cycles: 76857768 heartbeat IPC: 2.11 cumulative IPC: 2.15 (Simulation time: 01 hr 06 min 48 sec)
Heartbeat CPU 0 instructions: 190000000 cycles: 81605817 heartbeat IPC: 2.106 cumulative IPC: 2.146 (Simulation time: 01 hr 10 min 11 sec)
Heartbeat CPU 2 instructions: 160000004 cycles: 84708169 heartbeat IPC: 1.238 cumulative IPC: 1.254 (Simulation time: 01 hr 12 min 25 sec)
Heartbeat CPU 0 instructions: 200000004 cycles: 86353928 heartbeat IPC: 2.106 cumulative IPC: 2.144 (Simulation time: 01 hr 13 min 37 sec)
Simulation finished CPU 0 instructions: 150000000 cycles: 70026077 cumulative IPC: 2.142 (Simulation time: 01 hr 15 min 58 sec)
Heartbeat CPU 0 instructions: 210000003 cycles: 91095964 heartbeat IPC: 2.109 cumulative IPC: 2.141 (Simulation time: 01 hr 17 min 01 sec)
Heartbeat CPU 2 instructions: 170000002 cycles: 92653362 heartbeat IPC: 1.259 cumulative IPC: 1.255 (Simulation time: 01 hr 18 min 08 sec)
Heartbeat CPU 0 instructions: 220000004 cycles: 95761206 heartbeat IPC: 2.144 cumulative IPC: 2.141 (Simulation time: 01 hr 20 min 21 sec)
Heartbeat CPU 3 instructions: 90000003 cycles: 97578419 heartbeat IPC: 0.3433 cumulative IPC: 0.3435 (Simulation time: 01 hr 21 min 40 sec)
Heartbeat CPU 1 instructions: 80000002 cycles: 99365443 heartbeat IPC: 0.368 cumulative IPC: 0.376 (Simulation time: 01 hr 23 min 00 sec)
Heartbeat CPU 0 instructions: 230000002 cycles: 100404563 heartbeat IPC: 2.154 cumulative IPC: 2.142 (Simulation time: 01 hr 23 min 45 sec)
Heartbeat CPU 2 instructions: 180000003 cycles: 100907897 heartbeat IPC: 1.211 cumulative IPC: 1.25 (Simulation time: 01 hr 24 min 07 sec)
Heartbeat CPU 0 instructions: 240000002 cycles: 105079139 heartbeat IPC: 2.139 cumulative IPC: 2.142 (Simulation time: 01 hr 27 min 10 sec)
Heartbeat CPU 2 instructions: 190000003 cycles: 109067249 heartbeat IPC: 1.226 cumulative IPC: 1.248 (Simulation time: 01 hr 30 min 05 sec)
Heartbeat CPU 0 instructions: 250000002 cycles: 109680409 heartbeat IPC: 2.173 cumulative IPC: 2.144 (Simulation time: 01 hr 30 min 32 sec)
Heartbeat CPU 0 instructions: 260000001 cycles: 114311196 heartbeat IPC: 2.159 cumulative IPC: 2.144 (Simulation time: 01 hr 33 min 56 sec)
Heartbeat CPU 2 instructions: 200000000 cycles: 116884439 heartbeat IPC: 1.279 cumulative IPC: 1.25 (Simulation time: 01 hr 35 min 48 sec)
Heartbeat CPU 0 instructions: 270000001 cycles: 119002094 heartbeat IPC: 2.132 cumulative IPC: 2.144 (Simulation time: 01 hr 37 min 23 sec)
Heartbeat CPU 3 instructions: 100000000 cycles: 121673632 heartbeat IPC: 0.415 cumulative IPC: 0.3604 (Simulation time: 01 hr 39 min 19 sec)
Heartbeat CPU 0 instructions: 280000001 cycles: 123566582 heartbeat IPC: 2.191 cumulative IPC: 2.146 (Simulation time: 01 hr 40 min 42 sec)
Heartbeat CPU 1 instructions: 90000001 cycles: 124869161 heartbeat IPC: 0.3921 cumulative IPC: 0.3799 (Simulation time: 01 hr 41 min 36 sec)
Heartbeat CPU 2 instructions: 210000000 cycles: 125083868 heartbeat IPC: 1.22 cumulative IPC: 1.248 (Simulation time: 01 hr 41 min 47 sec)
Heartbeat CPU 0 instructions: 290000000 cycles: 128082633 heartbeat IPC: 2.214 cumulative IPC: 2.149 (Simulation time: 01 hr 43 min 58 sec)
Heartbeat CPU 0 instructions: 300000004 cycles: 131648653 heartbeat IPC: 2.804 cumulative IPC: 2.169 (Simulation time: 01 hr 46 min 48 sec)
Heartbeat CPU 2 instructions: 220000001 cycles: 133712906 heartbeat IPC: 1.159 cumulative IPC: 1.241 (Simulation time: 01 hr 48 min 27 sec)
Heartbeat CPU 0 instructions: 310000004 cycles: 135311355 heartbeat IPC: 2.73 cumulative IPC: 2.187 (Simulation time: 01 hr 49 min 42 sec)
Heartbeat CPU 0 instructions: 320000000 cycles: 140168727 heartbeat IPC: 2.059 cumulative IPC: 2.182 (Simulation time: 01 hr 53 min 12 sec)
Simulation finished CPU 2 instructions: 150000001 cycles: 121353808 cumulative IPC: 1.236 (Simulation time: 01 hr 53 min 43 sec)
Heartbeat CPU 2 instructions: 230000000 cycles: 142402966 heartbeat IPC: 1.151 cumulative IPC: 1.235 (Simulation time: 01 hr 54 min 46 sec)
Heartbeat CPU 0 instructions: 330000001 cycles: 145210334 heartbeat IPC: 1.983 cumulative IPC: 2.174 (Simulation time: 01 hr 56 min 45 sec)
Heartbeat CPU 3 instructions: 110000000 cycles: 146269436 heartbeat IPC: 0.4066 cumulative IPC: 0.3693 (Simulation time: 01 hr 57 min 29 sec)
Heartbeat CPU 0 instructions: 340000002 cycles: 149997408 heartbeat IPC: 2.089 cumulative IPC: 2.171 (Simulation time: 02 hr 00 min 14 sec)
Heartbeat CPU 2 instructions: 240000000 cycles: 150445878 heartbeat IPC: 1.243 cumulative IPC: 1.235 (Simulation time: 02 hr 00 min 32 sec)
Heartbeat CPU 1 instructions: 100000000 cycles: 150886060 heartbeat IPC: 0.3844 cumulative IPC: 0.3808 (Simulation time: 02 hr 00 min 51 sec)
Heartbeat CPU 0 instructions: 350000000 cycles: 153816534 heartbeat IPC: 2.618 cumulative IPC: 2.184 (Simulation time: 02 hr 03 min 12 sec)
Heartbeat CPU 0 instructions: 360000002 cycles: 157344265 heartbeat IPC: 2.835 cumulative IPC: 2.2 (Simulation time: 02 hr 06 min 03 sec)
Heartbeat CPU 2 instructions: 250000004 cycles: 158182311 heartbeat IPC: 1.293 cumulative IPC: 1.239 (Simulation time: 02 hr 06 min 45 sec)
Heartbeat CPU 0 instructions: 370000000 cycles: 160907249 heartbeat IPC: 2.807 cumulative IPC: 2.216 (Simulation time: 02 hr 08 min 56 sec)
Heartbeat CPU 0 instructions: 380000004 cycles: 164461440 heartbeat IPC: 2.814 cumulative IPC: 2.23 (Simulation time: 02 hr 11 min 49 sec)
Heartbeat CPU 2 instructions: 260000002 cycles: 166113546 heartbeat IPC: 1.261 cumulative IPC: 1.24 (Simulation time: 02 hr 13 min 08 sec)
Heartbeat CPU 0 instructions: 390000000 cycles: 168012461 heartbeat IPC: 2.816 cumulative IPC: 2.244 (Simulation time: 02 hr 14 min 40 sec)
Heartbeat CPU 3 instructions: 120000003 cycles: 170411017 heartbeat IPC: 0.4142 cumulative IPC: 0.3765 (Simulation time: 02 hr 16 min 34 sec)
Heartbeat CPU 0 instructions: 400000004 cycles: 171554874 heartbeat IPC: 2.823 cumulative IPC: 2.258 (Simulation time: 02 hr 17 min 30 sec)
Heartbeat CPU 2 instructions: 270000003 cycles: 173572927 heartbeat IPC: 1.341 cumulative IPC: 1.245 (Simulation time: 02 hr 19 min 11 sec)
Heartbeat CPU 0 instructions: 410000002 cycles: 175087017 heartbeat IPC: 2.831 cumulative IPC: 2.271 (Simulation time: 02 hr 20 min 26 sec)
Heartbeat CPU 1 instructions: 110000004 cycles: 176603192 heartbeat IPC: 0.3888 cumulative IPC: 0.3821 (Simulation time: 02 hr 21 min 39 sec)
Heartbeat CPU 0 instructions: 420000004 cycles: 178652653 heartbeat IPC: 2.805 cumulative IPC: 2.283 (Simulation time: 02 hr 23 min 19 sec)
Heartbeat CPU 2 instructions: 280000000 cycles: 180265670 heartbeat IPC: 1.494 cumulative IPC: 1.255 (Simulation time: 02 hr 24 min 38 sec)
Heartbeat CPU 0 instructions: 430000000 cycles: 182213194 heartbeat IPC: 2.809 cumulative IPC: 2.294 (Simulation time: 02 hr 26 min 12 sec)
Heartbeat CPU 0 instructions: 440000000 cycles: 185766617 heartbeat IPC: 2.814 cumulative IPC: 2.305 (Simulation time: 02 hr 29 min 03 sec)
Heartbeat CPU 2 instructions: 290000001 cycles: 188006942 heartbeat IPC: 1.292 cumulative IPC: 1.257 (Simulation time: 02 hr 30 min 53 sec)
Heartbeat CPU 0 instructions: 450000003 cycles: 189323379 heartbeat IPC: 2.812 cumulative IPC: 2.316 (Simulation time: 02 hr 31 min 56 sec)
Heartbeat CPU 0 instructions: 460000003 cycles: 192905168 heartbeat IPC: 2.792 cumulative IPC: 2.326 (Simulation time: 02 hr 34 min 48 sec)
Heartbeat CPU 3 instructions: 130000000 cycles: 193928624 heartbeat IPC: 0.4252 cumulative IPC: 0.3831 (Simulation time: 02 hr 35 min 37 sec)
Heartbeat CPU 2 instructions: 300000003 cycles: 196029643 heartbeat IPC: 1.246 cumulative IPC: 1.256 (Simulation time: 02 hr 37 min 19 sec)
Heartbeat CPU 0 instructions: 470000002 cycles: 196436014 heartbeat IPC: 2.832 cumulative IPC: 2.336 (Simulation time: 02 hr 37 min 40 sec)
Heartbeat CPU 0 instructions: 480000001 cycles: 199955437 heartbeat IPC: 2.841 cumulative IPC: 2.346 (Simulation time: 02 hr 40 min 31 sec)
Heartbeat CPU 1 instructions: 120000004 cycles: 203270476 heartbeat IPC: 0.375 cumulative IPC: 0.3811 (Simulation time: 02 hr 43 min 11 sec)
Heartbeat CPU 0 instructions: 490000001 cycles: 203486213 heartbeat IPC: 2.832 cumulative IPC: 2.355 (Simulation time: 02 hr 43 min 22 sec)
Heartbeat CPU 2 instructions: 310000002 cycles: 203677118 heartbeat IPC: 1.308 cumulative IPC: 1.258 (Simulation time: 02 hr 43 min 30 sec)
Heartbeat CPU 0 instructions: 500000004 cycles: 207022013 heartbeat IPC: 2.828 cumulative IPC: 2.364 (Simulation time: 02 hr 46 min 11 sec)
Heartbeat CPU 0 instructions: 510000004 cycles: 210564460 heartbeat IPC: 2.823 cumulative IPC: 2.373 (Simulation time: 02 hr 49 min 03 sec)
Heartbeat CPU 2 instructions: 320000002 cycles: 211602906 heartbeat IPC: 1.262 cumulative IPC: 1.259 (Simulation time: 02 hr 49 min 53 sec)
Heartbeat CPU 0 instructions: 520000004 cycles: 214129424 heartbeat IPC: 2.805 cumulative IPC: 2.381 (Simulation time: 02 hr 51 min 55 sec)
Heartbeat CPU 0 instructions: 530000002 cycles: 217683856 heartbeat IPC: 2.813 cumulative IPC: 2.388 (Simulation time: 02 hr 54 min 46 sec)
Heartbeat CPU 3 instructions: 140000002 cycles: 218423378 heartbeat IPC: 0.4083 cumulative IPC: 0.3862 (Simulation time: 02 hr 55 min 20 sec)
Heartbeat CPU 2 instructions: 330000000 cycles: 219516335 heartbeat IPC: 1.264 cumulative IPC: 1.259 (Simulation time: 02 hr 56 min 15 sec)
Heartbeat CPU 0 instructions: 540000002 cycles: 221246734 heartbeat IPC: 2.807 cumulative IPC: 2.396 (Simulation time: 02 hr 57 min 38 sec)
Heartbeat CPU 0 instructions: 550000001 cycles: 224817673 heartbeat IPC: 2.8 cumulative IPC: 2.403 (Simulation time: 03 hr 00 min 30 sec)
Heartbeat CPU 2 instructions: 340000002 cycles: 227452369 heartbeat IPC: 1.26 cumulative IPC: 1.259 (Simulation time: 03 hr 02 min 36 sec)
Heartbeat CPU 0 instructions: 560000002 cycles: 228419193 heartbeat IPC: 2.777 cumulative IPC: 2.409 (Simulation time: 03 hr 03 min 23 sec)
Heartbeat CPU 1 instructions: 130000002 cycles: 230179200 heartbeat IPC: 0.3716 cumulative IPC: 0.3799 (Simulation time: 03 hr 04 min 47 sec)
Heartbeat CPU 0 instructions: 570000001 cycles: 231984554 heartbeat IPC: 2.805 cumulative IPC: 2.416 (Simulation time: 03 hr 06 min 15 sec)
Heartbeat CPU 2 instructions: 350000002 cycles: 235476258 heartbeat IPC: 1.246 cumulative IPC: 1.258 (Simulation time: 03 hr 09 min 03 sec)
Heartbeat CPU 0 instructions: 580000004 cycles: 235538502 heartbeat IPC: 2.814 cumulative IPC: 2.422 (Simulation time: 03 hr 09 min 06 sec)
Heartbeat CPU 0 instructions: 590000000 cycles: 239115685 heartbeat IPC: 2.795 cumulative IPC: 2.428 (Simulation time: 03 hr 12 min 01 sec)
Heartbeat CPU 3 instructions: 150000000 cycles: 242432056 heartbeat IPC: 0.4165 cumulative IPC: 0.3895 (Simulation time: 03 hr 14 min 41 sec)
Heartbeat CPU 0 instructions: 600000002 cycles: 242685568 heartbeat IPC: 2.801 cumulative IPC: 2.434 (Simulation time: 03 hr 14 min 54 sec)
Heartbeat CPU 2 instructions: 360000001 cycles: 243366591 heartbeat IPC: 1.267 cumulative IPC: 1.259 (Simulation time: 03 hr 15 min 26 sec)
Heartbeat CPU 0 instructions: 610000000 cycles: 246266144 heartbeat IPC: 2.793 cumulative IPC: 2.44 (Simulation time: 03 hr 17 min 47 sec)
Heartbeat CPU 0 instructions: 620000002 cycles: 249799368 heartbeat IPC: 2.83 cumulative IPC: 2.446 (Simulation time: 03 hr 20 min 37 sec)
Heartbeat CPU 2 instructions: 370000004 cycles: 251427746 heartbeat IPC: 1.241 cumulative IPC: 1.258 (Simulation time: 03 hr 21 min 55 sec)
Heartbeat CPU 0 instructions: 630000002 cycles: 253366909 heartbeat IPC: 2.803 cumulative IPC: 2.452 (Simulation time: 03 hr 23 min 27 sec)
Heartbeat CPU 1 instructions: 140000001 cycles: 256031234 heartbeat IPC: 0.3868 cumulative IPC: 0.3806 (Simulation time: 03 hr 25 min 38 sec)
Heartbeat CPU 0 instructions: 640000004 cycles: 256911684 heartbeat IPC: 2.821 cumulative IPC: 2.457 (Simulation time: 03 hr 26 min 19 sec)
Heartbeat CPU 2 instructions: 380000003 cycles: 259191851 heartbeat IPC: 1.288 cumulative IPC: 1.259 (Simulation time: 03 hr 28 min 11 sec)
Heartbeat CPU 0 instructions: 650000002 cycles: 260474811 heartbeat IPC: 2.807 cumulative IPC: 2.462 (Simulation time: 03 hr 29 min 12 sec)
Heartbeat CPU 0 instructions: 660000000 cycles: 264015168 heartbeat IPC: 2.825 cumulative IPC: 2.467 (Simulation time: 03 hr 32 min 04 sec)
Heartbeat CPU 3 instructions: 160000002 cycles: 265930026 heartbeat IPC: 0.4256 cumulative IPC: 0.3929 (Simulation time: 03 hr 33 min 38 sec)
Heartbeat CPU 2 instructions: 390000002 cycles: 267191442 heartbeat IPC: 1.25 cumulative IPC: 1.259 (Simulation time: 03 hr 34 min 36 sec)
Heartbeat CPU 0 instructions: 670000003 cycles: 267611823 heartbeat IPC: 2.78 cumulative IPC: 2.472 (Simulation time: 03 hr 34 min 58 sec)
Heartbeat CPU 0 instructions: 680000002 cycles: 271169668 heartbeat IPC: 2.811 cumulative IPC: 2.477 (Simulation time: 03 hr 37 min 52 sec)
Heartbeat CPU 0 instructions: 690000002 cycles: 274719148 heartbeat IPC: 2.817 cumulative IPC: 2.482 (Simulation time: 03 hr 40 min 43 sec)
Heartbeat CPU 2 instructions: 400000003 cycles: 274776966 heartbeat IPC: 1.318 cumulative IPC: 1.26 (Simulation time: 03 hr 40 min 46 sec)
Heartbeat CPU 0 instructions: 700000004 cycles: 278309053 heartbeat IPC: 2.786 cumulative IPC: 2.486 (Simulation time: 03 hr 43 min 34 sec)
Heartbeat CPU 0 instructions: 710000001 cycles: 282099314 heartbeat IPC: 2.638 cumulative IPC: 2.488 (Simulation time: 03 hr 46 min 33 sec)
Heartbeat CPU 1 instructions: 150000003 cycles: 282468143 heartbeat IPC: 0.3783 cumulative IPC: 0.3804 (Simulation time: 03 hr 46 min 52 sec)
Heartbeat CPU 2 instructions: 410000001 cycles: 283324036 heartbeat IPC: 1.17 cumulative IPC: 1.258 (Simulation time: 03 hr 47 min 32 sec)
Heartbeat CPU 0 instructions: 720000002 cycles: 285692692 heartbeat IPC: 2.783 cumulative IPC: 2.492 (Simulation time: 03 hr 49 min 27 sec)
Heartbeat CPU 0 instructions: 730000000 cycles: 289256735 heartbeat IPC: 2.806 cumulative IPC: 2.496 (Simulation time: 03 hr 52 min 20 sec)
Heartbeat CPU 3 instructions: 170000000 cycles: 290530094 heartbeat IPC: 0.4065 cumulative IPC: 0.3941 (Simulation time: 03 hr 53 min 21 sec)
Heartbeat CPU 2 instructions: 420000000 cycles: 291011902 heartbeat IPC: 1.301 cumulative IPC: 1.259 (Simulation time: 03 hr 53 min 46 sec)
Heartbeat CPU 0 instructions: 740000001 cycles: 292804504 heartbeat IPC: 2.819 cumulative IPC: 2.5 (Simulation time: 03 hr 55 min 13 sec)
Heartbeat CPU 0 instructions: 750000002 cycles: 296372222 heartbeat IPC: 2.803 cumulative IPC: 2.504 (Simulation time: 03 hr 58 min 04 sec)
Heartbeat CPU 2 instructions: 430000000 cycles: 298847664 heartbeat IPC: 1.276 cumulative IPC: 1.259 (Simulation time: 04 hr 00 min 04 sec)
Heartbeat CPU 0 instructions: 760000002 cycles: 299930245 heartbeat IPC: 2.811 cumulative IPC: 2.508 (Simulation time: 04 hr 00 min 56 sec)
Heartbeat CPU 0 instructions: 770000000 cycles: 303489903 heartbeat IPC: 2.809 cumulative IPC: 2.512 (Simulation time: 04 hr 03 min 49 sec)
Heartbeat CPU 2 instructions: 440000004 cycles: 306459589 heartbeat IPC: 1.314 cumulative IPC: 1.261 (Simulation time: 04 hr 06 min 15 sec)
Heartbeat CPU 0 instructions: 780000002 cycles: 307021473 heartbeat IPC: 2.832 cumulative IPC: 2.516 (Simulation time: 04 hr 06 min 42 sec)
Heartbeat CPU 1 instructions: 160000002 cycles: 309030369 heartbeat IPC: 0.3765 cumulative IPC: 0.38 (Simulation time: 04 hr 08 min 21 sec)
Heartbeat CPU 0 instructions: 790000000 cycles: 310590240 heartbeat IPC: 2.802 cumulative IPC: 2.519 (Simulation time: 04 hr 09 min 33 sec)
Heartbeat CPU 0 instructions: 800000000 cycles: 314170124 heartbeat IPC: 2.793 cumulative IPC: 2.523 (Simulation time: 04 hr 12 min 28 sec)
Heartbeat CPU 3 instructions: 180000004 cycles: 314286216 heartbeat IPC: 0.4209 cumulative IPC: 0.3963 (Simulation time: 04 hr 12 min 33 sec)
Heartbeat CPU 2 instructions: 450000004 cycles: 315004608 heartbeat IPC: 1.17 cumulative IPC: 1.258 (Simulation time: 04 hr 13 min 06 sec)
Heartbeat CPU 0 instructions: 810000003 cycles: 317733858 heartbeat IPC: 2.806 cumulative IPC: 2.526 (Simulation time: 04 hr 15 min 18 sec)
Heartbeat CPU 0 instructions: 820000003 cycles: 321300839 heartbeat IPC: 2.803 cumulative IPC: 2.529 (Simulation time: 04 hr 18 min 10 sec)
Heartbeat CPU 2 instructions: 460000003 cycles: 322950064 heartbeat IPC: 1.259 cumulative IPC: 1.258 (Simulation time: 04 hr 19 min 30 sec)
Heartbeat CPU 0 instructions: 830000001 cycles: 324869862 heartbeat IPC: 2.802 cumulative IPC: 2.532 (Simulation time: 04 hr 21 min 02 sec)
Heartbeat CPU 0 instructions: 840000000 cycles: 328405877 heartbeat IPC: 2.828 cumulative IPC: 2.536 (Simulation time: 04 hr 23 min 52 sec)
Heartbeat CPU 2 instructions: 470000000 cycles: 330974679 heartbeat IPC: 1.246 cumulative IPC: 1.258 (Simulation time: 04 hr 25 min 58 sec)
Heartbeat CPU 0 instructions: 850000001 cycles: 331934765 heartbeat IPC: 2.834 cumulative IPC: 2.539 (Simulation time: 04 hr 26 min 45 sec)
Heartbeat CPU 1 instructions: 170000001 cycles: 334067513 heartbeat IPC: 0.3994 cumulative IPC: 0.3816 (Simulation time: 04 hr 28 min 30 sec)
Heartbeat CPU 0 instructions: 860000004 cycles: 335485504 heartbeat IPC: 2.816 cumulative IPC: 2.542 (Simulation time: 04 hr 29 min 39 sec)
Heartbeat CPU 3 instructions: 190000003 cycles: 338555802 heartbeat IPC: 0.412 cumulative IPC: 0.3975 (Simulation time: 04 hr 32 min 08 sec)
Heartbeat CPU 2 instructions: 480000000 cycles: 338607414 heartbeat IPC: 1.31 cumulative IPC: 1.259 (Simulation time: 04 hr 32 min 11 sec)
Heartbeat CPU 0 instructions: 870000002 cycles: 339039841 heartbeat IPC: 2.813 cumulative IPC: 2.545 (Simulation time: 04 hr 32 min 31 sec)
Heartbeat CPU 0 instructions: 880000003 cycles: 342590864 heartbeat IPC: 2.816 cumulative IPC: 2.548 (Simulation time: 04 hr 35 min 22 sec)
Heartbeat CPU 0 instructions: 890000003 cycles: 346139789 heartbeat IPC: 2.818 cumulative IPC: 2.551 (Simulation time: 04 hr 38 min 14 sec)
Heartbeat CPU 2 instructions: 490000001 cycles: 346355143 heartbeat IPC: 1.291 cumulative IPC: 1.26 (Simulation time: 04 hr 38 min 25 sec)
Heartbeat CPU 0 instructions: 900000000 cycles: 349697563 heartbeat IPC: 2.811 cumulative IPC: 2.554 (Simulation time: 04 hr 41 min 05 sec)
Heartbeat CPU 0 instructions: 910000000 cycles: 353314829 heartbeat IPC: 2.765 cumulative IPC: 2.556 (Simulation time: 04 hr 43 min 59 sec)
Heartbeat CPU 2 instructions: 500000000 cycles: 355098976 heartbeat IPC: 1.144 cumulative IPC: 1.257 (Simulation time: 04 hr 45 min 23 sec)
Heartbeat CPU 0 instructions: 920000004 cycles: 357044809 heartbeat IPC: 2.681 cumulative IPC: 2.558 (Simulation time: 04 hr 46 min 55 sec)
Heartbeat CPU 1 instructions: 180000001 cycles: 360018801 heartbeat IPC: 0.3853 cumulative IPC: 0.3819 (Simulation time: 04 hr 49 min 16 sec)
Heartbeat CPU 0 instructions: 930000000 cycles: 360745100 heartbeat IPC: 2.702 cumulative IPC: 2.559 (Simulation time: 04 hr 49 min 51 sec)
Heartbeat CPU 3 instructions: 200000000 cycles: 363248219 heartbeat IPC: 0.405 cumulative IPC: 0.398 (Simulation time: 04 hr 51 min 52 sec)
Heartbeat CPU 2 instructions: 510000001 cycles: 363352641 heartbeat IPC: 1.212 cumulative IPC: 1.256 (Simulation time: 04 hr 51 min 58 sec)
Heartbeat CPU 0 instructions: 940000000 cycles: 364345958 heartbeat IPC: 2.777 cumulative IPC: 2.562 (Simulation time: 04 hr 52 min 45 sec)
Heartbeat CPU 0 instructions: 950000000 cycles: 367915868 heartbeat IPC: 2.801 cumulative IPC: 2.564 (Simulation time: 04 hr 55 min 39 sec)
Heartbeat CPU 2 instructions: 520000000 cycles: 370985405 heartbeat IPC: 1.31 cumulative IPC: 1.257 (Simulation time: 04 hr 58 min 07 sec)
Heartbeat CPU 0 instructions: 960000000 cycles: 371509879 heartbeat IPC: 2.782 cumulative IPC: 2.566 (Simulation time: 04 hr 58 min 34 sec)
Heartbeat CPU 0 instructions: 970000002 cycles: 375103103 heartbeat IPC: 2.783 cumulative IPC: 2.568 (Simulation time: 05 hr 01 min 28 sec)
Heartbeat CPU 0 instructions: 980000001 cycles: 378690612 heartbeat IPC: 2.787 cumulative IPC: 2.571 (Simulation time: 05 hr 04 min 21 sec)
Heartbeat CPU 2 instructions: 530000004 cycles: 378786964 heartbeat IPC: 1.282 cumulative IPC: 1.257 (Simulation time: 05 hr 04 min 26 sec)
Heartbeat CPU 0 instructions: 990000003 cycles: 382270397 heartbeat IPC: 2.793 cumulative IPC: 2.573 (Simulation time: 05 hr 07 min 15 sec)
Heartbeat CPU 0 instructions: 1000000002 cycles: 385839180 heartbeat IPC: 2.802 cumulative IPC: 2.575 (Simulation time: 05 hr 10 min 10 sec)
Heartbeat CPU 2 instructions: 540000002 cycles: 386443826 heartbeat IPC: 1.306 cumulative IPC: 1.258 (Simulation time: 05 hr 10 min 39 sec)
Heartbeat CPU 1 instructions: 190000004 cycles: 386596070 heartbeat IPC: 0.3763 cumulative IPC: 0.3815 (Simulation time: 05 hr 10 min 46 sec)
Heartbeat CPU 3 instructions: 210000000 cycles: 387189010 heartbeat IPC: 0.4177 cumulative IPC: 0.3993 (Simulation time: 05 hr 11 min 14 sec)
Heartbeat CPU 0 instructions: 1010000003 cycles: 389431698 heartbeat IPC: 2.784 cumulative IPC: 2.577 (Simulation time: 05 hr 13 min 05 sec)
Heartbeat CPU 0 instructions: 1020000003 cycles: 393029781 heartbeat IPC: 2.779 cumulative IPC: 2.579 (Simulation time: 05 hr 15 min 58 sec)
Simulation finished CPU 3 instructions: 150000001 cycles: 374435118 cumulative IPC: 0.4006 (Simulation time: 05 hr 16 min 47 sec)
Heartbeat CPU 2 instructions: 550000004 cycles: 394106992 heartbeat IPC: 1.305 cumulative IPC: 1.259 (Simulation time: 05 hr 16 min 52 sec)
Heartbeat CPU 0 instructions: 1030000001 cycles: 396629686 heartbeat IPC: 2.778 cumulative IPC: 2.581 (Simulation time: 05 hr 18 min 51 sec)
Heartbeat CPU 0 instructions: 1040000001 cycles: 400243195 heartbeat IPC: 2.767 cumulative IPC: 2.583 (Simulation time: 05 hr 21 min 47 sec)
Heartbeat CPU 2 instructions: 560000004 cycles: 401958166 heartbeat IPC: 1.274 cumulative IPC: 1.26 (Simulation time: 05 hr 23 min 10 sec)
Heartbeat CPU 0 instructions: 1050000001 cycles: 403901073 heartbeat IPC: 2.734 cumulative IPC: 2.584 (Simulation time: 05 hr 24 min 46 sec)
Heartbeat CPU 0 instructions: 1060000001 cycles: 407548476 heartbeat IPC: 2.742 cumulative IPC: 2.586 (Simulation time: 05 hr 27 min 41 sec)
Heartbeat CPU 2 instructions: 570000002 cycles: 409728230 heartbeat IPC: 1.287 cumulative IPC: 1.26 (Simulation time: 05 hr 29 min 26 sec)
Heartbeat CPU 3 instructions: 220000004 cycles: 410296793 heartbeat IPC: 0.4328 cumulative IPC: 0.4013 (Simulation time: 05 hr 29 min 55 sec)
Heartbeat CPU 0 instructions: 1070000001 cycles: 411180498 heartbeat IPC: 2.753 cumulative IPC: 2.587 (Simulation time: 05 hr 30 min 37 sec)
Heartbeat CPU 1 instructions: 200000001 cycles: 412936243 heartbeat IPC: 0.3796 cumulative IPC: 0.3813 (Simulation time: 05 hr 32 min 01 sec)
Simulation finished CPU 1 instructions: 150000004 cycles: 393353944 cumulative IPC: 0.3813 (Simulation time: 05 hr 32 min 01 sec)
Simulation complete CPU 0 instructions: 1017948788 cycles: 393353944 cumulative IPC: 2.588 (Simulation time: 05 hr 32 min 01 sec)
Simulation complete CPU 1 instructions: 150000004 cycles: 393353944 cumulative IPC: 0.3813 (Simulation time: 05 hr 32 min 01 sec)
Simulation complete CPU 2 instructions: 495883287 cycles: 393353944 cumulative IPC: 1.261 (Simulation time: 05 hr 32 min 01 sec)
Simulation complete CPU 3 instructions: 157663127 cycles: 393353944 cumulative IPC: 0.4008 (Simulation time: 05 hr 32 min 01 sec)

ChampSim completed all CPUs

=== Simulation ===
CPU 0 runs /home/grads/r/rdas40/dpc3_traces/644.nab_s-5853B.champsimtrace.xzCPU 1 runs /home/grads/r/rdas40/dpc3_traces/620.omnetpp_s-874B.champsimtrace.xzCPU 2 runs /home/grads/r/rdas40/dpc3_traces/649.fotonik3d_s-1176B.champsimtrace.xzCPU 3 runs /home/grads/r/rdas40/dpc3_traces/605.mcf_s-665B.champsimtrace.xz
Total Simulation Statistics (not including warmup)

CPU 0 cumulative IPC: 2.588 instructions: 1017948788 cycles: 393353944
CPU 0 Branch Prediction Accuracy: 87.82% MPKI: 11.79 Average ROB Occupancy at Mispredict: 188.9
Branch type MPKI
BRANCH_DIRECT_JUMP: 0.000111
BRANCH_INDIRECT: 9.82e-07
BRANCH_CONDITIONAL: 6.26
BRANCH_DIRECT_CALL: 9.82e-07
BRANCH_INDIRECT_CALL: 0
BRANCH_RETURN: 5.53


CPU 1 cumulative IPC: 0.3813 instructions: 150000004 cycles: 393353944
CPU 1 Branch Prediction Accuracy: 94.9% MPKI: 10.6 Average ROB Occupancy at Mispredict: 82.73
Branch type MPKI
BRANCH_DIRECT_JUMP: 0.923
BRANCH_INDIRECT: 0.128
BRANCH_CONDITIONAL: 8.42
BRANCH_DIRECT_CALL: 0.00016
BRANCH_INDIRECT_CALL: 0.734
BRANCH_RETURN: 0.399


CPU 2 cumulative IPC: 1.261 instructions: 495883287 cycles: 393353944
CPU 2 Branch Prediction Accuracy: 99.63% MPKI: 0.06861 Average ROB Occupancy at Mispredict: 82.06
Branch type MPKI
BRANCH_DIRECT_JUMP: 0.000179
BRANCH_INDIRECT: 0
BRANCH_CONDITIONAL: 0.0522
BRANCH_DIRECT_CALL: 3.23e-05
BRANCH_INDIRECT_CALL: 0
BRANCH_RETURN: 0.0162


CPU 3 cumulative IPC: 0.4008 instructions: 157663127 cycles: 393353944
CPU 3 Branch Prediction Accuracy: 90.34% MPKI: 23.88 Average ROB Occupancy at Mispredict: 18.43
Branch type MPKI
BRANCH_DIRECT_JUMP: 0.253
BRANCH_INDIRECT: 0
BRANCH_CONDITIONAL: 23.6
BRANCH_DIRECT_CALL: 0
BRANCH_INDIRECT_CALL: 0.000628
BRANCH_RETURN: 0

LLC TOTAL        ACCESS:     589766 HIT:     365096 MISS:     224670
LLC LOAD         ACCESS:      96873 HIT:      72366 MISS:      24507
LLC RFO          ACCESS:        427 HIT:        127 MISS:        300
LLC PREFETCH     ACCESS:     482588 HIT:     292460 MISS:     190128
LLC WRITE        ACCESS:       6949 HIT:        135 MISS:       6814
LLC TRANSLATION  ACCESS:       2929 HIT:          8 MISS:       2921
LLC PREFETCH REQUESTED:          0 ISSUED:          0 USEFUL:          0 USELESS:          0
LLC AVERAGE MISS LATENCY: 200.2 cycles
LLC TOTAL        ACCESS:    4264309 HIT:    1832083 MISS:    2432226
LLC LOAD         ACCESS:    1677514 HIT:     481576 MISS:    1195938
LLC RFO          ACCESS:     256641 HIT:     122052 MISS:     134589
LLC PREFETCH     ACCESS:     760356 HIT:     200759 MISS:     559597
LLC WRITE        ACCESS:     973499 HIT:     966600 MISS:       6899
LLC TRANSLATION  ACCESS:     596299 HIT:      61096 MISS:     535203
LLC PREFETCH REQUESTED:          0 ISSUED:          0 USEFUL:          0 USELESS:          0
LLC AVERAGE MISS LATENCY: 200.2 cycles
LLC TOTAL        ACCESS:   16866711 HIT:    6635511 MISS:   10231200
LLC LOAD         ACCESS:    1835951 HIT:     538657 MISS:    1297294
LLC RFO          ACCESS:       4680 HIT:       4662 MISS:         18
LLC PREFETCH     ACCESS:   10702779 HIT:    1770272 MISS:    8932507
LLC WRITE        ACCESS:    4322335 HIT:    4321453 MISS:        882
LLC TRANSLATION  ACCESS:        966 HIT:        467 MISS:        499
LLC PREFETCH REQUESTED:          0 ISSUED:          0 USEFUL:          0 USELESS:          0
LLC AVERAGE MISS LATENCY: 200.2 cycles
LLC TOTAL        ACCESS:    6079548 HIT:    3511474 MISS:    2568074
LLC LOAD         ACCESS:    2618276 HIT:    1887148 MISS:     731128
LLC RFO          ACCESS:     243175 HIT:     240891 MISS:       2284
LLC PREFETCH     ACCESS:    2814393 HIT:     997613 MISS:    1816780
LLC WRITE        ACCESS:     388861 HIT:     377016 MISS:      11845
LLC TRANSLATION  ACCESS:      14843 HIT:       8806 MISS:       6037
LLC PREFETCH REQUESTED:          0 ISSUED:          0 USEFUL:          0 USELESS:          0
LLC AVERAGE MISS LATENCY: 200.2 cycles
cpu0_DTLB TOTAL        ACCESS:  180515019 HIT:  178952676 MISS:    1562343
cpu0_DTLB LOAD         ACCESS:  180515019 HIT:  178952676 MISS:    1562343
cpu0_DTLB RFO          ACCESS:          0 HIT:          0 MISS:          0
cpu0_DTLB PREFETCH     ACCESS:          0 HIT:          0 MISS:          0
cpu0_DTLB WRITE        ACCESS:          0 HIT:          0 MISS:          0
cpu0_DTLB TRANSLATION  ACCESS:          0 HIT:          0 MISS:          0
cpu0_DTLB PREFETCH REQUESTED:          0 ISSUED:          0 USEFUL:          0 USELESS:          0
cpu0_DTLB AVERAGE MISS LATENCY: 9.304 cycles
cpu0_DTLB TOTAL        ACCESS:          0 HIT:          0 MISS:          0
cpu0_DTLB LOAD         ACCESS:          0 HIT:          0 MISS:          0
cpu0_DTLB RFO          ACCESS:          0 HIT:          0 MISS:          0
cpu0_DTLB PREFETCH     ACCESS:          0 HIT:          0 MISS:          0
cpu0_DTLB WRITE        ACCESS:          0 HIT:          0 MISS:          0
cpu0_DTLB TRANSLATION  ACCESS:          0 HIT:          0 MISS:          0
cpu0_DTLB PREFETCH REQUESTED:          0 ISSUED:          0 USEFUL:          0 USELESS:          0
cpu0_DTLB AVERAGE MISS LATENCY: 9.304 cycles
cpu0_DTLB TOTAL        ACCESS:          0 HIT:          0 MISS:          0
cpu0_DTLB LOAD         ACCESS:          0 HIT:          0 MISS:          0
cpu0_DTLB RFO          ACCESS:          0 HIT:          0 MISS:          0
cpu0_DTLB PREFETCH     ACCESS:          0 HIT:          0 MISS:          0
cpu0_DTLB WRITE        ACCESS:          0 HIT:          0 MISS:          0
cpu0_DTLB TRANSLATION  ACCESS:          0 HIT:          0 MISS:          0
cpu0_DTLB PREFETCH REQUESTED:          0 ISSUED:          0 USEFUL:          0 USELESS:          0
cpu0_DTLB AVERAGE MISS LATENCY: 9.304 cycles
cpu0_DTLB TOTAL        ACCESS:          0 HIT:          0 MISS:          0
cpu0_DTLB LOAD         ACCESS:          0 HIT:          0 MISS:          0
cpu0_DTLB RFO          ACCESS:          0 HIT:          0 MISS:          0
cpu0_DTLB PREFETCH     ACCESS:          0 HIT:          0 MISS:          0
cpu0_DTLB WRITE        ACCESS:          0 HIT:          0 MISS:          0
cpu0_DTLB TRANSLATION  ACCESS:          0 HIT:          0 MISS:          0
cpu0_DTLB PREFETCH REQUESTED:          0 ISSUED:          0 USEFUL:          0 USELESS:          0
cpu0_DTLB AVERAGE MISS LATENCY: 9.304 cycles
cpu0_ITLB TOTAL        ACCESS:       8857 HIT:       8857 MISS:          0
cpu0_ITLB LOAD         ACCESS:       8857 HIT:       8857 MISS:          0
cpu0_ITLB RFO          ACCESS:          0 HIT:          0 MISS:          0
cpu0_ITLB PREFETCH     ACCESS:          0 HIT:          0 MISS:          0
cpu0_ITLB WRITE        ACCESS:          0 HIT:          0 MISS:          0
cpu0_ITLB TRANSLATION  ACCESS:          0 HIT:          0 MISS:          0
cpu0_ITLB PREFETCH REQUESTED:          0 ISSUED:          0 USEFUL:          0 USELESS:          0
cpu0_ITLB AVERAGE MISS LATENCY: -nan cycles
cpu0_ITLB TOTAL        ACCESS:          0 HIT:          0 MISS:          0
cpu0_ITLB LOAD         ACCESS:          0 HIT:          0 MISS:          0
cpu0_ITLB RFO          ACCESS:          0 HIT:          0 MISS:          0
cpu0_ITLB PREFETCH     ACCESS:          0 HIT:          0 MISS:          0
cpu0_ITLB WRITE        ACCESS:          0 HIT:          0 MISS:          0
cpu0_ITLB TRANSLATION  ACCESS:          0 HIT:          0 MISS:          0
cpu0_ITLB PREFETCH REQUESTED:          0 ISSUED:          0 USEFUL:          0 USELESS:          0
cpu0_ITLB AVERAGE MISS LATENCY: -nan cycles
cpu0_ITLB TOTAL        ACCESS:          0 HIT:          0 MISS:          0
cpu0_ITLB LOAD         ACCESS:          0 HIT:          0 MISS:          0
cpu0_ITLB RFO          ACCESS:          0 HIT:          0 MISS:          0
cpu0_ITLB PREFETCH     ACCESS:          0 HIT:          0 MISS:          0
cpu0_ITLB WRITE        ACCESS:          0 HIT:          0 MISS:          0
cpu0_ITLB TRANSLATION  ACCESS:          0 HIT:          0 MISS:          0
cpu0_ITLB PREFETCH REQUESTED:          0 ISSUED:          0 USEFUL:          0 USELESS:          0
cpu0_ITLB AVERAGE MISS LATENCY: -nan cycles
cpu0_ITLB TOTAL        ACCESS:          0 HIT:          0 MISS:          0
cpu0_ITLB LOAD         ACCESS:          0 HIT:          0 MISS:          0
cpu0_ITLB RFO          ACCESS:          0 HIT:          0 MISS:          0
cpu0_ITLB PREFETCH     ACCESS:          0 HIT:          0 MISS:          0
cpu0_ITLB WRITE        ACCESS:          0 HIT:          0 MISS:          0
cpu0_ITLB TRANSLATION  ACCESS:          0 HIT:          0 MISS:          0
cpu0_ITLB PREFETCH REQUESTED:          0 ISSUED:          0 USEFUL:          0 USELESS:          0
cpu0_ITLB AVERAGE MISS LATENCY: -nan cycles
cpu0_L1D TOTAL        ACCESS:  241143552 HIT:  236931359 MISS:    4212193
cpu0_L1D LOAD         ACCESS:  131214483 HIT:  127059435 MISS:    4155048
cpu0_L1D RFO          ACCESS:          0 HIT:          0 MISS:          0
cpu0_L1D PREFETCH     ACCESS:          0 HIT:          0 MISS:          0
cpu0_L1D WRITE        ACCESS:  109921456 HIT:  109871750 MISS:      49706
cpu0_L1D TRANSLATION  ACCESS:       7613 HIT:        174 MISS:       7439
cpu0_L1D PREFETCH REQUESTED:          0 ISSUED:          0 USEFUL:          0 USELESS:          0
cpu0_L1D AVERAGE MISS LATENCY: 13.13 cycles
cpu0_L1D TOTAL        ACCESS:          0 HIT:          0 MISS:          0
cpu0_L1D LOAD         ACCESS:          0 HIT:          0 MISS:          0
cpu0_L1D RFO          ACCESS:          0 HIT:          0 MISS:          0
cpu0_L1D PREFETCH     ACCESS:          0 HIT:          0 MISS:          0
cpu0_L1D WRITE        ACCESS:          0 HIT:          0 MISS:          0
cpu0_L1D TRANSLATION  ACCESS:          0 HIT:          0 MISS:          0
cpu0_L1D PREFETCH REQUESTED:          0 ISSUED:          0 USEFUL:          0 USELESS:          0
cpu0_L1D AVERAGE MISS LATENCY: 13.13 cycles
cpu0_L1D TOTAL        ACCESS:          0 HIT:          0 MISS:          0
cpu0_L1D LOAD         ACCESS:          0 HIT:          0 MISS:          0
cpu0_L1D RFO          ACCESS:          0 HIT:          0 MISS:          0
cpu0_L1D PREFETCH     ACCESS:          0 HIT:          0 MISS:          0
cpu0_L1D WRITE        ACCESS:          0 HIT:          0 MISS:          0
cpu0_L1D TRANSLATION  ACCESS:          0 HIT:          0 MISS:          0
cpu0_L1D PREFETCH REQUESTED:          0 ISSUED:          0 USEFUL:          0 USELESS:          0
cpu0_L1D AVERAGE MISS LATENCY: 13.13 cycles
cpu0_L1D TOTAL        ACCESS:          0 HIT:          0 MISS:          0
cpu0_L1D LOAD         ACCESS:          0 HIT:          0 MISS:          0
cpu0_L1D RFO          ACCESS:          0 HIT:          0 MISS:          0
cpu0_L1D PREFETCH     ACCESS:          0 HIT:          0 MISS:          0
cpu0_L1D WRITE        ACCESS:          0 HIT:          0 MISS:          0
cpu0_L1D TRANSLATION  ACCESS:          0 HIT:          0 MISS:          0
cpu0_L1D PREFETCH REQUESTED:          0 ISSUED:          0 USEFUL:          0 USELESS:          0
cpu0_L1D AVERAGE MISS LATENCY: 13.13 cycles
cpu0_L1I TOTAL        ACCESS:      10788 HIT:      10786 MISS:          2
cpu0_L1I LOAD         ACCESS:      10788 HIT:      10786 MISS:          2
cpu0_L1I RFO          ACCESS:          0 HIT:          0 MISS:          0
cpu0_L1I PREFETCH     ACCESS:          0 HIT:          0 MISS:          0
cpu0_L1I WRITE        ACCESS:          0 HIT:          0 MISS:          0
cpu0_L1I TRANSLATION  ACCESS:          0 HIT:          0 MISS:          0
cpu0_L1I PREFETCH REQUESTED:          0 ISSUED:          0 USEFUL:          0 USELESS:          0
cpu0_L1I AVERAGE MISS LATENCY: 197 cycles
cpu0_L1I TOTAL        ACCESS:          0 HIT:          0 MISS:          0
cpu0_L1I LOAD         ACCESS:          0 HIT:          0 MISS:          0
cpu0_L1I RFO          ACCESS:          0 HIT:          0 MISS:          0
cpu0_L1I PREFETCH     ACCESS:          0 HIT:          0 MISS:          0
cpu0_L1I WRITE        ACCESS:          0 HIT:          0 MISS:          0
cpu0_L1I TRANSLATION  ACCESS:          0 HIT:          0 MISS:          0
cpu0_L1I PREFETCH REQUESTED:          0 ISSUED:          0 USEFUL:          0 USELESS:          0
cpu0_L1I AVERAGE MISS LATENCY: 197 cycles
cpu0_L1I TOTAL        ACCESS:          0 HIT:          0 MISS:          0
cpu0_L1I LOAD         ACCESS:          0 HIT:          0 MISS:          0
cpu0_L1I RFO          ACCESS:          0 HIT:          0 MISS:          0
cpu0_L1I PREFETCH     ACCESS:          0 HIT:          0 MISS:          0
cpu0_L1I WRITE        ACCESS:          0 HIT:          0 MISS:          0
cpu0_L1I TRANSLATION  ACCESS:          0 HIT:          0 MISS:          0
cpu0_L1I PREFETCH REQUESTED:          0 ISSUED:          0 USEFUL:          0 USELESS:          0
cpu0_L1I AVERAGE MISS LATENCY: 197 cycles
cpu0_L1I TOTAL        ACCESS:          0 HIT:          0 MISS:          0
cpu0_L1I LOAD         ACCESS:          0 HIT:          0 MISS:          0
cpu0_L1I RFO          ACCESS:          0 HIT:          0 MISS:          0
cpu0_L1I PREFETCH     ACCESS:          0 HIT:          0 MISS:          0
cpu0_L1I WRITE        ACCESS:          0 HIT:          0 MISS:          0
cpu0_L1I TRANSLATION  ACCESS:          0 HIT:          0 MISS:          0
cpu0_L1I PREFETCH REQUESTED:          0 ISSUED:          0 USEFUL:          0 USELESS:          0
cpu0_L1I AVERAGE MISS LATENCY: 197 cycles
cpu0_L2C TOTAL        ACCESS:   14082663 HIT:   13485487 MISS:     597176
cpu0_L2C LOAD         ACCESS:    4144118 HIT:    4046898 MISS:      97220
cpu0_L2C RFO          ACCESS:      12916 HIT:      12489 MISS:        427
cpu0_L2C PREFETCH     ACCESS:    8486609 HIT:    7990018 MISS:     496591
cpu0_L2C WRITE        ACCESS:    1431581 HIT:    1431572 MISS:          9
cpu0_L2C TRANSLATION  ACCESS:       7439 HIT:       4510 MISS:       2929
cpu0_L2C PREFETCH REQUESTED:    8486612 ISSUED:    8486612 USEFUL:     104837 USELESS:       2936
cpu0_L2C AVERAGE MISS LATENCY: 42.99 cycles
cpu0_L2C TOTAL        ACCESS:          0 HIT:          0 MISS:          0
cpu0_L2C LOAD         ACCESS:          0 HIT:          0 MISS:          0
cpu0_L2C RFO          ACCESS:          0 HIT:          0 MISS:          0
cpu0_L2C PREFETCH     ACCESS:          0 HIT:          0 MISS:          0
cpu0_L2C WRITE        ACCESS:          0 HIT:          0 MISS:          0
cpu0_L2C TRANSLATION  ACCESS:          0 HIT:          0 MISS:          0
cpu0_L2C PREFETCH REQUESTED:    8486612 ISSUED:    8486612 USEFUL:     104837 USELESS:       2936
cpu0_L2C AVERAGE MISS LATENCY: 42.99 cycles
cpu0_L2C TOTAL        ACCESS:          0 HIT:          0 MISS:          0
cpu0_L2C LOAD         ACCESS:          0 HIT:          0 MISS:          0
cpu0_L2C RFO          ACCESS:          0 HIT:          0 MISS:          0
cpu0_L2C PREFETCH     ACCESS:          0 HIT:          0 MISS:          0
cpu0_L2C WRITE        ACCESS:          0 HIT:          0 MISS:          0
cpu0_L2C TRANSLATION  ACCESS:          0 HIT:          0 MISS:          0
cpu0_L2C PREFETCH REQUESTED:    8486612 ISSUED:    8486612 USEFUL:     104837 USELESS:       2936
cpu0_L2C AVERAGE MISS LATENCY: 42.99 cycles
cpu0_L2C TOTAL        ACCESS:          0 HIT:          0 MISS:          0
cpu0_L2C LOAD         ACCESS:          0 HIT:          0 MISS:          0
cpu0_L2C RFO          ACCESS:          0 HIT:          0 MISS:          0
cpu0_L2C PREFETCH     ACCESS:          0 HIT:          0 MISS:          0
cpu0_L2C WRITE        ACCESS:          0 HIT:          0 MISS:          0
cpu0_L2C TRANSLATION  ACCESS:          0 HIT:          0 MISS:          0
cpu0_L2C PREFETCH REQUESTED:    8486612 ISSUED:    8486612 USEFUL:     104837 USELESS:       2936
cpu0_L2C AVERAGE MISS LATENCY: 42.99 cycles
cpu0_STLB TOTAL        ACCESS:    1499817 HIT:    1492318 MISS:       7499
cpu0_STLB LOAD         ACCESS:    1499817 HIT:    1492318 MISS:       7499
cpu0_STLB RFO          ACCESS:          0 HIT:          0 MISS:          0
cpu0_STLB PREFETCH     ACCESS:          0 HIT:          0 MISS:          0
cpu0_STLB WRITE        ACCESS:          0 HIT:          0 MISS:          0
cpu0_STLB TRANSLATION  ACCESS:          0 HIT:          0 MISS:          0
cpu0_STLB PREFETCH REQUESTED:          0 ISSUED:          0 USEFUL:          0 USELESS:          0
cpu0_STLB AVERAGE MISS LATENCY: 398.2 cycles
cpu0_STLB TOTAL        ACCESS:          0 HIT:          0 MISS:          0
cpu0_STLB LOAD         ACCESS:          0 HIT:          0 MISS:          0
cpu0_STLB RFO          ACCESS:          0 HIT:          0 MISS:          0
cpu0_STLB PREFETCH     ACCESS:          0 HIT:          0 MISS:          0
cpu0_STLB WRITE        ACCESS:          0 HIT:          0 MISS:          0
cpu0_STLB TRANSLATION  ACCESS:          0 HIT:          0 MISS:          0
cpu0_STLB PREFETCH REQUESTED:          0 ISSUED:          0 USEFUL:          0 USELESS:          0
cpu0_STLB AVERAGE MISS LATENCY: 398.2 cycles
cpu0_STLB TOTAL        ACCESS:          0 HIT:          0 MISS:          0
cpu0_STLB LOAD         ACCESS:          0 HIT:          0 MISS:          0
cpu0_STLB RFO          ACCESS:          0 HIT:          0 MISS:          0
cpu0_STLB PREFETCH     ACCESS:          0 HIT:          0 MISS:          0
cpu0_STLB WRITE        ACCESS:          0 HIT:          0 MISS:          0
cpu0_STLB TRANSLATION  ACCESS:          0 HIT:          0 MISS:          0
cpu0_STLB PREFETCH REQUESTED:          0 ISSUED:          0 USEFUL:          0 USELESS:          0
cpu0_STLB AVERAGE MISS LATENCY: 398.2 cycles
cpu0_STLB TOTAL        ACCESS:          0 HIT:          0 MISS:          0
cpu0_STLB LOAD         ACCESS:          0 HIT:          0 MISS:          0
cpu0_STLB RFO          ACCESS:          0 HIT:          0 MISS:          0
cpu0_STLB PREFETCH     ACCESS:          0 HIT:          0 MISS:          0
cpu0_STLB WRITE        ACCESS:          0 HIT:          0 MISS:          0
cpu0_STLB TRANSLATION  ACCESS:          0 HIT:          0 MISS:          0
cpu0_STLB PREFETCH REQUESTED:          0 ISSUED:          0 USEFUL:          0 USELESS:          0
cpu0_STLB AVERAGE MISS LATENCY: 398.2 cycles
cpu1_DTLB TOTAL        ACCESS:          0 HIT:          0 MISS:          0
cpu1_DTLB LOAD         ACCESS:          0 HIT:          0 MISS:          0
cpu1_DTLB RFO          ACCESS:          0 HIT:          0 MISS:          0
cpu1_DTLB PREFETCH     ACCESS:          0 HIT:          0 MISS:          0
cpu1_DTLB WRITE        ACCESS:          0 HIT:          0 MISS:          0
cpu1_DTLB TRANSLATION  ACCESS:          0 HIT:          0 MISS:          0
cpu1_DTLB PREFETCH REQUESTED:          0 ISSUED:          0 USEFUL:          0 USELESS:          0
cpu1_DTLB AVERAGE MISS LATENCY: 77.48 cycles
cpu1_DTLB TOTAL        ACCESS:   38214462 HIT:   34925231 MISS:    3289231
cpu1_DTLB LOAD         ACCESS:   38214462 HIT:   34925231 MISS:    3289231
cpu1_DTLB RFO          ACCESS:          0 HIT:          0 MISS:          0
cpu1_DTLB PREFETCH     ACCESS:          0 HIT:          0 MISS:          0
cpu1_DTLB WRITE        ACCESS:          0 HIT:          0 MISS:          0
cpu1_DTLB TRANSLATION  ACCESS:          0 HIT:          0 MISS:          0
cpu1_DTLB PREFETCH REQUESTED:          0 ISSUED:          0 USEFUL:          0 USELESS:          0
cpu1_DTLB AVERAGE MISS LATENCY: 77.48 cycles
cpu1_DTLB TOTAL        ACCESS:          0 HIT:          0 MISS:          0
cpu1_DTLB LOAD         ACCESS:          0 HIT:          0 MISS:          0
cpu1_DTLB RFO          ACCESS:          0 HIT:          0 MISS:          0
cpu1_DTLB PREFETCH     ACCESS:          0 HIT:          0 MISS:          0
cpu1_DTLB WRITE        ACCESS:          0 HIT:          0 MISS:          0
cpu1_DTLB TRANSLATION  ACCESS:          0 HIT:          0 MISS:          0
cpu1_DTLB PREFETCH REQUESTED:          0 ISSUED:          0 USEFUL:          0 USELESS:          0
cpu1_DTLB AVERAGE MISS LATENCY: 77.48 cycles
cpu1_DTLB TOTAL        ACCESS:          0 HIT:          0 MISS:          0
cpu1_DTLB LOAD         ACCESS:          0 HIT:          0 MISS:          0
cpu1_DTLB RFO          ACCESS:          0 HIT:          0 MISS:          0
cpu1_DTLB PREFETCH     ACCESS:          0 HIT:          0 MISS:          0
cpu1_DTLB WRITE        ACCESS:          0 HIT:          0 MISS:          0
cpu1_DTLB TRANSLATION  ACCESS:          0 HIT:          0 MISS:          0
cpu1_DTLB PREFETCH REQUESTED:          0 ISSUED:          0 USEFUL:          0 USELESS:          0
cpu1_DTLB AVERAGE MISS LATENCY: 77.48 cycles
cpu1_ITLB TOTAL        ACCESS:          0 HIT:          0 MISS:          0
cpu1_ITLB LOAD         ACCESS:          0 HIT:          0 MISS:          0
cpu1_ITLB RFO          ACCESS:          0 HIT:          0 MISS:          0
cpu1_ITLB PREFETCH     ACCESS:          0 HIT:          0 MISS:          0
cpu1_ITLB WRITE        ACCESS:          0 HIT:          0 MISS:          0
cpu1_ITLB TRANSLATION  ACCESS:          0 HIT:          0 MISS:          0
cpu1_ITLB PREFETCH REQUESTED:          0 ISSUED:          0 USEFUL:          0 USELESS:          0
cpu1_ITLB AVERAGE MISS LATENCY: 7.08 cycles
cpu1_ITLB TOTAL        ACCESS:   10583230 HIT:   10307869 MISS:     275361
cpu1_ITLB LOAD         ACCESS:   10583230 HIT:   10307869 MISS:     275361
cpu1_ITLB RFO          ACCESS:          0 HIT:          0 MISS:          0
cpu1_ITLB PREFETCH     ACCESS:          0 HIT:          0 MISS:          0
cpu1_ITLB WRITE        ACCESS:          0 HIT:          0 MISS:          0
cpu1_ITLB TRANSLATION  ACCESS:          0 HIT:          0 MISS:          0
cpu1_ITLB PREFETCH REQUESTED:          0 ISSUED:          0 USEFUL:          0 USELESS:          0
cpu1_ITLB AVERAGE MISS LATENCY: 7.08 cycles
cpu1_ITLB TOTAL        ACCESS:          0 HIT:          0 MISS:          0
cpu1_ITLB LOAD         ACCESS:          0 HIT:          0 MISS:          0
cpu1_ITLB RFO          ACCESS:          0 HIT:          0 MISS:          0
cpu1_ITLB PREFETCH     ACCESS:          0 HIT:          0 MISS:          0
cpu1_ITLB WRITE        ACCESS:          0 HIT:          0 MISS:          0
cpu1_ITLB TRANSLATION  ACCESS:          0 HIT:          0 MISS:          0
cpu1_ITLB PREFETCH REQUESTED:          0 ISSUED:          0 USEFUL:          0 USELESS:          0
cpu1_ITLB AVERAGE MISS LATENCY: 7.08 cycles
cpu1_ITLB TOTAL        ACCESS:          0 HIT:          0 MISS:          0
cpu1_ITLB LOAD         ACCESS:          0 HIT:          0 MISS:          0
cpu1_ITLB RFO          ACCESS:          0 HIT:          0 MISS:          0
cpu1_ITLB PREFETCH     ACCESS:          0 HIT:          0 MISS:          0
cpu1_ITLB WRITE        ACCESS:          0 HIT:          0 MISS:          0
cpu1_ITLB TRANSLATION  ACCESS:          0 HIT:          0 MISS:          0
cpu1_ITLB PREFETCH REQUESTED:          0 ISSUED:          0 USEFUL:          0 USELESS:          0
cpu1_ITLB AVERAGE MISS LATENCY: 7.08 cycles
cpu1_L1D TOTAL        ACCESS:          0 HIT:          0 MISS:          0
cpu1_L1D LOAD         ACCESS:          0 HIT:          0 MISS:          0
cpu1_L1D RFO          ACCESS:          0 HIT:          0 MISS:          0
cpu1_L1D PREFETCH     ACCESS:          0 HIT:          0 MISS:          0
cpu1_L1D WRITE        ACCESS:          0 HIT:          0 MISS:          0
cpu1_L1D TRANSLATION  ACCESS:          0 HIT:          0 MISS:          0
cpu1_L1D PREFETCH REQUESTED:          0 ISSUED:          0 USEFUL:          0 USELESS:          0
cpu1_L1D AVERAGE MISS LATENCY: 170.8 cycles
cpu1_L1D TOTAL        ACCESS:   49668181 HIT:   44803157 MISS:    4865024
cpu1_L1D LOAD         ACCESS:   22845888 HIT:   19815090 MISS:    3030798
cpu1_L1D RFO          ACCESS:          0 HIT:          0 MISS:          0
cpu1_L1D PREFETCH     ACCESS:          0 HIT:          0 MISS:          0
cpu1_L1D WRITE        ACCESS:   25930975 HIT:   24842817 MISS:    1088158
cpu1_L1D TRANSLATION  ACCESS:     891318 HIT:     145250 MISS:     746068
cpu1_L1D PREFETCH REQUESTED:          0 ISSUED:          0 USEFUL:          0 USELESS:          0
cpu1_L1D AVERAGE MISS LATENCY: 170.8 cycles
cpu1_L1D TOTAL        ACCESS:          0 HIT:          0 MISS:          0
cpu1_L1D LOAD         ACCESS:          0 HIT:          0 MISS:          0
cpu1_L1D RFO          ACCESS:          0 HIT:          0 MISS:          0
cpu1_L1D PREFETCH     ACCESS:          0 HIT:          0 MISS:          0
cpu1_L1D WRITE        ACCESS:          0 HIT:          0 MISS:          0
cpu1_L1D TRANSLATION  ACCESS:          0 HIT:          0 MISS:          0
cpu1_L1D PREFETCH REQUESTED:          0 ISSUED:          0 USEFUL:          0 USELESS:          0
cpu1_L1D AVERAGE MISS LATENCY: 170.8 cycles
cpu1_L1D TOTAL        ACCESS:          0 HIT:          0 MISS:          0
cpu1_L1D LOAD         ACCESS:          0 HIT:          0 MISS:          0
cpu1_L1D RFO          ACCESS:          0 HIT:          0 MISS:          0
cpu1_L1D PREFETCH     ACCESS:          0 HIT:          0 MISS:          0
cpu1_L1D WRITE        ACCESS:          0 HIT:          0 MISS:          0
cpu1_L1D TRANSLATION  ACCESS:          0 HIT:          0 MISS:          0
cpu1_L1D PREFETCH REQUESTED:          0 ISSUED:          0 USEFUL:          0 USELESS:          0
cpu1_L1D AVERAGE MISS LATENCY: 170.8 cycles
cpu1_L1I TOTAL        ACCESS:          0 HIT:          0 MISS:          0
cpu1_L1I LOAD         ACCESS:          0 HIT:          0 MISS:          0
cpu1_L1I RFO          ACCESS:          0 HIT:          0 MISS:          0
cpu1_L1I PREFETCH     ACCESS:          0 HIT:          0 MISS:          0
cpu1_L1I WRITE        ACCESS:          0 HIT:          0 MISS:          0
cpu1_L1I TRANSLATION  ACCESS:          0 HIT:          0 MISS:          0
cpu1_L1I PREFETCH REQUESTED:          0 ISSUED:          0 USEFUL:          0 USELESS:          0
cpu1_L1I AVERAGE MISS LATENCY: 26.32 cycles
cpu1_L1I TOTAL        ACCESS:   12881915 HIT:   12808035 MISS:      73880
cpu1_L1I LOAD         ACCESS:   12881915 HIT:   12808035 MISS:      73880
cpu1_L1I RFO          ACCESS:          0 HIT:          0 MISS:          0
cpu1_L1I PREFETCH     ACCESS:          0 HIT:          0 MISS:          0
cpu1_L1I WRITE        ACCESS:          0 HIT:          0 MISS:          0
cpu1_L1I TRANSLATION  ACCESS:          0 HIT:          0 MISS:          0
cpu1_L1I PREFETCH REQUESTED:          0 ISSUED:          0 USEFUL:          0 USELESS:          0
cpu1_L1I AVERAGE MISS LATENCY: 26.32 cycles
cpu1_L1I TOTAL        ACCESS:          0 HIT:          0 MISS:          0
cpu1_L1I LOAD         ACCESS:          0 HIT:          0 MISS:          0
cpu1_L1I RFO          ACCESS:          0 HIT:          0 MISS:          0
cpu1_L1I PREFETCH     ACCESS:          0 HIT:          0 MISS:          0
cpu1_L1I WRITE        ACCESS:          0 HIT:          0 MISS:          0
cpu1_L1I TRANSLATION  ACCESS:          0 HIT:          0 MISS:          0
cpu1_L1I PREFETCH REQUESTED:          0 ISSUED:          0 USEFUL:          0 USELESS:          0
cpu1_L1I AVERAGE MISS LATENCY: 26.32 cycles
cpu1_L1I TOTAL        ACCESS:          0 HIT:          0 MISS:          0
cpu1_L1I LOAD         ACCESS:          0 HIT:          0 MISS:          0
cpu1_L1I RFO          ACCESS:          0 HIT:          0 MISS:          0
cpu1_L1I PREFETCH     ACCESS:          0 HIT:          0 MISS:          0
cpu1_L1I WRITE        ACCESS:          0 HIT:          0 MISS:          0
cpu1_L1I TRANSLATION  ACCESS:          0 HIT:          0 MISS:          0
cpu1_L1I PREFETCH REQUESTED:          0 ISSUED:          0 USEFUL:          0 USELESS:          0
cpu1_L1I AVERAGE MISS LATENCY: 26.32 cycles
cpu1_L2C TOTAL        ACCESS:          0 HIT:          0 MISS:          0
cpu1_L2C LOAD         ACCESS:          0 HIT:          0 MISS:          0
cpu1_L2C RFO          ACCESS:          0 HIT:          0 MISS:          0
cpu1_L2C PREFETCH     ACCESS:          0 HIT:          0 MISS:          0
cpu1_L2C WRITE        ACCESS:          0 HIT:          0 MISS:          0
cpu1_L2C TRANSLATION  ACCESS:          0 HIT:          0 MISS:          0
cpu1_L2C PREFETCH REQUESTED:    2688292 ISSUED:    2688292 USEFUL:      18827 USELESS:      32994
cpu1_L2C AVERAGE MISS LATENCY: 186.5 cycles
cpu1_L2C TOTAL        ACCESS:    7739248 HIT:    3284160 MISS:    4455088
cpu1_L2C LOAD         ACCESS:    2539875 HIT:     855693 MISS:    1684182
cpu1_L2C RFO          ACCESS:     364970 HIT:     108021 MISS:     256949
cpu1_L2C PREFETCH     ACCESS:    2688292 HIT:     772968 MISS:    1915324
cpu1_L2C WRITE        ACCESS:    1400925 HIT:    1398591 MISS:       2334
cpu1_L2C TRANSLATION  ACCESS:     745186 HIT:     148887 MISS:     596299
cpu1_L2C PREFETCH REQUESTED:    2688292 ISSUED:    2688292 USEFUL:      18827 USELESS:      32994
cpu1_L2C AVERAGE MISS LATENCY: 186.5 cycles
cpu1_L2C TOTAL        ACCESS:          0 HIT:          0 MISS:          0
cpu1_L2C LOAD         ACCESS:          0 HIT:          0 MISS:          0
cpu1_L2C RFO          ACCESS:          0 HIT:          0 MISS:          0
cpu1_L2C PREFETCH     ACCESS:          0 HIT:          0 MISS:          0
cpu1_L2C WRITE        ACCESS:          0 HIT:          0 MISS:          0
cpu1_L2C TRANSLATION  ACCESS:          0 HIT:          0 MISS:          0
cpu1_L2C PREFETCH REQUESTED:    2688292 ISSUED:    2688292 USEFUL:      18827 USELESS:      32994
cpu1_L2C AVERAGE MISS LATENCY: 186.5 cycles
cpu1_L2C TOTAL        ACCESS:          0 HIT:          0 MISS:          0
cpu1_L2C LOAD         ACCESS:          0 HIT:          0 MISS:          0
cpu1_L2C RFO          ACCESS:          0 HIT:          0 MISS:          0
cpu1_L2C PREFETCH     ACCESS:          0 HIT:          0 MISS:          0
cpu1_L2C WRITE        ACCESS:          0 HIT:          0 MISS:          0
cpu1_L2C TRANSLATION  ACCESS:          0 HIT:          0 MISS:          0
cpu1_L2C PREFETCH REQUESTED:    2688292 ISSUED:    2688292 USEFUL:      18827 USELESS:      32994
cpu1_L2C AVERAGE MISS LATENCY: 186.5 cycles
cpu1_STLB TOTAL        ACCESS:          0 HIT:          0 MISS:          0
cpu1_STLB LOAD         ACCESS:          0 HIT:          0 MISS:          0
cpu1_STLB RFO          ACCESS:          0 HIT:          0 MISS:          0
cpu1_STLB PREFETCH     ACCESS:          0 HIT:          0 MISS:          0
cpu1_STLB WRITE        ACCESS:          0 HIT:          0 MISS:          0
cpu1_STLB TRANSLATION  ACCESS:          0 HIT:          0 MISS:          0
cpu1_STLB PREFETCH REQUESTED:          0 ISSUED:          0 USEFUL:          0 USELESS:          0
cpu1_STLB AVERAGE MISS LATENCY: 374.8 cycles
cpu1_STLB TOTAL        ACCESS:    3015056 HIT:    2372641 MISS:     642415
cpu1_STLB LOAD         ACCESS:    3015056 HIT:    2372641 MISS:     642415
cpu1_STLB RFO          ACCESS:          0 HIT:          0 MISS:          0
cpu1_STLB PREFETCH     ACCESS:          0 HIT:          0 MISS:          0
cpu1_STLB WRITE        ACCESS:          0 HIT:          0 MISS:          0
cpu1_STLB TRANSLATION  ACCESS:          0 HIT:          0 MISS:          0
cpu1_STLB PREFETCH REQUESTED:          0 ISSUED:          0 USEFUL:          0 USELESS:          0
cpu1_STLB AVERAGE MISS LATENCY: 374.8 cycles
cpu1_STLB TOTAL        ACCESS:          0 HIT:          0 MISS:          0
cpu1_STLB LOAD         ACCESS:          0 HIT:          0 MISS:          0
cpu1_STLB RFO          ACCESS:          0 HIT:          0 MISS:          0
cpu1_STLB PREFETCH     ACCESS:          0 HIT:          0 MISS:          0
cpu1_STLB WRITE        ACCESS:          0 HIT:          0 MISS:          0
cpu1_STLB TRANSLATION  ACCESS:          0 HIT:          0 MISS:          0
cpu1_STLB PREFETCH REQUESTED:          0 ISSUED:          0 USEFUL:          0 USELESS:          0
cpu1_STLB AVERAGE MISS LATENCY: 374.8 cycles
cpu1_STLB TOTAL        ACCESS:          0 HIT:          0 MISS:          0
cpu1_STLB LOAD         ACCESS:          0 HIT:          0 MISS:          0
cpu1_STLB RFO          ACCESS:          0 HIT:          0 MISS:          0
cpu1_STLB PREFETCH     ACCESS:          0 HIT:          0 MISS:          0
cpu1_STLB WRITE        ACCESS:          0 HIT:          0 MISS:          0
cpu1_STLB TRANSLATION  ACCESS:          0 HIT:          0 MISS:          0
cpu1_STLB PREFETCH REQUESTED:          0 ISSUED:          0 USEFUL:          0 USELESS:          0
cpu1_STLB AVERAGE MISS LATENCY: 374.8 cycles
cpu2_DTLB TOTAL        ACCESS:          0 HIT:          0 MISS:          0
cpu2_DTLB LOAD         ACCESS:          0 HIT:          0 MISS:          0
cpu2_DTLB RFO          ACCESS:          0 HIT:          0 MISS:          0
cpu2_DTLB PREFETCH     ACCESS:          0 HIT:          0 MISS:          0
cpu2_DTLB WRITE        ACCESS:          0 HIT:          0 MISS:          0
cpu2_DTLB TRANSLATION  ACCESS:          0 HIT:          0 MISS:          0
cpu2_DTLB PREFETCH REQUESTED:          0 ISSUED:          0 USEFUL:          0 USELESS:          0
cpu2_DTLB AVERAGE MISS LATENCY: 20.64 cycles
cpu2_DTLB TOTAL        ACCESS:          0 HIT:          0 MISS:          0
cpu2_DTLB LOAD         ACCESS:          0 HIT:          0 MISS:          0
cpu2_DTLB RFO          ACCESS:          0 HIT:          0 MISS:          0
cpu2_DTLB PREFETCH     ACCESS:          0 HIT:          0 MISS:          0
cpu2_DTLB WRITE        ACCESS:          0 HIT:          0 MISS:          0
cpu2_DTLB TRANSLATION  ACCESS:          0 HIT:          0 MISS:          0
cpu2_DTLB PREFETCH REQUESTED:          0 ISSUED:          0 USEFUL:          0 USELESS:          0
cpu2_DTLB AVERAGE MISS LATENCY: 20.64 cycles
cpu2_DTLB TOTAL        ACCESS:   55811635 HIT:   55376026 MISS:     435609
cpu2_DTLB LOAD         ACCESS:   55811635 HIT:   55376026 MISS:     435609
cpu2_DTLB RFO          ACCESS:          0 HIT:          0 MISS:          0
cpu2_DTLB PREFETCH     ACCESS:          0 HIT:          0 MISS:          0
cpu2_DTLB WRITE        ACCESS:          0 HIT:          0 MISS:          0
cpu2_DTLB TRANSLATION  ACCESS:          0 HIT:          0 MISS:          0
cpu2_DTLB PREFETCH REQUESTED:          0 ISSUED:          0 USEFUL:          0 USELESS:          0
cpu2_DTLB AVERAGE MISS LATENCY: 20.64 cycles
cpu2_DTLB TOTAL        ACCESS:          0 HIT:          0 MISS:          0
cpu2_DTLB LOAD         ACCESS:          0 HIT:          0 MISS:          0
cpu2_DTLB RFO          ACCESS:          0 HIT:          0 MISS:          0
cpu2_DTLB PREFETCH     ACCESS:          0 HIT:          0 MISS:          0
cpu2_DTLB WRITE        ACCESS:          0 HIT:          0 MISS:          0
cpu2_DTLB TRANSLATION  ACCESS:          0 HIT:          0 MISS:          0
cpu2_DTLB PREFETCH REQUESTED:          0 ISSUED:          0 USEFUL:          0 USELESS:          0
cpu2_DTLB AVERAGE MISS LATENCY: 20.64 cycles
cpu2_ITLB TOTAL        ACCESS:          0 HIT:          0 MISS:          0
cpu2_ITLB LOAD         ACCESS:          0 HIT:          0 MISS:          0
cpu2_ITLB RFO          ACCESS:          0 HIT:          0 MISS:          0
cpu2_ITLB PREFETCH     ACCESS:          0 HIT:          0 MISS:          0
cpu2_ITLB WRITE        ACCESS:          0 HIT:          0 MISS:          0
cpu2_ITLB TRANSLATION  ACCESS:          0 HIT:          0 MISS:          0
cpu2_ITLB PREFETCH REQUESTED:          0 ISSUED:          0 USEFUL:          0 USELESS:          0
cpu2_ITLB AVERAGE MISS LATENCY: 271.3 cycles
cpu2_ITLB TOTAL        ACCESS:          0 HIT:          0 MISS:          0
cpu2_ITLB LOAD         ACCESS:          0 HIT:          0 MISS:          0
cpu2_ITLB RFO          ACCESS:          0 HIT:          0 MISS:          0
cpu2_ITLB PREFETCH     ACCESS:          0 HIT:          0 MISS:          0
cpu2_ITLB WRITE        ACCESS:          0 HIT:          0 MISS:          0
cpu2_ITLB TRANSLATION  ACCESS:          0 HIT:          0 MISS:          0
cpu2_ITLB PREFETCH REQUESTED:          0 ISSUED:          0 USEFUL:          0 USELESS:          0
cpu2_ITLB AVERAGE MISS LATENCY: 271.3 cycles
cpu2_ITLB TOTAL        ACCESS:       2830 HIT:       2809 MISS:         21
cpu2_ITLB LOAD         ACCESS:       2830 HIT:       2809 MISS:         21
cpu2_ITLB RFO          ACCESS:          0 HIT:          0 MISS:          0
cpu2_ITLB PREFETCH     ACCESS:          0 HIT:          0 MISS:          0
cpu2_ITLB WRITE        ACCESS:          0 HIT:          0 MISS:          0
cpu2_ITLB TRANSLATION  ACCESS:          0 HIT:          0 MISS:          0
cpu2_ITLB PREFETCH REQUESTED:          0 ISSUED:          0 USEFUL:          0 USELESS:          0
cpu2_ITLB AVERAGE MISS LATENCY: 271.3 cycles
cpu2_ITLB TOTAL        ACCESS:          0 HIT:          0 MISS:          0
cpu2_ITLB LOAD         ACCESS:          0 HIT:          0 MISS:          0
cpu2_ITLB RFO          ACCESS:          0 HIT:          0 MISS:          0
cpu2_ITLB PREFETCH     ACCESS:          0 HIT:          0 MISS:          0
cpu2_ITLB WRITE        ACCESS:          0 HIT:          0 MISS:          0
cpu2_ITLB TRANSLATION  ACCESS:          0 HIT:          0 MISS:          0
cpu2_ITLB PREFETCH REQUESTED:          0 ISSUED:          0 USEFUL:          0 USELESS:          0
cpu2_ITLB AVERAGE MISS LATENCY: 271.3 cycles
cpu2_L1D TOTAL        ACCESS:          0 HIT:          0 MISS:          0
cpu2_L1D LOAD         ACCESS:          0 HIT:          0 MISS:          0
cpu2_L1D RFO          ACCESS:          0 HIT:          0 MISS:          0
cpu2_L1D PREFETCH     ACCESS:          0 HIT:          0 MISS:          0
cpu2_L1D WRITE        ACCESS:          0 HIT:          0 MISS:          0
cpu2_L1D TRANSLATION  ACCESS:          0 HIT:          0 MISS:          0
cpu2_L1D PREFETCH REQUESTED:          0 ISSUED:          0 USEFUL:          0 USELESS:          0
cpu2_L1D AVERAGE MISS LATENCY: 73.23 cycles
cpu2_L1D TOTAL        ACCESS:          0 HIT:          0 MISS:          0
cpu2_L1D LOAD         ACCESS:          0 HIT:          0 MISS:          0
cpu2_L1D RFO          ACCESS:          0 HIT:          0 MISS:          0
cpu2_L1D PREFETCH     ACCESS:          0 HIT:          0 MISS:          0
cpu2_L1D WRITE        ACCESS:          0 HIT:          0 MISS:          0
cpu2_L1D TRANSLATION  ACCESS:          0 HIT:          0 MISS:          0
cpu2_L1D PREFETCH REQUESTED:          0 ISSUED:          0 USEFUL:          0 USELESS:          0
cpu2_L1D AVERAGE MISS LATENCY: 73.23 cycles
cpu2_L1D TOTAL        ACCESS:   81625162 HIT:   70302078 MISS:   11323084
cpu2_L1D LOAD         ACCESS:   46655047 HIT:   35372292 MISS:   11282755
cpu2_L1D RFO          ACCESS:          0 HIT:          0 MISS:          0
cpu2_L1D PREFETCH     ACCESS:          0 HIT:          0 MISS:          0
cpu2_L1D WRITE        ACCESS:   34902252 HIT:   34864618 MISS:      37634
cpu2_L1D TRANSLATION  ACCESS:      67863 HIT:      65168 MISS:       2695
cpu2_L1D PREFETCH REQUESTED:          0 ISSUED:          0 USEFUL:          0 USELESS:          0
cpu2_L1D AVERAGE MISS LATENCY: 73.23 cycles
cpu2_L1D TOTAL        ACCESS:          0 HIT:          0 MISS:          0
cpu2_L1D LOAD         ACCESS:          0 HIT:          0 MISS:          0
cpu2_L1D RFO          ACCESS:          0 HIT:          0 MISS:          0
cpu2_L1D PREFETCH     ACCESS:          0 HIT:          0 MISS:          0
cpu2_L1D WRITE        ACCESS:          0 HIT:          0 MISS:          0
cpu2_L1D TRANSLATION  ACCESS:          0 HIT:          0 MISS:          0
cpu2_L1D PREFETCH REQUESTED:          0 ISSUED:          0 USEFUL:          0 USELESS:          0
cpu2_L1D AVERAGE MISS LATENCY: 73.23 cycles
cpu2_L1I TOTAL        ACCESS:          0 HIT:          0 MISS:          0
cpu2_L1I LOAD         ACCESS:          0 HIT:          0 MISS:          0
cpu2_L1I RFO          ACCESS:          0 HIT:          0 MISS:          0
cpu2_L1I PREFETCH     ACCESS:          0 HIT:          0 MISS:          0
cpu2_L1I WRITE        ACCESS:          0 HIT:          0 MISS:          0
cpu2_L1I TRANSLATION  ACCESS:          0 HIT:          0 MISS:          0
cpu2_L1I PREFETCH REQUESTED:          0 ISSUED:          0 USEFUL:          0 USELESS:          0
cpu2_L1I AVERAGE MISS LATENCY: 197.2 cycles
cpu2_L1I TOTAL        ACCESS:          0 HIT:          0 MISS:          0
cpu2_L1I LOAD         ACCESS:          0 HIT:          0 MISS:          0
cpu2_L1I RFO          ACCESS:          0 HIT:          0 MISS:          0
cpu2_L1I PREFETCH     ACCESS:          0 HIT:          0 MISS:          0
cpu2_L1I WRITE        ACCESS:          0 HIT:          0 MISS:          0
cpu2_L1I TRANSLATION  ACCESS:          0 HIT:          0 MISS:          0
cpu2_L1I PREFETCH REQUESTED:          0 ISSUED:          0 USEFUL:          0 USELESS:          0
cpu2_L1I AVERAGE MISS LATENCY: 197.2 cycles
cpu2_L1I TOTAL        ACCESS:       3215 HIT:       2871 MISS:        344
cpu2_L1I LOAD         ACCESS:       3215 HIT:       2871 MISS:        344
cpu2_L1I RFO          ACCESS:          0 HIT:          0 MISS:          0
cpu2_L1I PREFETCH     ACCESS:          0 HIT:          0 MISS:          0
cpu2_L1I WRITE        ACCESS:          0 HIT:          0 MISS:          0
cpu2_L1I TRANSLATION  ACCESS:          0 HIT:          0 MISS:          0
cpu2_L1I PREFETCH REQUESTED:          0 ISSUED:          0 USEFUL:          0 USELESS:          0
cpu2_L1I AVERAGE MISS LATENCY: 197.2 cycles
cpu2_L1I TOTAL        ACCESS:          0 HIT:          0 MISS:          0
cpu2_L1I LOAD         ACCESS:          0 HIT:          0 MISS:          0
cpu2_L1I RFO          ACCESS:          0 HIT:          0 MISS:          0
cpu2_L1I PREFETCH     ACCESS:          0 HIT:          0 MISS:          0
cpu2_L1I WRITE        ACCESS:          0 HIT:          0 MISS:          0
cpu2_L1I TRANSLATION  ACCESS:          0 HIT:          0 MISS:          0
cpu2_L1I PREFETCH REQUESTED:          0 ISSUED:          0 USEFUL:          0 USELESS:          0
cpu2_L1I AVERAGE MISS LATENCY: 197.2 cycles
cpu2_L2C TOTAL        ACCESS:          0 HIT:          0 MISS:          0
cpu2_L2C LOAD         ACCESS:          0 HIT:          0 MISS:          0
cpu2_L2C RFO          ACCESS:          0 HIT:          0 MISS:          0
cpu2_L2C PREFETCH     ACCESS:          0 HIT:          0 MISS:          0
cpu2_L2C WRITE        ACCESS:          0 HIT:          0 MISS:          0
cpu2_L2C TRANSLATION  ACCESS:          0 HIT:          0 MISS:          0
cpu2_L2C PREFETCH REQUESTED:   14939867 ISSUED:   14939673 USEFUL:    2946480 USELESS:        113
cpu2_L2C AVERAGE MISS LATENCY: 65.16 cycles
cpu2_L2C TOTAL        ACCESS:          0 HIT:          0 MISS:          0
cpu2_L2C LOAD         ACCESS:          0 HIT:          0 MISS:          0
cpu2_L2C RFO          ACCESS:          0 HIT:          0 MISS:          0
cpu2_L2C PREFETCH     ACCESS:          0 HIT:          0 MISS:          0
cpu2_L2C WRITE        ACCESS:          0 HIT:          0 MISS:          0
cpu2_L2C TRANSLATION  ACCESS:          0 HIT:          0 MISS:          0
cpu2_L2C PREFETCH REQUESTED:   14939867 ISSUED:   14939673 USEFUL:    2946480 USELESS:        113
cpu2_L2C AVERAGE MISS LATENCY: 65.16 cycles
cpu2_L2C TOTAL        ACCESS:   25790427 HIT:   10606617 MISS:   15183810
cpu2_L2C LOAD         ACCESS:    6510542 HIT:    2332803 MISS:    4177739
cpu2_L2C RFO          ACCESS:       9560 HIT:       4880 MISS:       4680
cpu2_L2C PREFETCH     ACCESS:   14939673 HIT:    3939248 MISS:   11000425
cpu2_L2C WRITE        ACCESS:    4327974 HIT:    4327974 MISS:          0
cpu2_L2C TRANSLATION  ACCESS:       2678 HIT:       1712 MISS:        966
cpu2_L2C PREFETCH REQUESTED:   14939867 ISSUED:   14939673 USEFUL:    2946480 USELESS:        113
cpu2_L2C AVERAGE MISS LATENCY: 65.16 cycles
cpu2_L2C TOTAL        ACCESS:          0 HIT:          0 MISS:          0
cpu2_L2C LOAD         ACCESS:          0 HIT:          0 MISS:          0
cpu2_L2C RFO          ACCESS:          0 HIT:          0 MISS:          0
cpu2_L2C PREFETCH     ACCESS:          0 HIT:          0 MISS:          0
cpu2_L2C WRITE        ACCESS:          0 HIT:          0 MISS:          0
cpu2_L2C TRANSLATION  ACCESS:          0 HIT:          0 MISS:          0
cpu2_L2C PREFETCH REQUESTED:   14939867 ISSUED:   14939673 USEFUL:    2946480 USELESS:        113
cpu2_L2C AVERAGE MISS LATENCY: 65.16 cycles
cpu2_STLB TOTAL        ACCESS:          0 HIT:          0 MISS:          0
cpu2_STLB LOAD         ACCESS:          0 HIT:          0 MISS:          0
cpu2_STLB RFO          ACCESS:          0 HIT:          0 MISS:          0
cpu2_STLB PREFETCH     ACCESS:          0 HIT:          0 MISS:          0
cpu2_STLB WRITE        ACCESS:          0 HIT:          0 MISS:          0
cpu2_STLB TRANSLATION  ACCESS:          0 HIT:          0 MISS:          0
cpu2_STLB PREFETCH REQUESTED:          0 ISSUED:          0 USEFUL:          0 USELESS:          0
cpu2_STLB AVERAGE MISS LATENCY: 210.9 cycles
cpu2_STLB TOTAL        ACCESS:          0 HIT:          0 MISS:          0
cpu2_STLB LOAD         ACCESS:          0 HIT:          0 MISS:          0
cpu2_STLB RFO          ACCESS:          0 HIT:          0 MISS:          0
cpu2_STLB PREFETCH     ACCESS:          0 HIT:          0 MISS:          0
cpu2_STLB WRITE        ACCESS:          0 HIT:          0 MISS:          0
cpu2_STLB TRANSLATION  ACCESS:          0 HIT:          0 MISS:          0
cpu2_STLB PREFETCH REQUESTED:          0 ISSUED:          0 USEFUL:          0 USELESS:          0
cpu2_STLB AVERAGE MISS LATENCY: 210.9 cycles
cpu2_STLB TOTAL        ACCESS:     115291 HIT:      47680 MISS:      67611
cpu2_STLB LOAD         ACCESS:     115291 HIT:      47680 MISS:      67611
cpu2_STLB RFO          ACCESS:          0 HIT:          0 MISS:          0
cpu2_STLB PREFETCH     ACCESS:          0 HIT:          0 MISS:          0
cpu2_STLB WRITE        ACCESS:          0 HIT:          0 MISS:          0
cpu2_STLB TRANSLATION  ACCESS:          0 HIT:          0 MISS:          0
cpu2_STLB PREFETCH REQUESTED:          0 ISSUED:          0 USEFUL:          0 USELESS:          0
cpu2_STLB AVERAGE MISS LATENCY: 210.9 cycles
cpu2_STLB TOTAL        ACCESS:          0 HIT:          0 MISS:          0
cpu2_STLB LOAD         ACCESS:          0 HIT:          0 MISS:          0
cpu2_STLB RFO          ACCESS:          0 HIT:          0 MISS:          0
cpu2_STLB PREFETCH     ACCESS:          0 HIT:          0 MISS:          0
cpu2_STLB WRITE        ACCESS:          0 HIT:          0 MISS:          0
cpu2_STLB TRANSLATION  ACCESS:          0 HIT:          0 MISS:          0
cpu2_STLB PREFETCH REQUESTED:          0 ISSUED:          0 USEFUL:          0 USELESS:          0
cpu2_STLB AVERAGE MISS LATENCY: 210.9 cycles
cpu3_DTLB TOTAL        ACCESS:          0 HIT:          0 MISS:          0
cpu3_DTLB LOAD         ACCESS:          0 HIT:          0 MISS:          0
cpu3_DTLB RFO          ACCESS:          0 HIT:          0 MISS:          0
cpu3_DTLB PREFETCH     ACCESS:          0 HIT:          0 MISS:          0
cpu3_DTLB WRITE        ACCESS:          0 HIT:          0 MISS:          0
cpu3_DTLB TRANSLATION  ACCESS:          0 HIT:          0 MISS:          0
cpu3_DTLB PREFETCH REQUESTED:          0 ISSUED:          0 USEFUL:          0 USELESS:          0
cpu3_DTLB AVERAGE MISS LATENCY: 8.826 cycles
cpu3_DTLB TOTAL        ACCESS:          0 HIT:          0 MISS:          0
cpu3_DTLB LOAD         ACCESS:          0 HIT:          0 MISS:          0
cpu3_DTLB RFO          ACCESS:          0 HIT:          0 MISS:          0
cpu3_DTLB PREFETCH     ACCESS:          0 HIT:          0 MISS:          0
cpu3_DTLB WRITE        ACCESS:          0 HIT:          0 MISS:          0
cpu3_DTLB TRANSLATION  ACCESS:          0 HIT:          0 MISS:          0
[...]
cpu2_L1I PREFETCH REQUESTED:          0 ISSUED:          0 USEFUL:          0 USELESS:          0
cpu2_L1I AVERAGE MISS LATENCY: 197.2 cycles
cpu2_L1I TOTAL        ACCESS:          0 HIT:          0 MISS:          0
cpu2_L1I LOAD         ACCESS:          0 HIT:          0 MISS:          0
cpu2_L1I RFO          ACCESS:          0 HIT:          0 MISS:          0
cpu2_L1I PREFETCH     ACCESS:          0 HIT:          0 MISS:          0
cpu2_L1I WRITE        ACCESS:          0 HIT:          0 MISS:          0
cpu2_L1I TRANSLATION  ACCESS:          0 HIT:          0 MISS:          0
cpu2_L1I PREFETCH REQUESTED:          0 ISSUED:          0 USEFUL:          0 USELESS:          0
cpu2_L1I AVERAGE MISS LATENCY: 197.2 cycles
cpu2_L2C TOTAL        ACCESS:          0 HIT:          0 MISS:          0
cpu2_L2C LOAD         ACCESS:          0 HIT:          0 MISS:          0
cpu2_L2C RFO          ACCESS:          0 HIT:          0 MISS:          0
cpu2_L2C PREFETCH     ACCESS:          0 HIT:          0 MISS:          0
cpu2_L2C WRITE        ACCESS:          0 HIT:          0 MISS:          0
cpu2_L2C TRANSLATION  ACCESS:          0 HIT:          0 MISS:          0
cpu2_L2C PREFETCH REQUESTED:   14939867 ISSUED:   14939673 USEFUL:    2946480 USELESS:        113
cpu2_L2C AVERAGE MISS LATENCY: 65.16 cycles
cpu2_L2C TOTAL        ACCESS:          0 HIT:          0 MISS:          0
cpu2_L2C LOAD         ACCESS:          0 HIT:          0 MISS:          0
cpu2_L2C RFO          ACCESS:          0 HIT:          0 MISS:          0
cpu2_L2C PREFETCH     ACCESS:          0 HIT:          0 MISS:          0
cpu2_L2C WRITE        ACCESS:          0 HIT:          0 MISS:          0
cpu2_L2C TRANSLATION  ACCESS:          0 HIT:          0 MISS:          0
cpu2_L2C PREFETCH REQUESTED:   14939867 ISSUED:   14939673 USEFUL:    2946480 USELESS:        113
cpu2_L2C AVERAGE MISS LATENCY: 65.16 cycles
cpu2_L2C TOTAL        ACCESS:    7505107 HIT:    3129403 MISS:    4375704
cpu2_L2C LOAD         ACCESS:    1982755 HIT:     706079 MISS:    1276676
cpu2_L2C RFO          ACCESS:       2296 HIT:        901 MISS:       1395
cpu2_L2C PREFETCH     ACCESS:    4201515 HIT:    1104182 MISS:    3097333
cpu2_L2C WRITE        ACCESS:    1317732 HIT:    1317732 MISS:          0
cpu2_L2C TRANSLATION  ACCESS:        809 HIT:        509 MISS:        300
cpu2_L2C PREFETCH REQUESTED:   14939867 ISSUED:   14939673 USEFUL:    2946480 USELESS:        113
cpu2_L2C AVERAGE MISS LATENCY: 65.16 cycles
cpu2_L2C TOTAL        ACCESS:          0 HIT:          0 MISS:          0
cpu2_L2C LOAD         ACCESS:          0 HIT:          0 MISS:          0
cpu2_L2C RFO          ACCESS:          0 HIT:          0 MISS:          0
cpu2_L2C PREFETCH     ACCESS:          0 HIT:          0 MISS:          0
cpu2_L2C WRITE        ACCESS:          0 HIT:          0 MISS:          0
cpu2_L2C TRANSLATION  ACCESS:          0 HIT:          0 MISS:          0
cpu2_L2C PREFETCH REQUESTED:   14939867 ISSUED:   14939673 USEFUL:    2946480 USELESS:        113
cpu2_L2C AVERAGE MISS LATENCY: 65.16 cycles
cpu2_STLB TOTAL        ACCESS:          0 HIT:          0 MISS:          0
cpu2_STLB LOAD         ACCESS:          0 HIT:          0 MISS:          0
cpu2_STLB RFO          ACCESS:          0 HIT:          0 MISS:          0
cpu2_STLB PREFETCH     ACCESS:          0 HIT:          0 MISS:          0
cpu2_STLB WRITE        ACCESS:          0 HIT:          0 MISS:          0
cpu2_STLB TRANSLATION  ACCESS:          0 HIT:          0 MISS:          0
cpu2_STLB PREFETCH REQUESTED:          0 ISSUED:          0 USEFUL:          0 USELESS:          0
cpu2_STLB AVERAGE MISS LATENCY: 210.9 cycles
cpu2_STLB TOTAL        ACCESS:          0 HIT:          0 MISS:          0
cpu2_STLB LOAD         ACCESS:          0 HIT:          0 MISS:          0
cpu2_STLB RFO          ACCESS:          0 HIT:          0 MISS:          0
cpu2_STLB PREFETCH     ACCESS:          0 HIT:          0 MISS:          0
cpu2_STLB WRITE        ACCESS:          0 HIT:          0 MISS:          0
cpu2_STLB TRANSLATION  ACCESS:          0 HIT:          0 MISS:          0
cpu2_STLB PREFETCH REQUESTED:          0 ISSUED:          0 USEFUL:          0 USELESS:          0
cpu2_STLB AVERAGE MISS LATENCY: 210.9 cycles
cpu2_STLB TOTAL        ACCESS:      34962 HIT:      14377 MISS:      20585
cpu2_STLB LOAD         ACCESS:      34962 HIT:      14377 MISS:      20585
cpu2_STLB RFO          ACCESS:          0 HIT:          0 MISS:          0
cpu2_STLB PREFETCH     ACCESS:          0 HIT:          0 MISS:          0
cpu2_STLB WRITE        ACCESS:          0 HIT:          0 MISS:          0
cpu2_STLB TRANSLATION  ACCESS:          0 HIT:          0 MISS:          0
cpu2_STLB PREFETCH REQUESTED:          0 ISSUED:          0 USEFUL:          0 USELESS:          0
cpu2_STLB AVERAGE MISS LATENCY: 210.9 cycles
cpu2_STLB TOTAL        ACCESS:          0 HIT:          0 MISS:          0
cpu2_STLB LOAD         ACCESS:          0 HIT:          0 MISS:          0
cpu2_STLB RFO          ACCESS:          0 HIT:          0 MISS:          0
cpu2_STLB PREFETCH     ACCESS:          0 HIT:          0 MISS:          0
cpu2_STLB WRITE        ACCESS:          0 HIT:          0 MISS:          0
cpu2_STLB TRANSLATION  ACCESS:          0 HIT:          0 MISS:          0
cpu2_STLB PREFETCH REQUESTED:          0 ISSUED:          0 USEFUL:          0 USELESS:          0
cpu2_STLB AVERAGE MISS LATENCY: 210.9 cycles
cpu3_DTLB TOTAL        ACCESS:          0 HIT:          0 MISS:          0
cpu3_DTLB LOAD         ACCESS:          0 HIT:          0 MISS:          0
cpu3_DTLB RFO          ACCESS:          0 HIT:          0 MISS:          0
cpu3_DTLB PREFETCH     ACCESS:          0 HIT:          0 MISS:          0
cpu3_DTLB WRITE        ACCESS:          0 HIT:          0 MISS:          0
cpu3_DTLB TRANSLATION  ACCESS:          0 HIT:          0 MISS:          0
cpu3_DTLB PREFETCH REQUESTED:          0 ISSUED:          0 USEFUL:          0 USELESS:          0
cpu3_DTLB AVERAGE MISS LATENCY: 8.826 cycles
cpu3_DTLB TOTAL        ACCESS:          0 HIT:          0 MISS:          0
cpu3_DTLB LOAD         ACCESS:          0 HIT:          0 MISS:          0
cpu3_DTLB RFO          ACCESS:          0 HIT:          0 MISS:          0
cpu3_DTLB PREFETCH     ACCESS:          0 HIT:          0 MISS:          0
cpu3_DTLB WRITE        ACCESS:          0 HIT:          0 MISS:          0
cpu3_DTLB TRANSLATION  ACCESS:          0 HIT:          0 MISS:          0
cpu3_DTLB PREFETCH REQUESTED:          0 ISSUED:          0 USEFUL:          0 USELESS:          0
cpu3_DTLB AVERAGE MISS LATENCY: 8.826 cycles
cpu3_DTLB TOTAL        ACCESS:          0 HIT:          0 MISS:          0
cpu3_DTLB LOAD         ACCESS:          0 HIT:          0 MISS:          0
cpu3_DTLB RFO          ACCESS:          0 HIT:          0 MISS:          0
cpu3_DTLB PREFETCH     ACCESS:          0 HIT:          0 MISS:          0
cpu3_DTLB WRITE        ACCESS:          0 HIT:          0 MISS:          0
cpu3_DTLB TRANSLATION  ACCESS:          0 HIT:          0 MISS:          0
cpu3_DTLB PREFETCH REQUESTED:          0 ISSUED:          0 USEFUL:          0 USELESS:          0
cpu3_DTLB AVERAGE MISS LATENCY: 8.826 cycles
cpu3_DTLB TOTAL        ACCESS:   41298815 HIT:   38687843 MISS:    2610972
cpu3_DTLB LOAD         ACCESS:   41298815 HIT:   38687843 MISS:    2610972
cpu3_DTLB RFO          ACCESS:          0 HIT:          0 MISS:          0
cpu3_DTLB PREFETCH     ACCESS:          0 HIT:          0 MISS:          0
cpu3_DTLB WRITE        ACCESS:          0 HIT:          0 MISS:          0
cpu3_DTLB TRANSLATION  ACCESS:          0 HIT:          0 MISS:          0
cpu3_DTLB PREFETCH REQUESTED:          0 ISSUED:          0 USEFUL:          0 USELESS:          0
cpu3_DTLB AVERAGE MISS LATENCY: 8.826 cycles
cpu3_ITLB TOTAL        ACCESS:          0 HIT:          0 MISS:          0
cpu3_ITLB LOAD         ACCESS:          0 HIT:          0 MISS:          0
cpu3_ITLB RFO          ACCESS:          0 HIT:          0 MISS:          0
cpu3_ITLB PREFETCH     ACCESS:          0 HIT:          0 MISS:          0
cpu3_ITLB WRITE        ACCESS:          0 HIT:          0 MISS:          0
cpu3_ITLB TRANSLATION  ACCESS:          0 HIT:          0 MISS:          0
cpu3_ITLB PREFETCH REQUESTED:          0 ISSUED:          0 USEFUL:          0 USELESS:          0
cpu3_ITLB AVERAGE MISS LATENCY: -nan cycles
cpu3_ITLB TOTAL        ACCESS:          0 HIT:          0 MISS:          0
cpu3_ITLB LOAD         ACCESS:          0 HIT:          0 MISS:          0
cpu3_ITLB RFO          ACCESS:          0 HIT:          0 MISS:          0
cpu3_ITLB PREFETCH     ACCESS:          0 HIT:          0 MISS:          0
cpu3_ITLB WRITE        ACCESS:          0 HIT:          0 MISS:          0
cpu3_ITLB TRANSLATION  ACCESS:          0 HIT:          0 MISS:          0
cpu3_ITLB PREFETCH REQUESTED:          0 ISSUED:          0 USEFUL:          0 USELESS:          0
cpu3_ITLB AVERAGE MISS LATENCY: -nan cycles
cpu3_ITLB TOTAL        ACCESS:          0 HIT:          0 MISS:          0
cpu3_ITLB LOAD         ACCESS:          0 HIT:          0 MISS:          0
cpu3_ITLB RFO          ACCESS:          0 HIT:          0 MISS:          0
cpu3_ITLB PREFETCH     ACCESS:          0 HIT:          0 MISS:          0
cpu3_ITLB WRITE        ACCESS:          0 HIT:          0 MISS:          0
cpu3_ITLB TRANSLATION  ACCESS:          0 HIT:          0 MISS:          0
cpu3_ITLB PREFETCH REQUESTED:          0 ISSUED:          0 USEFUL:          0 USELESS:          0
cpu3_ITLB AVERAGE MISS LATENCY: -nan cycles
cpu3_ITLB TOTAL        ACCESS:      47832 HIT:      47832 MISS:          0
cpu3_ITLB LOAD         ACCESS:      47832 HIT:      47832 MISS:          0
cpu3_ITLB RFO          ACCESS:          0 HIT:          0 MISS:          0
cpu3_ITLB PREFETCH     ACCESS:          0 HIT:          0 MISS:          0
cpu3_ITLB WRITE        ACCESS:          0 HIT:          0 MISS:          0
cpu3_ITLB TRANSLATION  ACCESS:          0 HIT:          0 MISS:          0
cpu3_ITLB PREFETCH REQUESTED:          0 ISSUED:          0 USEFUL:          0 USELESS:          0
cpu3_ITLB AVERAGE MISS LATENCY: -nan cycles
cpu3_L1D TOTAL        ACCESS:          0 HIT:          0 MISS:          0
cpu3_L1D LOAD         ACCESS:          0 HIT:          0 MISS:          0
cpu3_L1D RFO          ACCESS:          0 HIT:          0 MISS:          0
cpu3_L1D PREFETCH     ACCESS:          0 HIT:          0 MISS:          0
cpu3_L1D WRITE        ACCESS:          0 HIT:          0 MISS:          0
cpu3_L1D TRANSLATION  ACCESS:          0 HIT:          0 MISS:          0
cpu3_L1D PREFETCH REQUESTED:          0 ISSUED:          0 USEFUL:          0 USELESS:          0
cpu3_L1D AVERAGE MISS LATENCY: 59.43 cycles
cpu3_L1D TOTAL        ACCESS:          0 HIT:          0 MISS:          0
cpu3_L1D LOAD         ACCESS:          0 HIT:          0 MISS:          0
cpu3_L1D RFO          ACCESS:          0 HIT:          0 MISS:          0
cpu3_L1D PREFETCH     ACCESS:          0 HIT:          0 MISS:          0
cpu3_L1D WRITE        ACCESS:          0 HIT:          0 MISS:          0
cpu3_L1D TRANSLATION  ACCESS:          0 HIT:          0 MISS:          0
cpu3_L1D PREFETCH REQUESTED:          0 ISSUED:          0 USEFUL:          0 USELESS:          0
cpu3_L1D AVERAGE MISS LATENCY: 59.43 cycles
cpu3_L1D TOTAL        ACCESS:          0 HIT:          0 MISS:          0
cpu3_L1D LOAD         ACCESS:          0 HIT:          0 MISS:          0
cpu3_L1D RFO          ACCESS:          0 HIT:          0 MISS:          0
cpu3_L1D PREFETCH     ACCESS:          0 HIT:          0 MISS:          0
cpu3_L1D WRITE        ACCESS:          0 HIT:          0 MISS:          0
cpu3_L1D TRANSLATION  ACCESS:          0 HIT:          0 MISS:          0
cpu3_L1D PREFETCH REQUESTED:          0 ISSUED:          0 USEFUL:          0 USELESS:          0
cpu3_L1D AVERAGE MISS LATENCY: 59.43 cycles
cpu3_L1D TOTAL        ACCESS:   52565049 HIT:   45396961 MISS:    7168088
cpu3_L1D LOAD         ACCESS:   34852635 HIT:   29268310 MISS:    5584325
cpu3_L1D RFO          ACCESS:          0 HIT:          0 MISS:          0
cpu3_L1D PREFETCH     ACCESS:          0 HIT:          0 MISS:          0
cpu3_L1D WRITE        ACCESS:   17680481 HIT:   16114046 MISS:    1566435
cpu3_L1D TRANSLATION  ACCESS:      31933 HIT:      14605 MISS:      17328
cpu3_L1D PREFETCH REQUESTED:          0 ISSUED:          0 USEFUL:          0 USELESS:          0
cpu3_L1D AVERAGE MISS LATENCY: 59.43 cycles
cpu3_L1I TOTAL        ACCESS:          0 HIT:          0 MISS:          0
cpu3_L1I LOAD         ACCESS:          0 HIT:          0 MISS:          0
cpu3_L1I RFO          ACCESS:          0 HIT:          0 MISS:          0
cpu3_L1I PREFETCH     ACCESS:          0 HIT:          0 MISS:          0
cpu3_L1I WRITE        ACCESS:          0 HIT:          0 MISS:          0
cpu3_L1I TRANSLATION  ACCESS:          0 HIT:          0 MISS:          0
cpu3_L1I PREFETCH REQUESTED:          0 ISSUED:          0 USEFUL:          0 USELESS:          0
cpu3_L1I AVERAGE MISS LATENCY: 333.5 cycles
cpu3_L1I TOTAL        ACCESS:          0 HIT:          0 MISS:          0
cpu3_L1I LOAD         ACCESS:          0 HIT:          0 MISS:          0
cpu3_L1I RFO          ACCESS:          0 HIT:          0 MISS:          0
cpu3_L1I PREFETCH     ACCESS:          0 HIT:          0 MISS:          0
cpu3_L1I WRITE        ACCESS:          0 HIT:          0 MISS:          0
cpu3_L1I TRANSLATION  ACCESS:          0 HIT:          0 MISS:          0
cpu3_L1I PREFETCH REQUESTED:          0 ISSUED:          0 USEFUL:          0 USELESS:          0
cpu3_L1I AVERAGE MISS LATENCY: 333.5 cycles
cpu3_L1I TOTAL        ACCESS:          0 HIT:          0 MISS:          0
cpu3_L1I LOAD         ACCESS:          0 HIT:          0 MISS:          0
cpu3_L1I RFO          ACCESS:          0 HIT:          0 MISS:          0
cpu3_L1I PREFETCH     ACCESS:          0 HIT:          0 MISS:          0
cpu3_L1I WRITE        ACCESS:          0 HIT:          0 MISS:          0
cpu3_L1I TRANSLATION  ACCESS:          0 HIT:          0 MISS:          0
cpu3_L1I PREFETCH REQUESTED:          0 ISSUED:          0 USEFUL:          0 USELESS:          0
cpu3_L1I AVERAGE MISS LATENCY: 333.5 cycles
cpu3_L1I TOTAL        ACCESS:      54241 HIT:      54239 MISS:          2
cpu3_L1I LOAD         ACCESS:      54241 HIT:      54239 MISS:          2
cpu3_L1I RFO          ACCESS:          0 HIT:          0 MISS:          0
cpu3_L1I PREFETCH     ACCESS:          0 HIT:          0 MISS:          0
cpu3_L1I WRITE        ACCESS:          0 HIT:          0 MISS:          0
cpu3_L1I TRANSLATION  ACCESS:          0 HIT:          0 MISS:          0
cpu3_L1I PREFETCH REQUESTED:          0 ISSUED:          0 USEFUL:          0 USELESS:          0
cpu3_L1I AVERAGE MISS LATENCY: 333.5 cycles
cpu3_L2C TOTAL        ACCESS:          0 HIT:          0 MISS:          0
cpu3_L2C LOAD         ACCESS:          0 HIT:          0 MISS:          0
cpu3_L2C RFO          ACCESS:          0 HIT:          0 MISS:          0
cpu3_L2C PREFETCH     ACCESS:          0 HIT:          0 MISS:          0
cpu3_L2C WRITE        ACCESS:          0 HIT:          0 MISS:          0
cpu3_L2C TRANSLATION  ACCESS:          0 HIT:          0 MISS:          0
cpu3_L2C PREFETCH REQUESTED:    6281559 ISSUED:    6281544 USEFUL:     554981 USELESS:      30342
cpu3_L2C AVERAGE MISS LATENCY: 57.66 cycles
cpu3_L2C TOTAL        ACCESS:          0 HIT:          0 MISS:          0
cpu3_L2C LOAD         ACCESS:          0 HIT:          0 MISS:          0
cpu3_L2C RFO          ACCESS:          0 HIT:          0 MISS:          0
cpu3_L2C PREFETCH     ACCESS:          0 HIT:          0 MISS:          0
cpu3_L2C WRITE        ACCESS:          0 HIT:          0 MISS:          0
cpu3_L2C TRANSLATION  ACCESS:          0 HIT:          0 MISS:          0
cpu3_L2C PREFETCH REQUESTED:    6281559 ISSUED:    6281544 USEFUL:     554981 USELESS:      30342
cpu3_L2C AVERAGE MISS LATENCY: 57.66 cycles
cpu3_L2C TOTAL        ACCESS:          0 HIT:          0 MISS:          0
cpu3_L2C LOAD         ACCESS:          0 HIT:          0 MISS:          0
cpu3_L2C RFO          ACCESS:          0 HIT:          0 MISS:          0
cpu3_L2C PREFETCH     ACCESS:          0 HIT:          0 MISS:          0
cpu3_L2C WRITE        ACCESS:          0 HIT:          0 MISS:          0
cpu3_L2C TRANSLATION  ACCESS:          0 HIT:          0 MISS:          0
cpu3_L2C PREFETCH REQUESTED:    6281559 ISSUED:    6281544 USEFUL:     554981 USELESS:      30342
cpu3_L2C AVERAGE MISS LATENCY: 57.66 cycles
cpu3_L2C TOTAL        ACCESS:   11971965 HIT:    4660547 MISS:    7311418
cpu3_L2C LOAD         ACCESS:    4638759 HIT:    1993579 MISS:    2645180
cpu3_L2C RFO          ACCESS:     572757 HIT:     341461 MISS:     231296
cpu3_L2C PREFETCH     ACCESS:    5958410 HIT:    1538211 MISS:    4420199
cpu3_L2C WRITE        ACCESS:     784713 HIT:     784265 MISS:        448
cpu3_L2C TRANSLATION  ACCESS:      17326 HIT:       3031 MISS:      14295
cpu3_L2C PREFETCH REQUESTED:    6281559 ISSUED:    6281544 USEFUL:     554981 USELESS:      30342
cpu3_L2C AVERAGE MISS LATENCY: 57.66 cycles
cpu3_STLB TOTAL        ACCESS:          0 HIT:          0 MISS:          0
cpu3_STLB LOAD         ACCESS:          0 HIT:          0 MISS:          0
cpu3_STLB RFO          ACCESS:          0 HIT:          0 MISS:          0
cpu3_STLB PREFETCH     ACCESS:          0 HIT:          0 MISS:          0
cpu3_STLB WRITE        ACCESS:          0 HIT:          0 MISS:          0
cpu3_STLB TRANSLATION  ACCESS:          0 HIT:          0 MISS:          0
cpu3_STLB PREFETCH REQUESTED:          0 ISSUED:          0 USEFUL:          0 USELESS:          0
cpu3_STLB AVERAGE MISS LATENCY: 209.2 cycles
cpu3_STLB TOTAL        ACCESS:          0 HIT:          0 MISS:          0
cpu3_STLB LOAD         ACCESS:          0 HIT:          0 MISS:          0
cpu3_STLB RFO          ACCESS:          0 HIT:          0 MISS:          0
cpu3_STLB PREFETCH     ACCESS:          0 HIT:          0 MISS:          0
cpu3_STLB WRITE        ACCESS:          0 HIT:          0 MISS:          0
cpu3_STLB TRANSLATION  ACCESS:          0 HIT:          0 MISS:          0
cpu3_STLB PREFETCH REQUESTED:          0 ISSUED:          0 USEFUL:          0 USELESS:          0
cpu3_STLB AVERAGE MISS LATENCY: 209.2 cycles
cpu3_STLB TOTAL        ACCESS:          0 HIT:          0 MISS:          0
cpu3_STLB LOAD         ACCESS:          0 HIT:          0 MISS:          0
cpu3_STLB RFO          ACCESS:          0 HIT:          0 MISS:          0
cpu3_STLB PREFETCH     ACCESS:          0 HIT:          0 MISS:          0
cpu3_STLB WRITE        ACCESS:          0 HIT:          0 MISS:          0
cpu3_STLB TRANSLATION  ACCESS:          0 HIT:          0 MISS:          0
cpu3_STLB PREFETCH REQUESTED:          0 ISSUED:          0 USEFUL:          0 USELESS:          0
cpu3_STLB AVERAGE MISS LATENCY: 209.2 cycles
cpu3_STLB TOTAL        ACCESS:    2239986 HIT:    2208294 MISS:      31692
cpu3_STLB LOAD         ACCESS:    2239986 HIT:    2208294 MISS:      31692
cpu3_STLB RFO          ACCESS:          0 HIT:          0 MISS:          0
cpu3_STLB PREFETCH     ACCESS:          0 HIT:          0 MISS:          0
cpu3_STLB WRITE        ACCESS:          0 HIT:          0 MISS:          0
cpu3_STLB TRANSLATION  ACCESS:          0 HIT:          0 MISS:          0
cpu3_STLB PREFETCH REQUESTED:          0 ISSUED:          0 USEFUL:          0 USELESS:          0
cpu3_STLB AVERAGE MISS LATENCY: 209.2 cycles

DRAM Statistics

Channel 0 RQ ROW_BUFFER_HIT:     667771
  ROW_BUFFER_MISS:    3634484
 AVG DBUS CONGESTED CYCLE: 3.965
WQ ROW_BUFFER_HIT: Channel 0 
  ROW_BUFFER_MISS:      66700
  FULL:    2448810

Channel 1 RQ ROW_BUFFER_HIT:     669964
  ROW_BUFFER_MISS:    3639971
 AVG DBUS CONGESTED CYCLE: 3.966
WQ ROW_BUFFER_HIT: Channel 1 
  ROW_BUFFER_MISS:      66031
  FULL:    2448965
