Original cmd-> /home/grads/r/rdas40/ECEN676/ChampSim/bin/multi_core/spp_2ch --warmup_instructions=50000000 --simulation_instructions=150000000  /home/grads/r/rdas40/dpc3_traces/620.omnetpp_s-874B.champsimtrace.xz /home/grads/r/rdas40/dpc3_traces/649.fotonik3d_s-1176B.champsimtrace.xz /home/grads/r/rdas40/dpc3_traces/623.xalancbmk_s-700B.champsimtrace.xz /home/grads/r/rdas40/dpc3_traces/621.wrf_s-575B.champsimtrace.xz
WARNING: physical memory size is smaller than virtual memory size.
WARNING: option --warmup_instructions is deprecated. Use --warmup-instructions instead.
WARNING: option --simulation_instructions is deprecated. Use --simulation-instructions instead.

*** ChampSim Multicore Out-of-Order Simulator ***
Warmup Instructions: 50000000
Simulation Instructions: 150000000
Number of CPUs: 4
Page size: 4096

Initialize SIGNATURE TABLE
ST_SET: 1
ST_WAY: 256
ST_TAG_BIT: 16
ST_TAG_MASK: ffff

Initialize PATTERN TABLE
PT_SET: 512
PT_WAY: 4
SIG_DELTA_BIT: 7
C_SIG_BIT: 4
C_DELTA_BIT: 4

Initialize PREFETCH FILTER
FILTER_SET: 1024
Initialize SIGNATURE TABLE
ST_SET: 1
ST_WAY: 256
ST_TAG_BIT: 16
ST_TAG_MASK: ffff

Initialize PATTERN TABLE
PT_SET: 512
PT_WAY: 4
SIG_DELTA_BIT: 7
C_SIG_BIT: 4
C_DELTA_BIT: 4

Initialize PREFETCH FILTER
FILTER_SET: 1024
Initialize SIGNATURE TABLE
ST_SET: 1
ST_WAY: 256
ST_TAG_BIT: 16
ST_TAG_MASK: ffff

Initialize PATTERN TABLE
PT_SET: 512
PT_WAY: 4
SIG_DELTA_BIT: 7
C_SIG_BIT: 4
C_DELTA_BIT: 4

Initialize PREFETCH FILTER
FILTER_SET: 1024
Initialize SIGNATURE TABLE
ST_SET: 1
ST_WAY: 256
ST_TAG_BIT: 16
ST_TAG_MASK: ffff

Initialize PATTERN TABLE
PT_SET: 512
PT_WAY: 4
SIG_DELTA_BIT: 7
C_SIG_BIT: 4
C_DELTA_BIT: 4

Initialize PREFETCH FILTER
FILTER_SET: 1024
Off-chip DRAM Size: 8 GiB Channels: 2 Width: 64-bit Data Race: 3200 MT/s
Heartbeat CPU 1 instructions: 10000000 cycles: 2500043 heartbeat IPC: 4 cumulative IPC: 4 (Simulation time: 00 hr 03 min 01 sec)
Heartbeat CPU 3 instructions: 10000001 cycles: 2502760 heartbeat IPC: 3.996 cumulative IPC: 3.996 (Simulation time: 00 hr 03 min 01 sec)
Heartbeat CPU 2 instructions: 10000003 cycles: 3064482 heartbeat IPC: 3.263 cumulative IPC: 3.263 (Simulation time: 00 hr 03 min 41 sec)
Heartbeat CPU 0 instructions: 10000002 cycles: 4174309 heartbeat IPC: 2.396 cumulative IPC: 2.396 (Simulation time: 00 hr 05 min 01 sec)
Heartbeat CPU 1 instructions: 20000000 cycles: 5000043 heartbeat IPC: 4 cumulative IPC: 4 (Simulation time: 00 hr 06 min 01 sec)
Heartbeat CPU 3 instructions: 20000000 cycles: 5005441 heartbeat IPC: 3.996 cumulative IPC: 3.996 (Simulation time: 00 hr 06 min 01 sec)
Heartbeat CPU 2 instructions: 20000002 cycles: 5749545 heartbeat IPC: 3.724 cumulative IPC: 3.479 (Simulation time: 00 hr 06 min 55 sec)
Heartbeat CPU 1 instructions: 30000000 cycles: 7500043 heartbeat IPC: 4 cumulative IPC: 4 (Simulation time: 00 hr 09 min 05 sec)
Heartbeat CPU 3 instructions: 30000003 cycles: 7507769 heartbeat IPC: 3.996 cumulative IPC: 3.996 (Simulation time: 00 hr 09 min 05 sec)
Heartbeat CPU 0 instructions: 20000004 cycles: 8346855 heartbeat IPC: 2.397 cumulative IPC: 2.396 (Simulation time: 00 hr 10 min 07 sec)
Heartbeat CPU 2 instructions: 30000000 cycles: 8968457 heartbeat IPC: 3.107 cumulative IPC: 3.345 (Simulation time: 00 hr 10 min 53 sec)
Heartbeat CPU 1 instructions: 40000000 cycles: 10000043 heartbeat IPC: 4 cumulative IPC: 4 (Simulation time: 00 hr 12 min 09 sec)
Heartbeat CPU 3 instructions: 40000000 cycles: 10010396 heartbeat IPC: 3.996 cumulative IPC: 3.996 (Simulation time: 00 hr 12 min 10 sec)
Heartbeat CPU 2 instructions: 40000004 cycles: 12222398 heartbeat IPC: 3.073 cumulative IPC: 3.273 (Simulation time: 00 hr 14 min 54 sec)
Heartbeat CPU 1 instructions: 50000000 cycles: 12500043 heartbeat IPC: 4 cumulative IPC: 4 (Simulation time: 00 hr 15 min 14 sec)
Warmup finished CPU 1 instructions: 50000000 cycles: 12500044 cumulative IPC: 4 (Simulation time: 00 hr 15 min 14 sec)
Heartbeat CPU 3 instructions: 50000002 cycles: 12513096 heartbeat IPC: 3.996 cumulative IPC: 3.996 (Simulation time: 00 hr 15 min 15 sec)
Warmup finished CPU 3 instructions: 50000002 cycles: 12513097 cumulative IPC: 3.996 (Simulation time: 00 hr 15 min 15 sec)
Heartbeat CPU 0 instructions: 30000001 cycles: 12521771 heartbeat IPC: 2.395 cumulative IPC: 2.396 (Simulation time: 00 hr 15 min 16 sec)
Heartbeat CPU 1 instructions: 60000000 cycles: 15000043 heartbeat IPC: 4 cumulative IPC: 4 (Simulation time: 00 hr 18 min 18 sec)
Heartbeat CPU 3 instructions: 60000002 cycles: 15015712 heartbeat IPC: 3.996 cumulative IPC: 3.996 (Simulation time: 00 hr 18 min 19 sec)
Heartbeat CPU 2 instructions: 50000002 cycles: 15376231 heartbeat IPC: 3.171 cumulative IPC: 3.252 (Simulation time: 00 hr 18 min 45 sec)
Warmup finished CPU 2 instructions: 50000002 cycles: 15376232 cumulative IPC: 3.252 (Simulation time: 00 hr 18 min 45 sec)
Heartbeat CPU 0 instructions: 40000000 cycles: 16709533 heartbeat IPC: 2.388 cumulative IPC: 2.394 (Simulation time: 00 hr 20 min 22 sec)
Heartbeat CPU 1 instructions: 70000000 cycles: 17500043 heartbeat IPC: 4 cumulative IPC: 4 (Simulation time: 00 hr 21 min 19 sec)
Heartbeat CPU 3 instructions: 70000003 cycles: 17520511 heartbeat IPC: 3.992 cumulative IPC: 3.995 (Simulation time: 00 hr 21 min 21 sec)
Heartbeat CPU 2 instructions: 60000003 cycles: 18084861 heartbeat IPC: 3.692 cumulative IPC: 3.318 (Simulation time: 00 hr 22 min 02 sec)
Heartbeat CPU 1 instructions: 80000000 cycles: 20000043 heartbeat IPC: 4 cumulative IPC: 4 (Simulation time: 00 hr 24 min 24 sec)
Heartbeat CPU 3 instructions: 80000002 cycles: 20022746 heartbeat IPC: 3.996 cumulative IPC: 3.995 (Simulation time: 00 hr 24 min 26 sec)
Heartbeat CPU 2 instructions: 70000000 cycles: 20812125 heartbeat IPC: 3.667 cumulative IPC: 3.363 (Simulation time: 00 hr 25 min 24 sec)
Heartbeat CPU 0 instructions: 50000003 cycles: 20875598 heartbeat IPC: 2.4 cumulative IPC: 2.395 (Simulation time: 00 hr 25 min 29 sec)
Warmup finished CPU 0 instructions: 50000003 cycles: 20875599 cumulative IPC: 2.395 (Simulation time: 00 hr 25 min 29 sec)
Warmup complete CPU 0 instructions: 50000003 cycles: 20875599 cumulative IPC: 2.395 (Simulation time: 00 hr 25 min 29 sec)
Warmup complete CPU 1 instructions: 83502220 cycles: 20875599 cumulative IPC: 4 (Simulation time: 00 hr 25 min 29 sec)
Warmup complete CPU 2 instructions: 70218058 cycles: 20875599 cumulative IPC: 3.364 (Simulation time: 00 hr 25 min 29 sec)
Warmup complete CPU 3 instructions: 83411410 cycles: 20875599 cumulative IPC: 3.996 (Simulation time: 00 hr 25 min 29 sec)
Heartbeat CPU 3 instructions: 90000004 cycles: 23968625 heartbeat IPC: 2.534 cumulative IPC: 2.13 (Simulation time: 00 hr 27 min 51 sec)
Heartbeat CPU 1 instructions: 90000003 cycles: 26241922 heartbeat IPC: 1.602 cumulative IPC: 1.211 (Simulation time: 00 hr 29 min 42 sec)
Heartbeat CPU 3 instructions: 100000000 cycles: 28685625 heartbeat IPC: 2.12 cumulative IPC: 2.124 (Simulation time: 00 hr 31 min 37 sec)
Heartbeat CPU 2 instructions: 80000001 cycles: 29005621 heartbeat IPC: 1.22 cumulative IPC: 1.203 (Simulation time: 00 hr 31 min 52 sec)
Heartbeat CPU 3 instructions: 110000001 cycles: 33370212 heartbeat IPC: 2.135 cumulative IPC: 2.128 (Simulation time: 00 hr 35 min 27 sec)
Heartbeat CPU 1 instructions: 100000002 cycles: 34301883 heartbeat IPC: 1.241 cumulative IPC: 1.229 (Simulation time: 00 hr 36 min 10 sec)
Heartbeat CPU 2 instructions: 90000001 cycles: 35598205 heartbeat IPC: 1.517 cumulative IPC: 1.344 (Simulation time: 00 hr 37 min 17 sec)
Heartbeat CPU 3 instructions: 120000000 cycles: 37992280 heartbeat IPC: 2.164 cumulative IPC: 2.138 (Simulation time: 00 hr 39 min 05 sec)
Heartbeat CPU 1 instructions: 110000004 cycles: 42359693 heartbeat IPC: 1.241 cumulative IPC: 1.233 (Simulation time: 00 hr 42 min 35 sec)
Heartbeat CPU 3 instructions: 130000002 cycles: 42637953 heartbeat IPC: 2.153 cumulative IPC: 2.141 (Simulation time: 00 hr 42 min 49 sec)
Heartbeat CPU 2 instructions: 100000002 cycles: 43578862 heartbeat IPC: 1.253 cumulative IPC: 1.312 (Simulation time: 00 hr 43 min 33 sec)
Heartbeat CPU 0 instructions: 60000003 cycles: 46482124 heartbeat IPC: 0.3905 cumulative IPC: 0.3905 (Simulation time: 00 hr 45 min 53 sec)
Heartbeat CPU 3 instructions: 140000000 cycles: 47311549 heartbeat IPC: 2.14 cumulative IPC: 2.141 (Simulation time: 00 hr 46 min 32 sec)
Heartbeat CPU 2 instructions: 110000004 cycles: 50406859 heartbeat IPC: 1.465 cumulative IPC: 1.347 (Simulation time: 00 hr 49 min 00 sec)
Heartbeat CPU 1 instructions: 120000003 cycles: 51599278 heartbeat IPC: 1.082 cumulative IPC: 1.188 (Simulation time: 00 hr 49 min 57 sec)
Heartbeat CPU 3 instructions: 150000004 cycles: 51914693 heartbeat IPC: 2.172 cumulative IPC: 2.145 (Simulation time: 00 hr 50 min 12 sec)
Heartbeat CPU 3 instructions: 160000003 cycles: 56519514 heartbeat IPC: 2.172 cumulative IPC: 2.149 (Simulation time: 00 hr 53 min 53 sec)
Heartbeat CPU 2 instructions: 120000000 cycles: 57044192 heartbeat IPC: 1.507 cumulative IPC: 1.376 (Simulation time: 00 hr 54 min 18 sec)
Heartbeat CPU 1 instructions: 130000001 cycles: 60707785 heartbeat IPC: 1.098 cumulative IPC: 1.167 (Simulation time: 00 hr 57 min 18 sec)
Heartbeat CPU 3 instructions: 170000003 cycles: 61111505 heartbeat IPC: 2.178 cumulative IPC: 2.152 (Simulation time: 00 hr 57 min 39 sec)
Heartbeat CPU 2 instructions: 130000001 cycles: 62729771 heartbeat IPC: 1.759 cumulative IPC: 1.428 (Simulation time: 00 hr 59 min 03 sec)
Heartbeat CPU 3 instructions: 180000004 cycles: 65717272 heartbeat IPC: 2.171 cumulative IPC: 2.154 (Simulation time: 01 hr 01 min 35 sec)
Heartbeat CPU 1 instructions: 140000000 cycles: 68428388 heartbeat IPC: 1.295 cumulative IPC: 1.188 (Simulation time: 01 hr 03 min 51 sec)
Heartbeat CPU 2 instructions: 140000000 cycles: 68836287 heartbeat IPC: 1.638 cumulative IPC: 1.455 (Simulation time: 01 hr 04 min 11 sec)
Heartbeat CPU 3 instructions: 190000002 cycles: 70323836 heartbeat IPC: 2.171 cumulative IPC: 2.156 (Simulation time: 01 hr 05 min 17 sec)
Heartbeat CPU 0 instructions: 70000002 cycles: 73357865 heartbeat IPC: 0.3721 cumulative IPC: 0.3811 (Simulation time: 01 hr 07 min 35 sec)
Heartbeat CPU 3 instructions: 200000000 cycles: 74941661 heartbeat IPC: 2.166 cumulative IPC: 2.156 (Simulation time: 01 hr 08 min 53 sec)
Heartbeat CPU 1 instructions: 150000000 cycles: 76778549 heartbeat IPC: 1.198 cumulative IPC: 1.19 (Simulation time: 01 hr 10 min 23 sec)
Heartbeat CPU 2 instructions: 150000004 cycles: 77214862 heartbeat IPC: 1.194 cumulative IPC: 1.416 (Simulation time: 01 hr 10 min 44 sec)
Heartbeat CPU 3 instructions: 210000000 cycles: 79516418 heartbeat IPC: 2.186 cumulative IPC: 2.159 (Simulation time: 01 hr 12 min 37 sec)
Heartbeat CPU 3 instructions: 220000000 cycles: 84084339 heartbeat IPC: 2.189 cumulative IPC: 2.161 (Simulation time: 01 hr 16 min 14 sec)
Heartbeat CPU 2 instructions: 160000002 cycles: 84788778 heartbeat IPC: 1.32 cumulative IPC: 1.405 (Simulation time: 01 hr 16 min 46 sec)
Heartbeat CPU 1 instructions: 160000004 cycles: 85173149 heartbeat IPC: 1.191 cumulative IPC: 1.19 (Simulation time: 01 hr 17 min 04 sec)
Heartbeat CPU 3 instructions: 230000001 cycles: 88670456 heartbeat IPC: 2.18 cumulative IPC: 2.162 (Simulation time: 01 hr 19 min 54 sec)
Simulation finished CPU 3 instructions: 150000003 cycles: 69381289 cumulative IPC: 2.162 (Simulation time: 01 hr 21 min 12 sec)
Heartbeat CPU 2 instructions: 170000004 cycles: 91924974 heartbeat IPC: 1.401 cumulative IPC: 1.404 (Simulation time: 01 hr 22 min 27 sec)
Heartbeat CPU 3 instructions: 240000000 cycles: 93282414 heartbeat IPC: 2.168 cumulative IPC: 2.163 (Simulation time: 01 hr 23 min 32 sec)
Heartbeat CPU 1 instructions: 170000004 cycles: 93635719 heartbeat IPC: 1.182 cumulative IPC: 1.189 (Simulation time: 01 hr 23 min 49 sec)
Heartbeat CPU 3 instructions: 250000002 cycles: 97898950 heartbeat IPC: 2.166 cumulative IPC: 2.163 (Simulation time: 01 hr 27 min 16 sec)
Heartbeat CPU 2 instructions: 180000002 cycles: 98837169 heartbeat IPC: 1.447 cumulative IPC: 1.408 (Simulation time: 01 hr 28 min 01 sec)
Heartbeat CPU 0 instructions: 80000002 cycles: 100423738 heartbeat IPC: 0.3695 cumulative IPC: 0.3771 (Simulation time: 01 hr 29 min 18 sec)
Heartbeat CPU 1 instructions: 180000004 cycles: 101467796 heartbeat IPC: 1.277 cumulative IPC: 1.197 (Simulation time: 01 hr 30 min 08 sec)
Heartbeat CPU 3 instructions: 260000000 cycles: 102547779 heartbeat IPC: 2.151 cumulative IPC: 2.162 (Simulation time: 01 hr 30 min 59 sec)
Heartbeat CPU 2 instructions: 190000000 cycles: 105524197 heartbeat IPC: 1.495 cumulative IPC: 1.415 (Simulation time: 01 hr 33 min 23 sec)
Heartbeat CPU 3 instructions: 270000000 cycles: 107171180 heartbeat IPC: 2.163 cumulative IPC: 2.162 (Simulation time: 01 hr 34 min 42 sec)
Heartbeat CPU 1 instructions: 190000003 cycles: 110922620 heartbeat IPC: 1.058 cumulative IPC: 1.183 (Simulation time: 01 hr 37 min 44 sec)
Heartbeat CPU 2 instructions: 200000002 cycles: 111598909 heartbeat IPC: 1.646 cumulative IPC: 1.431 (Simulation time: 01 hr 38 min 20 sec)
Heartbeat CPU 3 instructions: 280000001 cycles: 111801377 heartbeat IPC: 2.16 cumulative IPC: 2.162 (Simulation time: 01 hr 38 min 31 sec)
Heartbeat CPU 3 instructions: 290000004 cycles: 116450547 heartbeat IPC: 2.151 cumulative IPC: 2.162 (Simulation time: 01 hr 42 min 31 sec)
Heartbeat CPU 2 instructions: 210000001 cycles: 117086392 heartbeat IPC: 1.822 cumulative IPC: 1.453 (Simulation time: 01 hr 43 min 03 sec)
Heartbeat CPU 1 instructions: 200000003 cycles: 118545205 heartbeat IPC: 1.312 cumulative IPC: 1.193 (Simulation time: 01 hr 44 min 17 sec)
Heartbeat CPU 3 instructions: 300000000 cycles: 121061005 heartbeat IPC: 2.169 cumulative IPC: 2.162 (Simulation time: 01 hr 46 min 17 sec)
Heartbeat CPU 2 instructions: 220000000 cycles: 125336140 heartbeat IPC: 1.212 cumulative IPC: 1.434 (Simulation time: 01 hr 49 min 34 sec)
Simulation finished CPU 2 instructions: 150000003 cycles: 104621036 cumulative IPC: 1.434 (Simulation time: 01 hr 49 min 41 sec)
Heartbeat CPU 3 instructions: 310000001 cycles: 125671685 heartbeat IPC: 2.169 cumulative IPC: 2.162 (Simulation time: 01 hr 49 min 50 sec)
Heartbeat CPU 0 instructions: 90000001 cycles: 126745844 heartbeat IPC: 0.3799 cumulative IPC: 0.3778 (Simulation time: 01 hr 50 min 40 sec)
Heartbeat CPU 1 instructions: 210000000 cycles: 127007921 heartbeat IPC: 1.182 cumulative IPC: 1.192 (Simulation time: 01 hr 50 min 52 sec)
Heartbeat CPU 3 instructions: 320000001 cycles: 130286256 heartbeat IPC: 2.167 cumulative IPC: 2.162 (Simulation time: 01 hr 53 min 28 sec)
Heartbeat CPU 2 instructions: 230000000 cycles: 132307597 heartbeat IPC: 1.434 cumulative IPC: 1.434 (Simulation time: 01 hr 55 min 03 sec)
Heartbeat CPU 3 instructions: 330000001 cycles: 134896047 heartbeat IPC: 2.169 cumulative IPC: 2.163 (Simulation time: 01 hr 57 min 07 sec)
Heartbeat CPU 1 instructions: 220000004 cycles: 137515355 heartbeat IPC: 0.9517 cumulative IPC: 1.17 (Simulation time: 01 hr 59 min 06 sec)
Heartbeat CPU 2 instructions: 240000001 cycles: 139161290 heartbeat IPC: 1.459 cumulative IPC: 1.435 (Simulation time: 02 hr 00 min 26 sec)
Heartbeat CPU 3 instructions: 340000000 cycles: 140686790 heartbeat IPC: 1.727 cumulative IPC: 2.142 (Simulation time: 02 hr 01 min 41 sec)
Heartbeat CPU 2 instructions: 250000001 cycles: 145740711 heartbeat IPC: 1.52 cumulative IPC: 1.44 (Simulation time: 02 hr 05 min 49 sec)
Heartbeat CPU 3 instructions: 350000000 cycles: 145968654 heartbeat IPC: 1.893 cumulative IPC: 2.131 (Simulation time: 02 hr 06 min 00 sec)
Heartbeat CPU 1 instructions: 230000004 cycles: 146362972 heartbeat IPC: 1.13 cumulative IPC: 1.167 (Simulation time: 02 hr 06 min 20 sec)
Simulation finished CPU 1 instructions: 150000000 cycles: 128451569 cumulative IPC: 1.168 (Simulation time: 02 hr 08 min 46 sec)
Heartbeat CPU 3 instructions: 360000002 cycles: 151090641 heartbeat IPC: 1.952 cumulative IPC: 2.124 (Simulation time: 02 hr 10 min 13 sec)
Heartbeat CPU 2 instructions: 260000000 cycles: 152238478 heartbeat IPC: 1.539 cumulative IPC: 1.445 (Simulation time: 02 hr 11 min 12 sec)
Heartbeat CPU 1 instructions: 240000000 cycles: 154484737 heartbeat IPC: 1.231 cumulative IPC: 1.171 (Simulation time: 02 hr 13 min 05 sec)
Heartbeat CPU 3 instructions: 370000000 cycles: 156187232 heartbeat IPC: 1.962 cumulative IPC: 2.118 (Simulation time: 02 hr 14 min 35 sec)
Heartbeat CPU 0 instructions: 100000000 cycles: 157281747 heartbeat IPC: 0.3275 cumulative IPC: 0.3666 (Simulation time: 02 hr 15 min 34 sec)
Heartbeat CPU 2 instructions: 270000000 cycles: 157701445 heartbeat IPC: 1.831 cumulative IPC: 1.46 (Simulation time: 02 hr 15 min 56 sec)
Heartbeat CPU 3 instructions: 380000002 cycles: 161323145 heartbeat IPC: 1.947 cumulative IPC: 2.112 (Simulation time: 02 hr 19 min 06 sec)
Heartbeat CPU 1 instructions: 250000000 cycles: 162834082 heartbeat IPC: 1.198 cumulative IPC: 1.173 (Simulation time: 02 hr 20 min 24 sec)
Heartbeat CPU 2 instructions: 280000000 cycles: 163007899 heartbeat IPC: 1.884 cumulative IPC: 1.476 (Simulation time: 02 hr 20 min 33 sec)
Heartbeat CPU 2 instructions: 290000003 cycles: 172185601 heartbeat IPC: 1.09 cumulative IPC: 1.453 (Simulation time: 02 hr 26 min 44 sec)
Heartbeat CPU 3 instructions: 390000001 cycles: 173051077 heartbeat IPC: 0.8527 cumulative IPC: 2.015 (Simulation time: 02 hr 27 min 25 sec)
Heartbeat CPU 3 instructions: 400000003 cycles: 177443704 heartbeat IPC: 2.277 cumulative IPC: 2.022 (Simulation time: 02 hr 30 min 52 sec)
Heartbeat CPU 1 instructions: 260000003 cycles: 178691416 heartbeat IPC: 0.6306 cumulative IPC: 1.118 (Simulation time: 02 hr 31 min 53 sec)
Heartbeat CPU 2 instructions: 300000001 cycles: 181768794 heartbeat IPC: 1.043 cumulative IPC: 1.428 (Simulation time: 02 hr 34 min 26 sec)
Heartbeat CPU 3 instructions: 410000003 cycles: 181993129 heartbeat IPC: 2.198 cumulative IPC: 2.027 (Simulation time: 02 hr 34 min 38 sec)
Heartbeat CPU 3 instructions: 420000000 cycles: 186509473 heartbeat IPC: 2.214 cumulative IPC: 2.032 (Simulation time: 02 hr 38 min 26 sec)
Heartbeat CPU 1 instructions: 270000003 cycles: 186686399 heartbeat IPC: 1.251 cumulative IPC: 1.125 (Simulation time: 02 hr 38 min 35 sec)
Heartbeat CPU 2 instructions: 310000001 cycles: 189204056 heartbeat IPC: 1.345 cumulative IPC: 1.424 (Simulation time: 02 hr 40 min 39 sec)
Heartbeat CPU 3 instructions: 430000004 cycles: 191021893 heartbeat IPC: 2.216 cumulative IPC: 2.037 (Simulation time: 02 hr 42 min 19 sec)
Heartbeat CPU 0 instructions: 110000004 cycles: 192428652 heartbeat IPC: 0.2845 cumulative IPC: 0.3497 (Simulation time: 02 hr 43 min 32 sec)
Heartbeat CPU 1 instructions: 280000003 cycles: 194344297 heartbeat IPC: 1.306 cumulative IPC: 1.133 (Simulation time: 02 hr 44 min 58 sec)
Heartbeat CPU 3 instructions: 440000004 cycles: 195496901 heartbeat IPC: 2.235 cumulative IPC: 2.042 (Simulation time: 02 hr 45 min 55 sec)
Heartbeat CPU 2 instructions: 320000001 cycles: 197312774 heartbeat IPC: 1.233 cumulative IPC: 1.416 (Simulation time: 02 hr 47 min 23 sec)
Heartbeat CPU 3 instructions: 450000000 cycles: 200256272 heartbeat IPC: 2.101 cumulative IPC: 2.044 (Simulation time: 02 hr 49 min 48 sec)
Heartbeat CPU 1 instructions: 290000003 cycles: 204276684 heartbeat IPC: 1.007 cumulative IPC: 1.126 (Simulation time: 02 hr 53 min 05 sec)
Heartbeat CPU 3 instructions: 460000000 cycles: 204917321 heartbeat IPC: 2.145 cumulative IPC: 2.046 (Simulation time: 02 hr 53 min 36 sec)
Heartbeat CPU 2 instructions: 330000000 cycles: 205076429 heartbeat IPC: 1.288 cumulative IPC: 1.41 (Simulation time: 02 hr 53 min 44 sec)
Heartbeat CPU 3 instructions: 470000001 cycles: 209397645 heartbeat IPC: 2.232 cumulative IPC: 2.051 (Simulation time: 02 hr 57 min 21 sec)
Heartbeat CPU 2 instructions: 340000001 cycles: 212174670 heartbeat IPC: 1.409 cumulative IPC: 1.41 (Simulation time: 02 hr 59 min 39 sec)
Heartbeat CPU 3 instructions: 480000000 cycles: 214185980 heartbeat IPC: 2.088 cumulative IPC: 2.052 (Simulation time: 03 hr 01 min 19 sec)
Heartbeat CPU 1 instructions: 300000003 cycles: 214554725 heartbeat IPC: 0.9729 cumulative IPC: 1.118 (Simulation time: 03 hr 01 min 38 sec)
Heartbeat CPU 2 instructions: 350000003 cycles: 219232890 heartbeat IPC: 1.417 cumulative IPC: 1.41 (Simulation time: 03 hr 05 min 14 sec)
Heartbeat CPU 3 instructions: 490000002 cycles: 220856225 heartbeat IPC: 1.499 cumulative IPC: 2.033 (Simulation time: 03 hr 06 min 31 sec)
Heartbeat CPU 1 instructions: 310000002 cycles: 226075591 heartbeat IPC: 0.868 cumulative IPC: 1.104 (Simulation time: 03 hr 10 min 40 sec)
Heartbeat CPU 2 instructions: 360000001 cycles: 226195631 heartbeat IPC: 1.436 cumulative IPC: 1.411 (Simulation time: 03 hr 10 min 46 sec)
Heartbeat CPU 3 instructions: 500000002 cycles: 226672250 heartbeat IPC: 1.719 cumulative IPC: 2.024 (Simulation time: 03 hr 11 min 09 sec)
Heartbeat CPU 0 instructions: 120000004 cycles: 228643742 heartbeat IPC: 0.2761 cumulative IPC: 0.3369 (Simulation time: 03 hr 12 min 43 sec)
Heartbeat CPU 3 instructions: 510000002 cycles: 232343091 heartbeat IPC: 1.763 cumulative IPC: 2.017 (Simulation time: 03 hr 15 min 43 sec)
Heartbeat CPU 2 instructions: 370000000 cycles: 233129930 heartbeat IPC: 1.442 cumulative IPC: 1.412 (Simulation time: 03 hr 16 min 20 sec)
Heartbeat CPU 1 instructions: 320000002 cycles: 236583501 heartbeat IPC: 0.9517 cumulative IPC: 1.096 (Simulation time: 03 hr 19 min 06 sec)
Heartbeat CPU 3 instructions: 520000004 cycles: 238069471 heartbeat IPC: 1.746 cumulative IPC: 2.01 (Simulation time: 03 hr 20 min 24 sec)
Heartbeat CPU 2 instructions: 380000003 cycles: 239019923 heartbeat IPC: 1.698 cumulative IPC: 1.42 (Simulation time: 03 hr 21 min 13 sec)
Heartbeat CPU 3 instructions: 530000003 cycles: 243674687 heartbeat IPC: 1.784 cumulative IPC: 2.004 (Simulation time: 03 hr 25 min 15 sec)
Heartbeat CPU 2 instructions: 390000000 cycles: 244220531 heartbeat IPC: 1.923 cumulative IPC: 1.432 (Simulation time: 03 hr 25 min 44 sec)
Heartbeat CPU 1 instructions: 330000001 cycles: 245122252 heartbeat IPC: 1.171 cumulative IPC: 1.099 (Simulation time: 03 hr 26 min 31 sec)
Heartbeat CPU 3 instructions: 540000000 cycles: 249250968 heartbeat IPC: 1.793 cumulative IPC: 1.999 (Simulation time: 03 hr 30 min 03 sec)
Heartbeat CPU 2 instructions: 400000000 cycles: 249831246 heartbeat IPC: 1.782 cumulative IPC: 1.44 (Simulation time: 03 hr 30 min 33 sec)
Heartbeat CPU 1 instructions: 340000002 cycles: 254240397 heartbeat IPC: 1.097 cumulative IPC: 1.099 (Simulation time: 03 hr 34 min 15 sec)
Heartbeat CPU 3 instructions: 550000002 cycles: 254845339 heartbeat IPC: 1.788 cumulative IPC: 1.994 (Simulation time: 03 hr 34 min 46 sec)
Heartbeat CPU 2 instructions: 410000001 cycles: 255814534 heartbeat IPC: 1.671 cumulative IPC: 1.446 (Simulation time: 03 hr 35 min 35 sec)
Heartbeat CPU 0 instructions: 130000002 cycles: 259638371 heartbeat IPC: 0.3226 cumulative IPC: 0.3351 (Simulation time: 03 hr 38 min 42 sec)
Heartbeat CPU 3 instructions: 560000002 cycles: 260416173 heartbeat IPC: 1.795 cumulative IPC: 1.99 (Simulation time: 03 hr 39 min 19 sec)
Heartbeat CPU 1 instructions: 350000000 cycles: 264079736 heartbeat IPC: 1.016 cumulative IPC: 1.096 (Simulation time: 03 hr 42 min 06 sec)
Heartbeat CPU 2 instructions: 420000002 cycles: 264805545 heartbeat IPC: 1.112 cumulative IPC: 1.434 (Simulation time: 03 hr 42 min 36 sec)
Heartbeat CPU 3 instructions: 570000004 cycles: 266091538 heartbeat IPC: 1.762 cumulative IPC: 1.984 (Simulation time: 03 hr 43 min 35 sec)
Heartbeat CPU 3 instructions: 580000000 cycles: 271730308 heartbeat IPC: 1.773 cumulative IPC: 1.98 (Simulation time: 03 hr 48 min 04 sec)
Heartbeat CPU 2 instructions: 430000002 cycles: 272331374 heartbeat IPC: 1.329 cumulative IPC: 1.431 (Simulation time: 03 hr 48 min 32 sec)
Heartbeat CPU 1 instructions: 360000002 cycles: 274966500 heartbeat IPC: 0.9185 cumulative IPC: 1.088 (Simulation time: 03 hr 50 min 36 sec)
Heartbeat CPU 3 instructions: 590000001 cycles: 277414199 heartbeat IPC: 1.759 cumulative IPC: 1.975 (Simulation time: 03 hr 52 min 33 sec)
Heartbeat CPU 2 instructions: 440000000 cycles: 279355479 heartbeat IPC: 1.424 cumulative IPC: 1.431 (Simulation time: 03 hr 54 min 07 sec)
Heartbeat CPU 3 instructions: 600000003 cycles: 282983377 heartbeat IPC: 1.796 cumulative IPC: 1.971 (Simulation time: 03 hr 57 min 00 sec)
Heartbeat CPU 1 instructions: 370000001 cycles: 285439940 heartbeat IPC: 0.9548 cumulative IPC: 1.083 (Simulation time: 03 hr 58 min 58 sec)
Heartbeat CPU 2 instructions: 450000001 cycles: 286511015 heartbeat IPC: 1.398 cumulative IPC: 1.43 (Simulation time: 03 hr 59 min 47 sec)
Heartbeat CPU 3 instructions: 610000000 cycles: 288581370 heartbeat IPC: 1.786 cumulative IPC: 1.967 (Simulation time: 04 hr 01 min 33 sec)
Heartbeat CPU 0 instructions: 140000001 cycles: 290968418 heartbeat IPC: 0.3192 cumulative IPC: 0.3332 (Simulation time: 04 hr 03 min 32 sec)
Heartbeat CPU 2 instructions: 460000002 cycles: 292268671 heartbeat IPC: 1.737 cumulative IPC: 1.436 (Simulation time: 04 hr 04 min 30 sec)
Heartbeat CPU 1 instructions: 380000000 cycles: 298457765 heartbeat IPC: 0.7682 cumulative IPC: 1.068 (Simulation time: 04 hr 08 min 55 sec)
Heartbeat CPU 2 instructions: 470000003 cycles: 303337124 heartbeat IPC: 0.9035 cumulative IPC: 1.415 (Simulation time: 04 hr 11 min 56 sec)
Heartbeat CPU 3 instructions: 620000002 cycles: 306060398 heartbeat IPC: 0.5721 cumulative IPC: 1.882 (Simulation time: 04 hr 13 min 53 sec)
Heartbeat CPU 2 instructions: 480000002 cycles: 311702074 heartbeat IPC: 1.195 cumulative IPC: 1.409 (Simulation time: 04 hr 17 min 46 sec)
Heartbeat CPU 1 instructions: 390000003 cycles: 317897241 heartbeat IPC: 0.5144 cumulative IPC: 1.032 (Simulation time: 04 hr 22 min 16 sec)
Heartbeat CPU 3 instructions: 630000003 cycles: 318151848 heartbeat IPC: 0.827 cumulative IPC: 1.839 (Simulation time: 04 hr 22 min 28 sec)
Heartbeat CPU 2 instructions: 490000002 cycles: 319136915 heartbeat IPC: 1.345 cumulative IPC: 1.407 (Simulation time: 04 hr 23 min 17 sec)
Heartbeat CPU 3 instructions: 640000003 cycles: 327991496 heartbeat IPC: 1.016 cumulative IPC: 1.812 (Simulation time: 04 hr 29 min 49 sec)
Heartbeat CPU 2 instructions: 500000000 cycles: 329224198 heartbeat IPC: 0.9913 cumulative IPC: 1.394 (Simulation time: 04 hr 30 min 43 sec)
Heartbeat CPU 1 instructions: 400000001 cycles: 330128966 heartbeat IPC: 0.8175 cumulative IPC: 1.023 (Simulation time: 04 hr 31 min 23 sec)
Heartbeat CPU 2 instructions: 510000001 cycles: 338241932 heartbeat IPC: 1.109 cumulative IPC: 1.386 (Simulation time: 04 hr 37 min 17 sec)
Heartbeat CPU 3 instructions: 650000003 cycles: 340013463 heartbeat IPC: 0.8318 cumulative IPC: 1.775 (Simulation time: 04 hr 38 min 32 sec)
Heartbeat CPU 0 instructions: 150000003 cycles: 341859095 heartbeat IPC: 0.1965 cumulative IPC: 0.3115 (Simulation time: 04 hr 39 min 57 sec)
Heartbeat CPU 1 instructions: 410000004 cycles: 344374480 heartbeat IPC: 0.702 cumulative IPC: 1.009 (Simulation time: 04 hr 41 min 55 sec)
Heartbeat CPU 2 instructions: 520000000 cycles: 345848046 heartbeat IPC: 1.315 cumulative IPC: 1.384 (Simulation time: 04 hr 43 min 04 sec)
Heartbeat CPU 3 instructions: 660000001 cycles: 346835479 heartbeat IPC: 1.466 cumulative IPC: 1.769 (Simulation time: 04 hr 43 min 49 sec)
Heartbeat CPU 2 instructions: 530000001 cycles: 353975380 heartbeat IPC: 1.23 cumulative IPC: 1.38 (Simulation time: 04 hr 49 min 00 sec)
Heartbeat CPU 3 instructions: 670000001 cycles: 356008379 heartbeat IPC: 1.09 cumulative IPC: 1.75 (Simulation time: 04 hr 50 min 32 sec)
Heartbeat CPU 2 instructions: 540000000 cycles: 362349805 heartbeat IPC: 1.194 cumulative IPC: 1.376 (Simulation time: 04 hr 54 min 54 sec)
Heartbeat CPU 1 instructions: 420000003 cycles: 362567549 heartbeat IPC: 0.5497 cumulative IPC: 0.9848 (Simulation time: 04 hr 55 min 03 sec)
Heartbeat CPU 2 instructions: 550000004 cycles: 370292423 heartbeat IPC: 1.259 cumulative IPC: 1.373 (Simulation time: 05 hr 00 min 29 sec)
Heartbeat CPU 2 instructions: 560000001 cycles: 378871476 heartbeat IPC: 1.166 cumulative IPC: 1.368 (Simulation time: 05 hr 06 min 13 sec)
Heartbeat CPU 3 instructions: 680000002 cycles: 380640146 heartbeat IPC: 0.406 cumulative IPC: 1.658 (Simulation time: 05 hr 07 min 37 sec)
Heartbeat CPU 1 instructions: 430000000 cycles: 381394215 heartbeat IPC: 0.5312 cumulative IPC: 0.9611 (Simulation time: 05 hr 08 min 13 sec)
Heartbeat CPU 2 instructions: 570000004 cycles: 384522239 heartbeat IPC: 1.77 cumulative IPC: 1.374 (Simulation time: 05 hr 11 min 06 sec)
Heartbeat CPU 3 instructions: 690000001 cycles: 385076868 heartbeat IPC: 2.254 cumulative IPC: 1.666 (Simulation time: 05 hr 11 min 37 sec)
Heartbeat CPU 2 instructions: 580000000 cycles: 389680620 heartbeat IPC: 1.939 cumulative IPC: 1.382 (Simulation time: 05 hr 15 min 49 sec)
Heartbeat CPU 3 instructions: 700000003 cycles: 389843706 heartbeat IPC: 2.098 cumulative IPC: 1.671 (Simulation time: 05 hr 15 min 58 sec)
Heartbeat CPU 1 instructions: 440000004 cycles: 390570266 heartbeat IPC: 1.09 cumulative IPC: 0.9643 (Simulation time: 05 hr 16 min 40 sec)
Heartbeat CPU 0 instructions: 160000002 cycles: 394405887 heartbeat IPC: 0.1903 cumulative IPC: 0.2945 (Simulation time: 05 hr 20 min 07 sec)
Heartbeat CPU 3 instructions: 710000000 cycles: 394597076 heartbeat IPC: 2.104 cumulative IPC: 1.677 (Simulation time: 05 hr 20 min 17 sec)
Heartbeat CPU 2 instructions: 590000001 cycles: 395226456 heartbeat IPC: 1.803 cumulative IPC: 1.388 (Simulation time: 05 hr 20 min 50 sec)
Heartbeat CPU 3 instructions: 720000004 cycles: 398923396 heartbeat IPC: 2.311 cumulative IPC: 1.684 (Simulation time: 05 hr 24 min 13 sec)
Heartbeat CPU 1 instructions: 450000000 cycles: 399463571 heartbeat IPC: 1.124 cumulative IPC: 0.9681 (Simulation time: 05 hr 24 min 42 sec)
Heartbeat CPU 2 instructions: 600000000 cycles: 400893952 heartbeat IPC: 1.764 cumulative IPC: 1.394 (Simulation time: 05 hr 26 min 00 sec)
Heartbeat CPU 3 instructions: 730000003 cycles: 404201518 heartbeat IPC: 1.895 cumulative IPC: 1.687 (Simulation time: 05 hr 28 min 48 sec)
Heartbeat CPU 2 instructions: 610000000 cycles: 407553535 heartbeat IPC: 1.502 cumulative IPC: 1.396 (Simulation time: 05 hr 31 min 45 sec)
Heartbeat CPU 1 instructions: 460000004 cycles: 409809799 heartbeat IPC: 0.9665 cumulative IPC: 0.968 (Simulation time: 05 hr 33 min 21 sec)
Heartbeat CPU 3 instructions: 740000000 cycles: 411676289 heartbeat IPC: 1.338 cumulative IPC: 1.68 (Simulation time: 05 hr 34 min 46 sec)
Heartbeat CPU 2 instructions: 620000000 cycles: 418065576 heartbeat IPC: 0.9513 cumulative IPC: 1.384 (Simulation time: 05 hr 39 min 23 sec)
Heartbeat CPU 1 instructions: 470000002 cycles: 422851651 heartbeat IPC: 0.7668 cumulative IPC: 0.9615 (Simulation time: 05 hr 42 min 51 sec)
Heartbeat CPU 3 instructions: 750000003 cycles: 422965941 heartbeat IPC: 0.8858 cumulative IPC: 1.658 (Simulation time: 05 hr 42 min 57 sec)
Heartbeat CPU 2 instructions: 630000002 cycles: 427328317 heartbeat IPC: 1.08 cumulative IPC: 1.377 (Simulation time: 05 hr 46 min 09 sec)
Heartbeat CPU 3 instructions: 760000004 cycles: 430897171 heartbeat IPC: 1.261 cumulative IPC: 1.65 (Simulation time: 05 hr 48 min 52 sec)
Heartbeat CPU 0 instructions: 170000002 cycles: 434930552 heartbeat IPC: 0.2468 cumulative IPC: 0.2898 (Simulation time: 05 hr 51 min 51 sec)
Heartbeat CPU 2 instructions: 640000002 cycles: 435937090 heartbeat IPC: 1.162 cumulative IPC: 1.373 (Simulation time: 05 hr 52 min 36 sec)
Heartbeat CPU 1 instructions: 480000001 cycles: 436134562 heartbeat IPC: 0.7528 cumulative IPC: 0.9548 (Simulation time: 05 hr 52 min 45 sec)
Heartbeat CPU 2 instructions: 650000000 cycles: 443968574 heartbeat IPC: 1.245 cumulative IPC: 1.37 (Simulation time: 05 hr 58 min 22 sec)
Heartbeat CPU 3 instructions: 770000000 cycles: 445204643 heartbeat IPC: 0.6989 cumulative IPC: 1.618 (Simulation time: 05 hr 59 min 14 sec)
Heartbeat CPU 2 instructions: 660000000 cycles: 451385845 heartbeat IPC: 1.348 cumulative IPC: 1.37 (Simulation time: 06 hr 04 min 01 sec)
Heartbeat CPU 1 instructions: 490000002 cycles: 451414583 heartbeat IPC: 0.6544 cumulative IPC: 0.9442 (Simulation time: 06 hr 04 min 03 sec)
Heartbeat CPU 3 instructions: 780000003 cycles: 452151901 heartbeat IPC: 1.439 cumulative IPC: 1.615 (Simulation time: 06 hr 04 min 40 sec)
Heartbeat CPU 2 instructions: 670000000 cycles: 458838091 heartbeat IPC: 1.342 cumulative IPC: 1.369 (Simulation time: 06 hr 09 min 50 sec)
Heartbeat CPU 3 instructions: 790000003 cycles: 459121330 heartbeat IPC: 1.435 cumulative IPC: 1.612 (Simulation time: 06 hr 10 min 02 sec)
Heartbeat CPU 1 instructions: 500000001 cycles: 465760716 heartbeat IPC: 0.6971 cumulative IPC: 0.9362 (Simulation time: 06 hr 15 min 02 sec)
Heartbeat CPU 2 instructions: 680000004 cycles: 467089423 heartbeat IPC: 1.212 cumulative IPC: 1.367 (Simulation time: 06 hr 15 min 55 sec)
Heartbeat CPU 3 instructions: 800000002 cycles: 468759179 heartbeat IPC: 1.038 cumulative IPC: 1.6 (Simulation time: 06 hr 17 min 17 sec)
Heartbeat CPU 2 instructions: 690000000 cycles: 473109885 heartbeat IPC: 1.661 cumulative IPC: 1.37 (Simulation time: 06 hr 20 min 40 sec)
Heartbeat CPU 3 instructions: 810000001 cycles: 478502975 heartbeat IPC: 1.026 cumulative IPC: 1.588 (Simulation time: 06 hr 24 min 56 sec)
Heartbeat CPU 2 instructions: 700000000 cycles: 479534877 heartbeat IPC: 1.556 cumulative IPC: 1.373 (Simulation time: 06 hr 25 min 44 sec)
Heartbeat CPU 1 instructions: 510000004 cycles: 481499632 heartbeat IPC: 0.6354 cumulative IPC: 0.9259 (Simulation time: 06 hr 27 min 09 sec)
Heartbeat CPU 2 instructions: 710000002 cycles: 487450453 heartbeat IPC: 1.263 cumulative IPC: 1.371 (Simulation time: 06 hr 31 min 19 sec)
Heartbeat CPU 0 instructions: 180000001 cycles: 490481501 heartbeat IPC: 0.18 cumulative IPC: 0.2768 (Simulation time: 06 hr 33 min 21 sec)
Heartbeat CPU 2 instructions: 720000001 cycles: 499974500 heartbeat IPC: 0.7985 cumulative IPC: 1.356 (Simulation time: 06 hr 39 min 24 sec)
Heartbeat CPU 1 instructions: 520000004 cycles: 504976744 heartbeat IPC: 0.4259 cumulative IPC: 0.9017 (Simulation time: 06 hr 42 min 36 sec)
Heartbeat CPU 3 instructions: 820000004 cycles: 508939327 heartbeat IPC: 0.3286 cumulative IPC: 1.509 (Simulation time: 06 hr 45 min 22 sec)
Heartbeat CPU 2 instructions: 730000000 cycles: 512321848 heartbeat IPC: 0.8099 cumulative IPC: 1.343 (Simulation time: 06 hr 47 min 31 sec)
Heartbeat CPU 2 instructions: 740000000 cycles: 521410651 heartbeat IPC: 1.1 cumulative IPC: 1.338 (Simulation time: 06 hr 53 min 52 sec)
Heartbeat CPU 1 instructions: 530000004 cycles: 521900545 heartbeat IPC: 0.5909 cumulative IPC: 0.8912 (Simulation time: 06 hr 54 min 16 sec)
Heartbeat CPU 3 instructions: 830000002 cycles: 525219609 heartbeat IPC: 0.6142 cumulative IPC: 1.48 (Simulation time: 06 hr 56 min 32 sec)
Heartbeat CPU 2 instructions: 750000000 cycles: 530853203 heartbeat IPC: 1.059 cumulative IPC: 1.333 (Simulation time: 07 hr 00 min 41 sec)
Heartbeat CPU 1 instructions: 540000002 cycles: 535849568 heartbeat IPC: 0.7169 cumulative IPC: 0.8864 (Simulation time: 07 hr 04 min 18 sec)
Heartbeat CPU 3 instructions: 840000002 cycles: 539225209 heartbeat IPC: 0.714 cumulative IPC: 1.46 (Simulation time: 07 hr 06 min 36 sec)
Heartbeat CPU 2 instructions: 760000000 cycles: 541099766 heartbeat IPC: 0.9759 cumulative IPC: 1.326 (Simulation time: 07 hr 07 min 56 sec)
Heartbeat CPU 2 instructions: 770000004 cycles: 549830663 heartbeat IPC: 1.145 cumulative IPC: 1.323 (Simulation time: 07 hr 13 min 59 sec)
Heartbeat CPU 0 instructions: 190000003 cycles: 550685538 heartbeat IPC: 0.1661 cumulative IPC: 0.2642 (Simulation time: 07 hr 14 min 34 sec)
Heartbeat CPU 1 instructions: 550000002 cycles: 553102205 heartbeat IPC: 0.5796 cumulative IPC: 0.8765 (Simulation time: 07 hr 16 min 16 sec)
Heartbeat CPU 2 instructions: 780000000 cycles: 558373123 heartbeat IPC: 1.171 cumulative IPC: 1.321 (Simulation time: 07 hr 19 min 50 sec)
Heartbeat CPU 3 instructions: 850000004 cycles: 561471957 heartbeat IPC: 0.4495 cumulative IPC: 1.418 (Simulation time: 07 hr 21 min 58 sec)
Heartbeat CPU 2 instructions: 790000000 cycles: 566865618 heartbeat IPC: 1.178 cumulative IPC: 1.318 (Simulation time: 07 hr 25 min 40 sec)
Heartbeat CPU 1 instructions: 560000001 cycles: 573571107 heartbeat IPC: 0.4885 cumulative IPC: 0.8621 (Simulation time: 07 hr 30 min 33 sec)
Heartbeat CPU 2 instructions: 800000002 cycles: 573882038 heartbeat IPC: 1.425 cumulative IPC: 1.32 (Simulation time: 07 hr 30 min 50 sec)
Heartbeat CPU 3 instructions: 860000001 cycles: 575412833 heartbeat IPC: 0.7173 cumulative IPC: 1.4 (Simulation time: 07 hr 32 min 13 sec)
Heartbeat CPU 2 instructions: 810000002 cycles: 580001945 heartbeat IPC: 1.634 cumulative IPC: 1.323 (Simulation time: 07 hr 36 min 09 sec)
Heartbeat CPU 3 instructions: 870000003 cycles: 581022579 heartbeat IPC: 1.783 cumulative IPC: 1.404 (Simulation time: 07 hr 36 min 58 sec)
Heartbeat CPU 1 instructions: 570000004 cycles: 584739192 heartbeat IPC: 0.8954 cumulative IPC: 0.8628 (Simulation time: 07 hr 39 min 39 sec)
Heartbeat CPU 3 instructions: 880000003 cycles: 588160773 heartbeat IPC: 1.401 cumulative IPC: 1.404 (Simulation time: 07 hr 42 min 13 sec)
Heartbeat CPU 2 instructions: 820000000 cycles: 590189035 heartbeat IPC: 0.9816 cumulative IPC: 1.317 (Simulation time: 07 hr 43 min 52 sec)
Heartbeat CPU 3 instructions: 890000003 cycles: 592869005 heartbeat IPC: 2.124 cumulative IPC: 1.41 (Simulation time: 07 hr 46 min 08 sec)
Heartbeat CPU 1 instructions: 580000001 cycles: 596400206 heartbeat IPC: 0.8576 cumulative IPC: 0.8627 (Simulation time: 07 hr 48 min 57 sec)
Heartbeat CPU 2 instructions: 830000000 cycles: 599361890 heartbeat IPC: 1.09 cumulative IPC: 1.313 (Simulation time: 07 hr 51 min 00 sec)
Heartbeat CPU 3 instructions: 900000003 cycles: 600079950 heartbeat IPC: 1.387 cumulative IPC: 1.41 (Simulation time: 07 hr 51 min 29 sec)
Heartbeat CPU 0 instructions: 200000001 cycles: 600811089 heartbeat IPC: 0.1995 cumulative IPC: 0.2586 (Simulation time: 07 hr 52 min 01 sec)
Simulation finished CPU 0 instructions: 150000003 cycles: 579935492 cumulative IPC: 0.2586 (Simulation time: 07 hr 52 min 01 sec)
Simulation complete CPU 0 instructions: 150000003 cycles: 579935492 cumulative IPC: 0.2586 (Simulation time: 07 hr 52 min 01 sec)
Simulation complete CPU 1 instructions: 499669823 cycles: 579935492 cumulative IPC: 0.8616 (Simulation time: 07 hr 52 min 01 sec)
Simulation complete CPU 2 instructions: 760383604 cycles: 579935492 cumulative IPC: 1.311 (Simulation time: 07 hr 52 min 01 sec)
Simulation complete CPU 3 instructions: 817873541 cycles: 579935492 cumulative IPC: 1.41 (Simulation time: 07 hr 52 min 01 sec)

ChampSim completed all CPUs

=== Simulation ===
CPU 0 runs /home/grads/r/rdas40/dpc3_traces/620.omnetpp_s-874B.champsimtrace.xzCPU 1 runs /home/grads/r/rdas40/dpc3_traces/649.fotonik3d_s-1176B.champsimtrace.xzCPU 2 runs /home/grads/r/rdas40/dpc3_traces/623.xalancbmk_s-700B.champsimtrace.xzCPU 3 runs /home/grads/r/rdas40/dpc3_traces/621.wrf_s-575B.champsimtrace.xz
Total Simulation Statistics (not including warmup)

CPU 0 cumulative IPC: 0.2586 instructions: 150000003 cycles: 579935492
CPU 0 Branch Prediction Accuracy: 94.9% MPKI: 10.6 Average ROB Occupancy at Mispredict: 82.8
Branch type MPKI
BRANCH_DIRECT_JUMP: 0.923
BRANCH_INDIRECT: 0.128
BRANCH_CONDITIONAL: 8.42
BRANCH_DIRECT_CALL: 0.00016
BRANCH_INDIRECT_CALL: 0.734
BRANCH_RETURN: 0.399


CPU 1 cumulative IPC: 0.8616 instructions: 499669823 cycles: 579935492
CPU 1 Branch Prediction Accuracy: 99.63% MPKI: 0.06812 Average ROB Occupancy at Mispredict: 80.53
Branch type MPKI
BRANCH_DIRECT_JUMP: 0.000178
BRANCH_INDIRECT: 0
BRANCH_CONDITIONAL: 0.0519
BRANCH_DIRECT_CALL: 3.2e-05
BRANCH_INDIRECT_CALL: 0
BRANCH_RETURN: 0.016


CPU 2 cumulative IPC: 1.311 instructions: 760383604 cycles: 579935492
CPU 2 Branch Prediction Accuracy: 97.31% MPKI: 7.756 Average ROB Occupancy at Mispredict: 42.11
Branch type MPKI
BRANCH_DIRECT_JUMP: 0.106
BRANCH_INDIRECT: 0.329
BRANCH_CONDITIONAL: 5.56
BRANCH_DIRECT_CALL: 0.00033
BRANCH_INDIRECT_CALL: 0.362
BRANCH_RETURN: 1.4


CPU 3 cumulative IPC: 1.41 instructions: 817873541 cycles: 579935492
CPU 3 Branch Prediction Accuracy: 95.6% MPKI: 4.767 Average ROB Occupancy at Mispredict: 113.2
Branch type MPKI
BRANCH_DIRECT_JUMP: 0.000456
BRANCH_INDIRECT: 2.08e-05
BRANCH_CONDITIONAL: 4.42
BRANCH_DIRECT_CALL: 0.00285
BRANCH_INDIRECT_CALL: 0
BRANCH_RETURN: 0.342

LLC TOTAL        ACCESS:    5092361 HIT:    2043880 MISS:    3048481
LLC LOAD         ACCESS:    1677292 HIT:     490605 MISS:    1186687
LLC RFO          ACCESS:     256378 HIT:     114645 MISS:     141733
LLC PREFETCH     ACCESS:    1596211 HIT:     476841 MISS:    1119370
LLC WRITE        ACCESS:     965852 HIT:     914147 MISS:      51705
LLC TRANSLATION  ACCESS:     596628 HIT:      47642 MISS:     548986
LLC PREFETCH REQUESTED:          0 ISSUED:          0 USEFUL:          0 USELESS:          0
LLC AVERAGE MISS LATENCY: 398.9 cycles
LLC TOTAL        ACCESS:   20609179 HIT:    7538607 MISS:   13070572
LLC LOAD         ACCESS:    1915726 HIT:     585363 MISS:    1330363
LLC RFO          ACCESS:       1643 HIT:       1632 MISS:         11
LLC PREFETCH     ACCESS:   14337738 HIT:    2599865 MISS:   11737873
LLC WRITE        ACCESS:    4353037 HIT:    4351233 MISS:       1804
LLC TRANSLATION  ACCESS:       1035 HIT:        514 MISS:        521
LLC PREFETCH REQUESTED:          0 ISSUED:          0 USEFUL:          0 USELESS:          0
LLC AVERAGE MISS LATENCY: 398.9 cycles
LLC TOTAL        ACCESS:   17153074 HIT:   15257456 MISS:    1895618
LLC LOAD         ACCESS:    1631440 HIT:    1384595 MISS:     246845
LLC RFO          ACCESS:     972161 HIT:      67562 MISS:     904599
LLC PREFETCH     ACCESS:   13229129 HIT:   12604158 MISS:     624971
LLC WRITE        ACCESS:    1172993 HIT:    1119507 MISS:      53486
LLC TRANSLATION  ACCESS:     147351 HIT:      81634 MISS:      65717
LLC PREFETCH REQUESTED:          0 ISSUED:          0 USEFUL:          0 USELESS:          0
LLC AVERAGE MISS LATENCY: 398.9 cycles
LLC TOTAL        ACCESS:   17115450 HIT:    9146947 MISS:    7968503
LLC LOAD         ACCESS:    2332966 HIT:    1336991 MISS:     995975
LLC RFO          ACCESS:    1198162 HIT:     295593 MISS:     902569
LLC PREFETCH     ACCESS:   11240820 HIT:    5202720 MISS:    6038100
LLC WRITE        ACCESS:    2335783 HIT:    2309778 MISS:      26005
LLC TRANSLATION  ACCESS:       7719 HIT:       1865 MISS:       5854
LLC PREFETCH REQUESTED:          0 ISSUED:          0 USEFUL:          0 USELESS:          0
LLC AVERAGE MISS LATENCY: 398.9 cycles
cpu0_DTLB TOTAL        ACCESS:   38163862 HIT:   34865948 MISS:    3297914
cpu0_DTLB LOAD         ACCESS:   38163862 HIT:   34865948 MISS:    3297914
cpu0_DTLB RFO          ACCESS:          0 HIT:          0 MISS:          0
cpu0_DTLB PREFETCH     ACCESS:          0 HIT:          0 MISS:          0
cpu0_DTLB WRITE        ACCESS:          0 HIT:          0 MISS:          0
cpu0_DTLB TRANSLATION  ACCESS:          0 HIT:          0 MISS:          0
cpu0_DTLB PREFETCH REQUESTED:          0 ISSUED:          0 USEFUL:          0 USELESS:          0
cpu0_DTLB AVERAGE MISS LATENCY: 118 cycles
cpu0_DTLB TOTAL        ACCESS:          0 HIT:          0 MISS:          0
cpu0_DTLB LOAD         ACCESS:          0 HIT:          0 MISS:          0
cpu0_DTLB RFO          ACCESS:          0 HIT:          0 MISS:          0
cpu0_DTLB PREFETCH     ACCESS:          0 HIT:          0 MISS:          0
cpu0_DTLB WRITE        ACCESS:          0 HIT:          0 MISS:          0
cpu0_DTLB TRANSLATION  ACCESS:          0 HIT:          0 MISS:          0
cpu0_DTLB PREFETCH REQUESTED:          0 ISSUED:          0 USEFUL:          0 USELESS:          0
cpu0_DTLB AVERAGE MISS LATENCY: 118 cycles
cpu0_DTLB TOTAL        ACCESS:          0 HIT:          0 MISS:          0
cpu0_DTLB LOAD         ACCESS:          0 HIT:          0 MISS:          0
cpu0_DTLB RFO          ACCESS:          0 HIT:          0 MISS:          0
cpu0_DTLB PREFETCH     ACCESS:          0 HIT:          0 MISS:          0
cpu0_DTLB WRITE        ACCESS:          0 HIT:          0 MISS:          0
cpu0_DTLB TRANSLATION  ACCESS:          0 HIT:          0 MISS:          0
cpu0_DTLB PREFETCH REQUESTED:          0 ISSUED:          0 USEFUL:          0 USELESS:          0
cpu0_DTLB AVERAGE MISS LATENCY: 118 cycles
cpu0_DTLB TOTAL        ACCESS:          0 HIT:          0 MISS:          0
cpu0_DTLB LOAD         ACCESS:          0 HIT:          0 MISS:          0
cpu0_DTLB RFO          ACCESS:          0 HIT:          0 MISS:          0
cpu0_DTLB PREFETCH     ACCESS:          0 HIT:          0 MISS:          0
cpu0_DTLB WRITE        ACCESS:          0 HIT:          0 MISS:          0
cpu0_DTLB TRANSLATION  ACCESS:          0 HIT:          0 MISS:          0
cpu0_DTLB PREFETCH REQUESTED:          0 ISSUED:          0 USEFUL:          0 USELESS:          0
cpu0_DTLB AVERAGE MISS LATENCY: 118 cycles
cpu0_ITLB TOTAL        ACCESS:   10758653 HIT:   10487832 MISS:     270821
cpu0_ITLB LOAD         ACCESS:   10758653 HIT:   10487832 MISS:     270821
cpu0_ITLB RFO          ACCESS:          0 HIT:          0 MISS:          0
cpu0_ITLB PREFETCH     ACCESS:          0 HIT:          0 MISS:          0
cpu0_ITLB WRITE        ACCESS:          0 HIT:          0 MISS:          0
cpu0_ITLB TRANSLATION  ACCESS:          0 HIT:          0 MISS:          0
cpu0_ITLB PREFETCH REQUESTED:          0 ISSUED:          0 USEFUL:          0 USELESS:          0
cpu0_ITLB AVERAGE MISS LATENCY: 9.75 cycles
cpu0_ITLB TOTAL        ACCESS:          0 HIT:          0 MISS:          0
cpu0_ITLB LOAD         ACCESS:          0 HIT:          0 MISS:          0
cpu0_ITLB RFO          ACCESS:          0 HIT:          0 MISS:          0
cpu0_ITLB PREFETCH     ACCESS:          0 HIT:          0 MISS:          0
cpu0_ITLB WRITE        ACCESS:          0 HIT:          0 MISS:          0
cpu0_ITLB TRANSLATION  ACCESS:          0 HIT:          0 MISS:          0
cpu0_ITLB PREFETCH REQUESTED:          0 ISSUED:          0 USEFUL:          0 USELESS:          0
cpu0_ITLB AVERAGE MISS LATENCY: 9.75 cycles
cpu0_ITLB TOTAL        ACCESS:          0 HIT:          0 MISS:          0
cpu0_ITLB LOAD         ACCESS:          0 HIT:          0 MISS:          0
cpu0_ITLB RFO          ACCESS:          0 HIT:          0 MISS:          0
cpu0_ITLB PREFETCH     ACCESS:          0 HIT:          0 MISS:          0
cpu0_ITLB WRITE        ACCESS:          0 HIT:          0 MISS:          0
cpu0_ITLB TRANSLATION  ACCESS:          0 HIT:          0 MISS:          0
cpu0_ITLB PREFETCH REQUESTED:          0 ISSUED:          0 USEFUL:          0 USELESS:          0
cpu0_ITLB AVERAGE MISS LATENCY: 9.75 cycles
cpu0_ITLB TOTAL        ACCESS:          0 HIT:          0 MISS:          0
cpu0_ITLB LOAD         ACCESS:          0 HIT:          0 MISS:          0
cpu0_ITLB RFO          ACCESS:          0 HIT:          0 MISS:          0
cpu0_ITLB PREFETCH     ACCESS:          0 HIT:          0 MISS:          0
cpu0_ITLB WRITE        ACCESS:          0 HIT:          0 MISS:          0
cpu0_ITLB TRANSLATION  ACCESS:          0 HIT:          0 MISS:          0
cpu0_ITLB PREFETCH REQUESTED:          0 ISSUED:          0 USEFUL:          0 USELESS:          0
cpu0_ITLB AVERAGE MISS LATENCY: 9.75 cycles
cpu0_L1D TOTAL        ACCESS:   49716923 HIT:   44835165 MISS:    4881758
cpu0_L1D LOAD         ACCESS:   22887607 HIT:   19846989 MISS:    3040618
cpu0_L1D RFO          ACCESS:          0 HIT:          0 MISS:          0
cpu0_L1D PREFETCH     ACCESS:          0 HIT:          0 MISS:          0
cpu0_L1D WRITE        ACCESS:   25938099 HIT:   24842988 MISS:    1095111
cpu0_L1D TRANSLATION  ACCESS:     891217 HIT:     145188 MISS:     746029
cpu0_L1D PREFETCH REQUESTED:          0 ISSUED:          0 USEFUL:          0 USELESS:          0
cpu0_L1D AVERAGE MISS LATENCY: 262.5 cycles
cpu0_L1D TOTAL        ACCESS:          0 HIT:          0 MISS:          0
cpu0_L1D LOAD         ACCESS:          0 HIT:          0 MISS:          0
cpu0_L1D RFO          ACCESS:          0 HIT:          0 MISS:          0
cpu0_L1D PREFETCH     ACCESS:          0 HIT:          0 MISS:          0
cpu0_L1D WRITE        ACCESS:          0 HIT:          0 MISS:          0
cpu0_L1D TRANSLATION  ACCESS:          0 HIT:          0 MISS:          0
cpu0_L1D PREFETCH REQUESTED:          0 ISSUED:          0 USEFUL:          0 USELESS:          0
cpu0_L1D AVERAGE MISS LATENCY: 262.5 cycles
cpu0_L1D TOTAL        ACCESS:          0 HIT:          0 MISS:          0
cpu0_L1D LOAD         ACCESS:          0 HIT:          0 MISS:          0
cpu0_L1D RFO          ACCESS:          0 HIT:          0 MISS:          0
cpu0_L1D PREFETCH     ACCESS:          0 HIT:          0 MISS:          0
cpu0_L1D WRITE        ACCESS:          0 HIT:          0 MISS:          0
cpu0_L1D TRANSLATION  ACCESS:          0 HIT:          0 MISS:          0
cpu0_L1D PREFETCH REQUESTED:          0 ISSUED:          0 USEFUL:          0 USELESS:          0
cpu0_L1D AVERAGE MISS LATENCY: 262.5 cycles
cpu0_L1D TOTAL        ACCESS:          0 HIT:          0 MISS:          0
cpu0_L1D LOAD         ACCESS:          0 HIT:          0 MISS:          0
cpu0_L1D RFO          ACCESS:          0 HIT:          0 MISS:          0
cpu0_L1D PREFETCH     ACCESS:          0 HIT:          0 MISS:          0
cpu0_L1D WRITE        ACCESS:          0 HIT:          0 MISS:          0
cpu0_L1D TRANSLATION  ACCESS:          0 HIT:          0 MISS:          0
cpu0_L1D PREFETCH REQUESTED:          0 ISSUED:          0 USEFUL:          0 USELESS:          0
cpu0_L1D AVERAGE MISS LATENCY: 262.5 cycles
cpu0_L1I TOTAL        ACCESS:   12862714 HIT:   12788611 MISS:      74103
cpu0_L1I LOAD         ACCESS:   12862714 HIT:   12788611 MISS:      74103
cpu0_L1I RFO          ACCESS:          0 HIT:          0 MISS:          0
cpu0_L1I PREFETCH     ACCESS:          0 HIT:          0 MISS:          0
cpu0_L1I WRITE        ACCESS:          0 HIT:          0 MISS:          0
cpu0_L1I TRANSLATION  ACCESS:          0 HIT:          0 MISS:          0
cpu0_L1I PREFETCH REQUESTED:          0 ISSUED:          0 USEFUL:          0 USELESS:          0
cpu0_L1I AVERAGE MISS LATENCY: 46.59 cycles
cpu0_L1I TOTAL        ACCESS:          0 HIT:          0 MISS:          0
cpu0_L1I LOAD         ACCESS:          0 HIT:          0 MISS:          0
cpu0_L1I RFO          ACCESS:          0 HIT:          0 MISS:          0
cpu0_L1I PREFETCH     ACCESS:          0 HIT:          0 MISS:          0
cpu0_L1I WRITE        ACCESS:          0 HIT:          0 MISS:          0
cpu0_L1I TRANSLATION  ACCESS:          0 HIT:          0 MISS:          0
cpu0_L1I PREFETCH REQUESTED:          0 ISSUED:          0 USEFUL:          0 USELESS:          0
cpu0_L1I AVERAGE MISS LATENCY: 46.59 cycles
cpu0_L1I TOTAL        ACCESS:          0 HIT:          0 MISS:          0
cpu0_L1I LOAD         ACCESS:          0 HIT:          0 MISS:          0
cpu0_L1I RFO          ACCESS:          0 HIT:          0 MISS:          0
cpu0_L1I PREFETCH     ACCESS:          0 HIT:          0 MISS:          0
cpu0_L1I WRITE        ACCESS:          0 HIT:          0 MISS:          0
cpu0_L1I TRANSLATION  ACCESS:          0 HIT:          0 MISS:          0
cpu0_L1I PREFETCH REQUESTED:          0 ISSUED:          0 USEFUL:          0 USELESS:          0
cpu0_L1I AVERAGE MISS LATENCY: 46.59 cycles
cpu0_L1I TOTAL        ACCESS:          0 HIT:          0 MISS:          0
cpu0_L1I LOAD         ACCESS:          0 HIT:          0 MISS:          0
cpu0_L1I RFO          ACCESS:          0 HIT:          0 MISS:          0
cpu0_L1I PREFETCH     ACCESS:          0 HIT:          0 MISS:          0
cpu0_L1I WRITE        ACCESS:          0 HIT:          0 MISS:          0
cpu0_L1I TRANSLATION  ACCESS:          0 HIT:          0 MISS:          0
cpu0_L1I PREFETCH REQUESTED:          0 ISSUED:          0 USEFUL:          0 USELESS:          0
cpu0_L1I AVERAGE MISS LATENCY: 46.59 cycles
cpu0_L2C TOTAL        ACCESS:    7978132 HIT:    3214718 MISS:    4763414
cpu0_L2C LOAD         ACCESS:    2539669 HIT:     858455 MISS:    1681214
cpu0_L2C RFO          ACCESS:     365311 HIT:     108673 MISS:     256638
cpu0_L2C PREFETCH     ACCESS:    2928253 HIT:     701248 MISS:    2227005
cpu0_L2C WRITE        ACCESS:    1399656 HIT:    1397727 MISS:       1929
cpu0_L2C TRANSLATION  ACCESS:     745243 HIT:     148615 MISS:     596628
cpu0_L2C PREFETCH REQUESTED:    2928353 ISSUED:    2928253 USEFUL:      11063 USELESS:      24757
cpu0_L2C AVERAGE MISS LATENCY: 271.2 cycles
cpu0_L2C TOTAL        ACCESS:          0 HIT:          0 MISS:          0
cpu0_L2C LOAD         ACCESS:          0 HIT:          0 MISS:          0
cpu0_L2C RFO          ACCESS:          0 HIT:          0 MISS:          0
cpu0_L2C PREFETCH     ACCESS:          0 HIT:          0 MISS:          0
cpu0_L2C WRITE        ACCESS:          0 HIT:          0 MISS:          0
cpu0_L2C TRANSLATION  ACCESS:          0 HIT:          0 MISS:          0
cpu0_L2C PREFETCH REQUESTED:    2928353 ISSUED:    2928253 USEFUL:      11063 USELESS:      24757
cpu0_L2C AVERAGE MISS LATENCY: 271.2 cycles
cpu0_L2C TOTAL        ACCESS:          0 HIT:          0 MISS:          0
cpu0_L2C LOAD         ACCESS:          0 HIT:          0 MISS:          0
cpu0_L2C RFO          ACCESS:          0 HIT:          0 MISS:          0
cpu0_L2C PREFETCH     ACCESS:          0 HIT:          0 MISS:          0
cpu0_L2C WRITE        ACCESS:          0 HIT:          0 MISS:          0
cpu0_L2C TRANSLATION  ACCESS:          0 HIT:          0 MISS:          0
cpu0_L2C PREFETCH REQUESTED:    2928353 ISSUED:    2928253 USEFUL:      11063 USELESS:      24757
cpu0_L2C AVERAGE MISS LATENCY: 271.2 cycles
cpu0_L2C TOTAL        ACCESS:          0 HIT:          0 MISS:          0
cpu0_L2C LOAD         ACCESS:          0 HIT:          0 MISS:          0
cpu0_L2C RFO          ACCESS:          0 HIT:          0 MISS:          0
cpu0_L2C PREFETCH     ACCESS:          0 HIT:          0 MISS:          0
cpu0_L2C WRITE        ACCESS:          0 HIT:          0 MISS:          0
cpu0_L2C TRANSLATION  ACCESS:          0 HIT:          0 MISS:          0
cpu0_L2C PREFETCH REQUESTED:    2928353 ISSUED:    2928253 USEFUL:      11063 USELESS:      24757
cpu0_L2C AVERAGE MISS LATENCY: 271.2 cycles
cpu0_STLB TOTAL        ACCESS:    3013838 HIT:    2371398 MISS:     642440
cpu0_STLB LOAD         ACCESS:    3013838 HIT:    2371398 MISS:     642440
cpu0_STLB RFO          ACCESS:          0 HIT:          0 MISS:          0
cpu0_STLB PREFETCH     ACCESS:          0 HIT:          0 MISS:          0
cpu0_STLB WRITE        ACCESS:          0 HIT:          0 MISS:          0
cpu0_STLB TRANSLATION  ACCESS:          0 HIT:          0 MISS:          0
cpu0_STLB PREFETCH REQUESTED:          0 ISSUED:          0 USEFUL:          0 USELESS:          0
cpu0_STLB AVERAGE MISS LATENCY: 588.4 cycles
cpu0_STLB TOTAL        ACCESS:          0 HIT:          0 MISS:          0
cpu0_STLB LOAD         ACCESS:          0 HIT:          0 MISS:          0
cpu0_STLB RFO          ACCESS:          0 HIT:          0 MISS:          0
cpu0_STLB PREFETCH     ACCESS:          0 HIT:          0 MISS:          0
cpu0_STLB WRITE        ACCESS:          0 HIT:          0 MISS:          0
cpu0_STLB TRANSLATION  ACCESS:          0 HIT:          0 MISS:          0
cpu0_STLB PREFETCH REQUESTED:          0 ISSUED:          0 USEFUL:          0 USELESS:          0
cpu0_STLB AVERAGE MISS LATENCY: 588.4 cycles
cpu0_STLB TOTAL        ACCESS:          0 HIT:          0 MISS:          0
cpu0_STLB LOAD         ACCESS:          0 HIT:          0 MISS:          0
cpu0_STLB RFO          ACCESS:          0 HIT:          0 MISS:          0
cpu0_STLB PREFETCH     ACCESS:          0 HIT:          0 MISS:          0
cpu0_STLB WRITE        ACCESS:          0 HIT:          0 MISS:          0
cpu0_STLB TRANSLATION  ACCESS:          0 HIT:          0 MISS:          0
cpu0_STLB PREFETCH REQUESTED:          0 ISSUED:          0 USEFUL:          0 USELESS:          0
cpu0_STLB AVERAGE MISS LATENCY: 588.4 cycles
cpu0_STLB TOTAL        ACCESS:          0 HIT:          0 MISS:          0
cpu0_STLB LOAD         ACCESS:          0 HIT:          0 MISS:          0
cpu0_STLB RFO          ACCESS:          0 HIT:          0 MISS:          0
cpu0_STLB PREFETCH     ACCESS:          0 HIT:          0 MISS:          0
cpu0_STLB WRITE        ACCESS:          0 HIT:          0 MISS:          0
cpu0_STLB TRANSLATION  ACCESS:          0 HIT:          0 MISS:          0
cpu0_STLB PREFETCH REQUESTED:          0 ISSUED:          0 USEFUL:          0 USELESS:          0
cpu0_STLB AVERAGE MISS LATENCY: 588.4 cycles
cpu1_DTLB TOTAL        ACCESS:          0 HIT:          0 MISS:          0
cpu1_DTLB LOAD         ACCESS:          0 HIT:          0 MISS:          0
cpu1_DTLB RFO          ACCESS:          0 HIT:          0 MISS:          0
cpu1_DTLB PREFETCH     ACCESS:          0 HIT:          0 MISS:          0
cpu1_DTLB WRITE        ACCESS:          0 HIT:          0 MISS:          0
cpu1_DTLB TRANSLATION  ACCESS:          0 HIT:          0 MISS:          0
cpu1_DTLB PREFETCH REQUESTED:          0 ISSUED:          0 USEFUL:          0 USELESS:          0
cpu1_DTLB AVERAGE MISS LATENCY: 22.87 cycles
cpu1_DTLB TOTAL        ACCESS:   55600899 HIT:   55174970 MISS:     425929
cpu1_DTLB LOAD         ACCESS:   55600899 HIT:   55174970 MISS:     425929
cpu1_DTLB RFO          ACCESS:          0 HIT:          0 MISS:          0
cpu1_DTLB PREFETCH     ACCESS:          0 HIT:          0 MISS:          0
cpu1_DTLB WRITE        ACCESS:          0 HIT:          0 MISS:          0
cpu1_DTLB TRANSLATION  ACCESS:          0 HIT:          0 MISS:          0
cpu1_DTLB PREFETCH REQUESTED:          0 ISSUED:          0 USEFUL:          0 USELESS:          0
cpu1_DTLB AVERAGE MISS LATENCY: 22.87 cycles
cpu1_DTLB TOTAL        ACCESS:          0 HIT:          0 MISS:          0
cpu1_DTLB LOAD         ACCESS:          0 HIT:          0 MISS:          0
cpu1_DTLB RFO          ACCESS:          0 HIT:          0 MISS:          0
cpu1_DTLB PREFETCH     ACCESS:          0 HIT:          0 MISS:          0
cpu1_DTLB WRITE        ACCESS:          0 HIT:          0 MISS:          0
cpu1_DTLB TRANSLATION  ACCESS:          0 HIT:          0 MISS:          0
cpu1_DTLB PREFETCH REQUESTED:          0 ISSUED:          0 USEFUL:          0 USELESS:          0
cpu1_DTLB AVERAGE MISS LATENCY: 22.87 cycles
cpu1_DTLB TOTAL        ACCESS:          0 HIT:          0 MISS:          0
cpu1_DTLB LOAD         ACCESS:          0 HIT:          0 MISS:          0
cpu1_DTLB RFO          ACCESS:          0 HIT:          0 MISS:          0
cpu1_DTLB PREFETCH     ACCESS:          0 HIT:          0 MISS:          0
cpu1_DTLB WRITE        ACCESS:          0 HIT:          0 MISS:          0
cpu1_DTLB TRANSLATION  ACCESS:          0 HIT:          0 MISS:          0
cpu1_DTLB PREFETCH REQUESTED:          0 ISSUED:          0 USEFUL:          0 USELESS:          0
cpu1_DTLB AVERAGE MISS LATENCY: 22.87 cycles
cpu1_ITLB TOTAL        ACCESS:          0 HIT:          0 MISS:          0
cpu1_ITLB LOAD         ACCESS:          0 HIT:          0 MISS:          0
cpu1_ITLB RFO          ACCESS:          0 HIT:          0 MISS:          0
cpu1_ITLB PREFETCH     ACCESS:          0 HIT:          0 MISS:          0
cpu1_ITLB WRITE        ACCESS:          0 HIT:          0 MISS:          0
cpu1_ITLB TRANSLATION  ACCESS:          0 HIT:          0 MISS:          0
cpu1_ITLB PREFETCH REQUESTED:          0 ISSUED:          0 USEFUL:          0 USELESS:          0
cpu1_ITLB AVERAGE MISS LATENCY: 381.2 cycles
cpu1_ITLB TOTAL        ACCESS:       2755 HIT:       2734 MISS:         21
cpu1_ITLB LOAD         ACCESS:       2755 HIT:       2734 MISS:         21
cpu1_ITLB RFO          ACCESS:          0 HIT:          0 MISS:          0
cpu1_ITLB PREFETCH     ACCESS:          0 HIT:          0 MISS:          0
cpu1_ITLB WRITE        ACCESS:          0 HIT:          0 MISS:          0
cpu1_ITLB TRANSLATION  ACCESS:          0 HIT:          0 MISS:          0
cpu1_ITLB PREFETCH REQUESTED:          0 ISSUED:          0 USEFUL:          0 USELESS:          0
cpu1_ITLB AVERAGE MISS LATENCY: 381.2 cycles
cpu1_ITLB TOTAL        ACCESS:          0 HIT:          0 MISS:          0
cpu1_ITLB LOAD         ACCESS:          0 HIT:          0 MISS:          0
cpu1_ITLB RFO          ACCESS:          0 HIT:          0 MISS:          0
cpu1_ITLB PREFETCH     ACCESS:          0 HIT:          0 MISS:          0
cpu1_ITLB WRITE        ACCESS:          0 HIT:          0 MISS:          0
cpu1_ITLB TRANSLATION  ACCESS:          0 HIT:          0 MISS:          0
cpu1_ITLB PREFETCH REQUESTED:          0 ISSUED:          0 USEFUL:          0 USELESS:          0
cpu1_ITLB AVERAGE MISS LATENCY: 381.2 cycles
cpu1_ITLB TOTAL        ACCESS:          0 HIT:          0 MISS:          0
cpu1_ITLB LOAD         ACCESS:          0 HIT:          0 MISS:          0
cpu1_ITLB RFO          ACCESS:          0 HIT:          0 MISS:          0
cpu1_ITLB PREFETCH     ACCESS:          0 HIT:          0 MISS:          0
cpu1_ITLB WRITE        ACCESS:          0 HIT:          0 MISS:          0
cpu1_ITLB TRANSLATION  ACCESS:          0 HIT:          0 MISS:          0
cpu1_ITLB PREFETCH REQUESTED:          0 ISSUED:          0 USEFUL:          0 USELESS:          0
cpu1_ITLB AVERAGE MISS LATENCY: 381.2 cycles
cpu1_L1D TOTAL        ACCESS:          0 HIT:          0 MISS:          0
cpu1_L1D LOAD         ACCESS:          0 HIT:          0 MISS:          0
cpu1_L1D RFO          ACCESS:          0 HIT:          0 MISS:          0
cpu1_L1D PREFETCH     ACCESS:          0 HIT:          0 MISS:          0
cpu1_L1D WRITE        ACCESS:          0 HIT:          0 MISS:          0
cpu1_L1D TRANSLATION  ACCESS:          0 HIT:          0 MISS:          0
cpu1_L1D PREFETCH REQUESTED:          0 ISSUED:          0 USEFUL:          0 USELESS:          0
cpu1_L1D AVERAGE MISS LATENCY: 109.2 cycles
cpu1_L1D TOTAL        ACCESS:   85736546 HIT:   73722314 MISS:   12014232
cpu1_L1D LOAD         ACCESS:   50498886 HIT:   38521273 MISS:   11977613
cpu1_L1D RFO          ACCESS:          0 HIT:          0 MISS:          0
cpu1_L1D PREFETCH     ACCESS:          0 HIT:          0 MISS:          0
cpu1_L1D WRITE        ACCESS:   35169267 HIT:   35135374 MISS:      33893
cpu1_L1D TRANSLATION  ACCESS:      68393 HIT:      65667 MISS:       2726
cpu1_L1D PREFETCH REQUESTED:          0 ISSUED:          0 USEFUL:          0 USELESS:          0
cpu1_L1D AVERAGE MISS LATENCY: 109.2 cycles
cpu1_L1D TOTAL        ACCESS:          0 HIT:          0 MISS:          0
cpu1_L1D LOAD         ACCESS:          0 HIT:          0 MISS:          0
cpu1_L1D RFO          ACCESS:          0 HIT:          0 MISS:          0
cpu1_L1D PREFETCH     ACCESS:          0 HIT:          0 MISS:          0
cpu1_L1D WRITE        ACCESS:          0 HIT:          0 MISS:          0
cpu1_L1D TRANSLATION  ACCESS:          0 HIT:          0 MISS:          0
cpu1_L1D PREFETCH REQUESTED:          0 ISSUED:          0 USEFUL:          0 USELESS:          0
cpu1_L1D AVERAGE MISS LATENCY: 109.2 cycles
cpu1_L1D TOTAL        ACCESS:          0 HIT:          0 MISS:          0
cpu1_L1D LOAD         ACCESS:          0 HIT:          0 MISS:          0
cpu1_L1D RFO          ACCESS:          0 HIT:          0 MISS:          0
cpu1_L1D PREFETCH     ACCESS:          0 HIT:          0 MISS:          0
cpu1_L1D WRITE        ACCESS:          0 HIT:          0 MISS:          0
cpu1_L1D TRANSLATION  ACCESS:          0 HIT:          0 MISS:          0
cpu1_L1D PREFETCH REQUESTED:          0 ISSUED:          0 USEFUL:          0 USELESS:          0
cpu1_L1D AVERAGE MISS LATENCY: 109.2 cycles
cpu1_L1I TOTAL        ACCESS:          0 HIT:          0 MISS:          0
cpu1_L1I LOAD         ACCESS:          0 HIT:          0 MISS:          0
cpu1_L1I RFO          ACCESS:          0 HIT:          0 MISS:          0
cpu1_L1I PREFETCH     ACCESS:          0 HIT:          0 MISS:          0
cpu1_L1I WRITE        ACCESS:          0 HIT:          0 MISS:          0
cpu1_L1I TRANSLATION  ACCESS:          0 HIT:          0 MISS:          0
cpu1_L1I PREFETCH REQUESTED:          0 ISSUED:          0 USEFUL:          0 USELESS:          0
cpu1_L1I AVERAGE MISS LATENCY: 248.3 cycles
cpu1_L1I TOTAL        ACCESS:       3223 HIT:       2881 MISS:        342
cpu1_L1I LOAD         ACCESS:       3223 HIT:       2881 MISS:        342
cpu1_L1I RFO          ACCESS:          0 HIT:          0 MISS:          0
cpu1_L1I PREFETCH     ACCESS:          0 HIT:          0 MISS:          0
cpu1_L1I WRITE        ACCESS:          0 HIT:          0 MISS:          0
cpu1_L1I TRANSLATION  ACCESS:          0 HIT:          0 MISS:          0
cpu1_L1I PREFETCH REQUESTED:          0 ISSUED:          0 USEFUL:          0 USELESS:          0
cpu1_L1I AVERAGE MISS LATENCY: 248.3 cycles
cpu1_L1I TOTAL        ACCESS:          0 HIT:          0 MISS:          0
cpu1_L1I LOAD         ACCESS:          0 HIT:          0 MISS:          0
cpu1_L1I RFO          ACCESS:          0 HIT:          0 MISS:          0
cpu1_L1I PREFETCH     ACCESS:          0 HIT:          0 MISS:          0
cpu1_L1I WRITE        ACCESS:          0 HIT:          0 MISS:          0
cpu1_L1I TRANSLATION  ACCESS:          0 HIT:          0 MISS:          0
cpu1_L1I PREFETCH REQUESTED:          0 ISSUED:          0 USEFUL:          0 USELESS:          0
cpu1_L1I AVERAGE MISS LATENCY: 248.3 cycles
cpu1_L1I TOTAL        ACCESS:          0 HIT:          0 MISS:          0
cpu1_L1I LOAD         ACCESS:          0 HIT:          0 MISS:          0
cpu1_L1I RFO          ACCESS:          0 HIT:          0 MISS:          0
cpu1_L1I PREFETCH     ACCESS:          0 HIT:          0 MISS:          0
cpu1_L1I WRITE        ACCESS:          0 HIT:          0 MISS:          0
cpu1_L1I TRANSLATION  ACCESS:          0 HIT:          0 MISS:          0
cpu1_L1I PREFETCH REQUESTED:          0 ISSUED:          0 USEFUL:          0 USELESS:          0
cpu1_L1I AVERAGE MISS LATENCY: 248.3 cycles
cpu1_L2C TOTAL        ACCESS:          0 HIT:          0 MISS:          0
cpu1_L2C LOAD         ACCESS:          0 HIT:          0 MISS:          0
cpu1_L2C RFO          ACCESS:          0 HIT:          0 MISS:          0
cpu1_L2C PREFETCH     ACCESS:          0 HIT:          0 MISS:          0
cpu1_L2C WRITE        ACCESS:          0 HIT:          0 MISS:          0
cpu1_L2C TRANSLATION  ACCESS:          0 HIT:          0 MISS:          0
cpu1_L2C PREFETCH REQUESTED:   21357502 ISSUED:   21320551 USEFUL:    2860063 USELESS:        639
cpu1_L2C AVERAGE MISS LATENCY: 79.49 cycles
cpu1_L2C TOTAL        ACCESS:   32254740 HIT:   12414277 MISS:   19840463
cpu1_L2C LOAD         ACCESS:    6560605 HIT:    2319265 MISS:    4241340
cpu1_L2C RFO          ACCESS:       9622 HIT:       7979 MISS:       1643
cpu1_L2C PREFETCH     ACCESS:   21320550 HIT:    5724105 MISS:   15596445
cpu1_L2C WRITE        ACCESS:    4361257 HIT:    4361257 MISS:          0
cpu1_L2C TRANSLATION  ACCESS:       2706 HIT:       1671 MISS:       1035
cpu1_L2C PREFETCH REQUESTED:   21357502 ISSUED:   21320551 USEFUL:    2860063 USELESS:        639
cpu1_L2C AVERAGE MISS LATENCY: 79.49 cycles
cpu1_L2C TOTAL        ACCESS:          0 HIT:          0 MISS:          0
cpu1_L2C LOAD         ACCESS:          0 HIT:          0 MISS:          0
cpu1_L2C RFO          ACCESS:          0 HIT:          0 MISS:          0
cpu1_L2C PREFETCH     ACCESS:          0 HIT:          0 MISS:          0
cpu1_L2C WRITE        ACCESS:          0 HIT:          0 MISS:          0
cpu1_L2C TRANSLATION  ACCESS:          0 HIT:          0 MISS:          0
cpu1_L2C PREFETCH REQUESTED:   21357502 ISSUED:   21320551 USEFUL:    2860063 USELESS:        639
cpu1_L2C AVERAGE MISS LATENCY: 79.49 cycles
cpu1_L2C TOTAL        ACCESS:          0 HIT:          0 MISS:          0
cpu1_L2C LOAD         ACCESS:          0 HIT:          0 MISS:          0
cpu1_L2C RFO          ACCESS:          0 HIT:          0 MISS:          0
cpu1_L2C PREFETCH     ACCESS:          0 HIT:          0 MISS:          0
cpu1_L2C WRITE        ACCESS:          0 HIT:          0 MISS:          0
cpu1_L2C TRANSLATION  ACCESS:          0 HIT:          0 MISS:          0
cpu1_L2C PREFETCH REQUESTED:   21357502 ISSUED:   21320551 USEFUL:    2860063 USELESS:        639
cpu1_L2C AVERAGE MISS LATENCY: 79.49 cycles
cpu1_STLB TOTAL        ACCESS:          0 HIT:          0 MISS:          0
cpu1_STLB LOAD         ACCESS:          0 HIT:          0 MISS:          0
cpu1_STLB RFO          ACCESS:          0 HIT:          0 MISS:          0
cpu1_STLB PREFETCH     ACCESS:          0 HIT:          0 MISS:          0
cpu1_STLB WRITE        ACCESS:          0 HIT:          0 MISS:          0
cpu1_STLB TRANSLATION  ACCESS:          0 HIT:          0 MISS:          0
cpu1_STLB PREFETCH REQUESTED:          0 ISSUED:          0 USEFUL:          0 USELESS:          0
cpu1_STLB AVERAGE MISS LATENCY: 212.6 cycles
cpu1_STLB TOTAL        ACCESS:     116164 HIT:      48033 MISS:      68131
cpu1_STLB LOAD         ACCESS:     116164 HIT:      48033 MISS:      68131
cpu1_STLB RFO          ACCESS:          0 HIT:          0 MISS:          0
cpu1_STLB PREFETCH     ACCESS:          0 HIT:          0 MISS:          0
cpu1_STLB WRITE        ACCESS:          0 HIT:          0 MISS:          0
cpu1_STLB TRANSLATION  ACCESS:          0 HIT:          0 MISS:          0
cpu1_STLB PREFETCH REQUESTED:          0 ISSUED:          0 USEFUL:          0 USELESS:          0
cpu1_STLB AVERAGE MISS LATENCY: 212.6 cycles
cpu1_STLB TOTAL        ACCESS:          0 HIT:          0 MISS:          0
cpu1_STLB LOAD         ACCESS:          0 HIT:          0 MISS:          0
cpu1_STLB RFO          ACCESS:          0 HIT:          0 MISS:          0
cpu1_STLB PREFETCH     ACCESS:          0 HIT:          0 MISS:          0
cpu1_STLB WRITE        ACCESS:          0 HIT:          0 MISS:          0
cpu1_STLB TRANSLATION  ACCESS:          0 HIT:          0 MISS:          0
cpu1_STLB PREFETCH REQUESTED:          0 ISSUED:          0 USEFUL:          0 USELESS:          0
cpu1_STLB AVERAGE MISS LATENCY: 212.6 cycles
cpu1_STLB TOTAL        ACCESS:          0 HIT:          0 MISS:          0
cpu1_STLB LOAD         ACCESS:          0 HIT:          0 MISS:          0
cpu1_STLB RFO          ACCESS:          0 HIT:          0 MISS:          0
cpu1_STLB PREFETCH     ACCESS:          0 HIT:          0 MISS:          0
cpu1_STLB WRITE        ACCESS:          0 HIT:          0 MISS:          0
cpu1_STLB TRANSLATION  ACCESS:          0 HIT:          0 MISS:          0
cpu1_STLB PREFETCH REQUESTED:          0 ISSUED:          0 USEFUL:          0 USELESS:          0
cpu1_STLB AVERAGE MISS LATENCY: 212.6 cycles
cpu2_DTLB TOTAL        ACCESS:          0 HIT:          0 MISS:          0
cpu2_DTLB LOAD         ACCESS:          0 HIT:          0 MISS:          0
cpu2_DTLB RFO          ACCESS:          0 HIT:          0 MISS:          0
cpu2_DTLB PREFETCH     ACCESS:          0 HIT:          0 MISS:          0
cpu2_DTLB WRITE        ACCESS:          0 HIT:          0 MISS:          0
cpu2_DTLB TRANSLATION  ACCESS:          0 HIT:          0 MISS:          0
cpu2_DTLB PREFETCH REQUESTED:          0 ISSUED:          0 USEFUL:          0 USELESS:          0
cpu2_DTLB AVERAGE MISS LATENCY: 7.627 cycles
cpu2_DTLB TOTAL        ACCESS:          0 HIT:          0 MISS:          0
cpu2_DTLB LOAD         ACCESS:          0 HIT:          0 MISS:          0
cpu2_DTLB RFO          ACCESS:          0 HIT:          0 MISS:          0
cpu2_DTLB PREFETCH     ACCESS:          0 HIT:          0 MISS:          0
cpu2_DTLB WRITE        ACCESS:          0 HIT:          0 MISS:          0
cpu2_DTLB TRANSLATION  ACCESS:          0 HIT:          0 MISS:          0
cpu2_DTLB PREFETCH REQUESTED:          0 ISSUED:          0 USEFUL:          0 USELESS:          0
cpu2_DTLB AVERAGE MISS LATENCY: 7.627 cycles
cpu2_DTLB TOTAL        ACCESS:  151128481 HIT:  123399832 MISS:   27728649
cpu2_DTLB LOAD         ACCESS:  151128481 HIT:  123399832 MISS:   27728649
cpu2_DTLB RFO          ACCESS:          0 HIT:          0 MISS:          0
cpu2_DTLB PREFETCH     ACCESS:          0 HIT:          0 MISS:          0
cpu2_DTLB WRITE        ACCESS:          0 HIT:          0 MISS:          0
cpu2_DTLB TRANSLATION  ACCESS:          0 HIT:          0 MISS:          0
cpu2_DTLB PREFETCH REQUESTED:          0 ISSUED:          0 USEFUL:          0 USELESS:          0
cpu2_DTLB AVERAGE MISS LATENCY: 7.627 cycles
cpu2_DTLB TOTAL        ACCESS:          0 HIT:          0 MISS:          0
cpu2_DTLB LOAD         ACCESS:          0 HIT:          0 MISS:          0
cpu2_DTLB RFO          ACCESS:          0 HIT:          0 MISS:          0
cpu2_DTLB PREFETCH     ACCESS:          0 HIT:          0 MISS:          0
cpu2_DTLB WRITE        ACCESS:          0 HIT:          0 MISS:          0
cpu2_DTLB TRANSLATION  ACCESS:          0 HIT:          0 MISS:          0
cpu2_DTLB PREFETCH REQUESTED:          0 ISSUED:          0 USEFUL:          0 USELESS:          0
cpu2_DTLB AVERAGE MISS LATENCY: 7.627 cycles
cpu2_ITLB TOTAL        ACCESS:          0 HIT:          0 MISS:          0
cpu2_ITLB LOAD         ACCESS:          0 HIT:          0 MISS:          0
cpu2_ITLB RFO          ACCESS:          0 HIT:          0 MISS:          0
cpu2_ITLB PREFETCH     ACCESS:          0 HIT:          0 MISS:          0
cpu2_ITLB WRITE        ACCESS:          0 HIT:          0 MISS:          0
cpu2_ITLB TRANSLATION  ACCESS:          0 HIT:          0 MISS:          0
cpu2_ITLB PREFETCH REQUESTED:          0 ISSUED:          0 USEFUL:          0 USELESS:          0
cpu2_ITLB AVERAGE MISS LATENCY: 6.472 cycles
cpu2_ITLB TOTAL        ACCESS:          0 HIT:          0 MISS:          0
cpu2_ITLB LOAD         ACCESS:          0 HIT:          0 MISS:          0
cpu2_ITLB RFO          ACCESS:          0 HIT:          0 MISS:          0
cpu2_ITLB PREFETCH     ACCESS:          0 HIT:          0 MISS:          0
cpu2_ITLB WRITE        ACCESS:          0 HIT:          0 MISS:          0
cpu2_ITLB TRANSLATION  ACCESS:          0 HIT:          0 MISS:          0
cpu2_ITLB PREFETCH REQUESTED:          0 ISSUED:          0 USEFUL:          0 USELESS:          0
cpu2_ITLB AVERAGE MISS LATENCY: 6.472 cycles
cpu2_ITLB TOTAL        ACCESS:   23519796 HIT:   22988047 MISS:     531749
cpu2_ITLB LOAD         ACCESS:   23519796 HIT:   22988047 MISS:     531749
cpu2_ITLB RFO          ACCESS:          0 HIT:          0 MISS:          0
cpu2_ITLB PREFETCH     ACCESS:          0 HIT:          0 MISS:          0
cpu2_ITLB WRITE        ACCESS:          0 HIT:          0 MISS:          0
cpu2_ITLB TRANSLATION  ACCESS:          0 HIT:          0 MISS:          0
cpu2_ITLB PREFETCH REQUESTED:          0 ISSUED:          0 USEFUL:          0 USELESS:          0
cpu2_ITLB AVERAGE MISS LATENCY: 6.472 cycles
cpu2_ITLB TOTAL        ACCESS:          0 HIT:          0 MISS:          0
cpu2_ITLB LOAD         ACCESS:          0 HIT:          0 MISS:          0
cpu2_ITLB RFO          ACCESS:          0 HIT:          0 MISS:          0
cpu2_ITLB PREFETCH     ACCESS:          0 HIT:          0 MISS:          0
cpu2_ITLB WRITE        ACCESS:          0 HIT:          0 MISS:          0
cpu2_ITLB TRANSLATION  ACCESS:          0 HIT:          0 MISS:          0
cpu2_ITLB PREFETCH REQUESTED:          0 ISSUED:          0 USEFUL:          0 USELESS:          0
cpu2_ITLB AVERAGE MISS LATENCY: 6.472 cycles
cpu2_L1D TOTAL        ACCESS:          0 HIT:          0 MISS:          0
cpu2_L1D LOAD         ACCESS:          0 HIT:          0 MISS:          0
cpu2_L1D RFO          ACCESS:          0 HIT:          0 MISS:          0
cpu2_L1D PREFETCH     ACCESS:          0 HIT:          0 MISS:          0
cpu2_L1D WRITE        ACCESS:          0 HIT:          0 MISS:          0
cpu2_L1D TRANSLATION  ACCESS:          0 HIT:          0 MISS:          0
cpu2_L1D PREFETCH REQUESTED:          0 ISSUED:          0 USEFUL:          0 USELESS:          0
cpu2_L1D AVERAGE MISS LATENCY: 33.44 cycles
cpu2_L1D TOTAL        ACCESS:          0 HIT:          0 MISS:          0
cpu2_L1D LOAD         ACCESS:          0 HIT:          0 MISS:          0
cpu2_L1D RFO          ACCESS:          0 HIT:          0 MISS:          0
cpu2_L1D PREFETCH     ACCESS:          0 HIT:          0 MISS:          0
cpu2_L1D WRITE        ACCESS:          0 HIT:          0 MISS:          0
cpu2_L1D TRANSLATION  ACCESS:          0 HIT:          0 MISS:          0
cpu2_L1D PREFETCH REQUESTED:          0 ISSUED:          0 USEFUL:          0 USELESS:          0
cpu2_L1D AVERAGE MISS LATENCY: 33.44 cycles
cpu2_L1D TOTAL        ACCESS:  190646589 HIT:  140301886 MISS:   50344703
cpu2_L1D LOAD         ACCESS:  138407558 HIT:   93809595 MISS:   44597963
cpu2_L1D RFO          ACCESS:          0 HIT:          0 MISS:          0
cpu2_L1D PREFETCH     ACCESS:          0 HIT:          0 MISS:          0
cpu2_L1D WRITE        ACCESS:   51045509 HIT:   46438954 MISS:    4606555
cpu2_L1D TRANSLATION  ACCESS:    1193522 HIT:      53337 MISS:    1140185
cpu2_L1D PREFETCH REQUESTED:          0 ISSUED:          0 USEFUL:          0 USELESS:          0
cpu2_L1D AVERAGE MISS LATENCY: 33.44 cycles
cpu2_L1D TOTAL        ACCESS:          0 HIT:          0 MISS:          0
cpu2_L1D LOAD         ACCESS:          0 HIT:          0 MISS:          0
cpu2_L1D RFO          ACCESS:          0 HIT:          0 MISS:          0
cpu2_L1D PREFETCH     ACCESS:          0 HIT:          0 MISS:          0
cpu2_L1D WRITE        ACCESS:          0 HIT:          0 MISS:          0
cpu2_L1D TRANSLATION  ACCESS:          0 HIT:          0 MISS:          0
cpu2_L1D PREFETCH REQUESTED:          0 ISSUED:          0 USEFUL:          0 USELESS:          0
cpu2_L1D AVERAGE MISS LATENCY: 33.44 cycles
cpu2_L1I TOTAL        ACCESS:          0 HIT:          0 MISS:          0
cpu2_L1I LOAD         ACCESS:          0 HIT:          0 MISS:          0
cpu2_L1I RFO          ACCESS:          0 HIT:          0 MISS:          0
cpu2_L1I PREFETCH     ACCESS:          0 HIT:          0 MISS:          0
cpu2_L1I WRITE        ACCESS:          0 HIT:          0 MISS:          0
cpu2_L1I TRANSLATION  ACCESS:          0 HIT:          0 MISS:          0
cpu2_L1I PREFETCH REQUESTED:          0 ISSUED:          0 USEFUL:          0 USELESS:          0
cpu2_L1I AVERAGE MISS LATENCY: 12.8 cycles
cpu2_L1I TOTAL        ACCESS:          0 HIT:          0 MISS:          0
cpu2_L1I LOAD         ACCESS:          0 HIT:          0 MISS:          0
cpu2_L1I RFO          ACCESS:          0 HIT:          0 MISS:          0
cpu2_L1I PREFETCH     ACCESS:          0 HIT:          0 MISS:          0
cpu2_L1I WRITE        ACCESS:          0 HIT:          0 MISS:          0
cpu2_L1I TRANSLATION  ACCESS:          0 HIT:          0 MISS:          0
cpu2_L1I PREFETCH REQUESTED:          0 ISSUED:          0 USEFUL:          0 USELESS:          0
cpu2_L1I AVERAGE MISS LATENCY: 12.8 cycles
cpu2_L1I TOTAL        ACCESS:   28039785 HIT:   25594999 MISS:    2444786
cpu2_L1I LOAD         ACCESS:   28039785 HIT:   25594999 MISS:    2444786
cpu2_L1I RFO          ACCESS:          0 HIT:          0 MISS:          0
cpu2_L1I PREFETCH     ACCESS:          0 HIT:          0 MISS:          0
cpu2_L1I WRITE        ACCESS:          0 HIT:          0 MISS:          0
cpu2_L1I TRANSLATION  ACCESS:          0 HIT:          0 MISS:          0
cpu2_L1I PREFETCH REQUESTED:          0 ISSUED:          0 USEFUL:          0 USELESS:          0
cpu2_L1I AVERAGE MISS LATENCY: 12.8 cycles
cpu2_L1I TOTAL        ACCESS:          0 HIT:          0 MISS:          0
[...]
cpu2_L1I PREFETCH REQUESTED:          0 ISSUED:          0 USEFUL:          0 USELESS:          0
cpu2_L1I AVERAGE MISS LATENCY: 12.8 cycles
cpu2_L1I TOTAL        ACCESS:          0 HIT:          0 MISS:          0
cpu2_L1I LOAD         ACCESS:          0 HIT:          0 MISS:          0
cpu2_L1I RFO          ACCESS:          0 HIT:          0 MISS:          0
cpu2_L1I PREFETCH     ACCESS:          0 HIT:          0 MISS:          0
cpu2_L1I WRITE        ACCESS:          0 HIT:          0 MISS:          0
cpu2_L1I TRANSLATION  ACCESS:          0 HIT:          0 MISS:          0
cpu2_L1I PREFETCH REQUESTED:          0 ISSUED:          0 USEFUL:          0 USELESS:          0
cpu2_L1I AVERAGE MISS LATENCY: 12.8 cycles
cpu2_L2C TOTAL        ACCESS:          0 HIT:          0 MISS:          0
cpu2_L2C LOAD         ACCESS:          0 HIT:          0 MISS:          0
cpu2_L2C RFO          ACCESS:          0 HIT:          0 MISS:          0
cpu2_L2C PREFETCH     ACCESS:          0 HIT:          0 MISS:          0
cpu2_L2C WRITE        ACCESS:          0 HIT:          0 MISS:          0
cpu2_L2C TRANSLATION  ACCESS:          0 HIT:          0 MISS:          0
cpu2_L2C PREFETCH REQUESTED:   42733016 ISSUED:   41943093 USEFUL:      16025 USELESS:      20523
cpu2_L2C AVERAGE MISS LATENCY: 82.25 cycles
cpu2_L2C TOTAL        ACCESS:          0 HIT:          0 MISS:          0
cpu2_L2C LOAD         ACCESS:          0 HIT:          0 MISS:          0
cpu2_L2C RFO          ACCESS:          0 HIT:          0 MISS:          0
cpu2_L2C PREFETCH     ACCESS:          0 HIT:          0 MISS:          0
cpu2_L2C WRITE        ACCESS:          0 HIT:          0 MISS:          0
cpu2_L2C TRANSLATION  ACCESS:          0 HIT:          0 MISS:          0
cpu2_L2C PREFETCH REQUESTED:   42733016 ISSUED:   41943093 USEFUL:      16025 USELESS:      20523
cpu2_L2C AVERAGE MISS LATENCY: 82.25 cycles
cpu2_L2C TOTAL        ACCESS:   17162313 HIT:   13584619 MISS:    3577694
cpu2_L2C LOAD         ACCESS:    7781691 HIT:    7421073 MISS:     360618
cpu2_L2C RFO          ACCESS:     204270 HIT:      39147 MISS:     165123
cpu2_L2C PREFETCH     ACCESS:    8582331 HIT:    5564122 MISS:    3018209
cpu2_L2C WRITE        ACCESS:     336452 HIT:     336425 MISS:         27
cpu2_L2C TRANSLATION  ACCESS:     257569 HIT:     223852 MISS:      33717
cpu2_L2C PREFETCH REQUESTED:   42733016 ISSUED:   41943093 USEFUL:      16025 USELESS:      20523
cpu2_L2C AVERAGE MISS LATENCY: 82.25 cycles
cpu2_L2C TOTAL        ACCESS:          0 HIT:          0 MISS:          0
cpu2_L2C LOAD         ACCESS:          0 HIT:          0 MISS:          0
cpu2_L2C RFO          ACCESS:          0 HIT:          0 MISS:          0
cpu2_L2C PREFETCH     ACCESS:          0 HIT:          0 MISS:          0
cpu2_L2C WRITE        ACCESS:          0 HIT:          0 MISS:          0
cpu2_L2C TRANSLATION  ACCESS:          0 HIT:          0 MISS:          0
cpu2_L2C PREFETCH REQUESTED:   42733016 ISSUED:   41943093 USEFUL:      16025 USELESS:      20523
cpu2_L2C AVERAGE MISS LATENCY: 82.25 cycles
cpu2_STLB TOTAL        ACCESS:          0 HIT:          0 MISS:          0
cpu2_STLB LOAD         ACCESS:          0 HIT:          0 MISS:          0
cpu2_STLB RFO          ACCESS:          0 HIT:          0 MISS:          0
cpu2_STLB PREFETCH     ACCESS:          0 HIT:          0 MISS:          0
cpu2_STLB WRITE        ACCESS:          0 HIT:          0 MISS:          0
cpu2_STLB TRANSLATION  ACCESS:          0 HIT:          0 MISS:          0
cpu2_STLB PREFETCH REQUESTED:          0 ISSUED:          0 USEFUL:          0 USELESS:          0
cpu2_STLB AVERAGE MISS LATENCY: 71.86 cycles
cpu2_STLB TOTAL        ACCESS:          0 HIT:          0 MISS:          0
cpu2_STLB LOAD         ACCESS:          0 HIT:          0 MISS:          0
cpu2_STLB RFO          ACCESS:          0 HIT:          0 MISS:          0
cpu2_STLB PREFETCH     ACCESS:          0 HIT:          0 MISS:          0
cpu2_STLB WRITE        ACCESS:          0 HIT:          0 MISS:          0
cpu2_STLB TRANSLATION  ACCESS:          0 HIT:          0 MISS:          0
cpu2_STLB PREFETCH REQUESTED:          0 ISSUED:          0 USEFUL:          0 USELESS:          0
cpu2_STLB AVERAGE MISS LATENCY: 71.86 cycles
cpu2_STLB TOTAL        ACCESS:    4509684 HIT:    4240718 MISS:     268966
cpu2_STLB LOAD         ACCESS:    4509684 HIT:    4240718 MISS:     268966
cpu2_STLB RFO          ACCESS:          0 HIT:          0 MISS:          0
cpu2_STLB PREFETCH     ACCESS:          0 HIT:          0 MISS:          0
cpu2_STLB WRITE        ACCESS:          0 HIT:          0 MISS:          0
cpu2_STLB TRANSLATION  ACCESS:          0 HIT:          0 MISS:          0
cpu2_STLB PREFETCH REQUESTED:          0 ISSUED:          0 USEFUL:          0 USELESS:          0
cpu2_STLB AVERAGE MISS LATENCY: 71.86 cycles
cpu2_STLB TOTAL        ACCESS:          0 HIT:          0 MISS:          0
cpu2_STLB LOAD         ACCESS:          0 HIT:          0 MISS:          0
cpu2_STLB RFO          ACCESS:          0 HIT:          0 MISS:          0
cpu2_STLB PREFETCH     ACCESS:          0 HIT:          0 MISS:          0
cpu2_STLB WRITE        ACCESS:          0 HIT:          0 MISS:          0
cpu2_STLB TRANSLATION  ACCESS:          0 HIT:          0 MISS:          0
cpu2_STLB PREFETCH REQUESTED:          0 ISSUED:          0 USEFUL:          0 USELESS:          0
cpu2_STLB AVERAGE MISS LATENCY: 71.86 cycles
cpu3_DTLB TOTAL        ACCESS:          0 HIT:          0 MISS:          0
cpu3_DTLB LOAD         ACCESS:          0 HIT:          0 MISS:          0
cpu3_DTLB RFO          ACCESS:          0 HIT:          0 MISS:          0
cpu3_DTLB PREFETCH     ACCESS:          0 HIT:          0 MISS:          0
cpu3_DTLB WRITE        ACCESS:          0 HIT:          0 MISS:          0
cpu3_DTLB TRANSLATION  ACCESS:          0 HIT:          0 MISS:          0
cpu3_DTLB PREFETCH REQUESTED:          0 ISSUED:          0 USEFUL:          0 USELESS:          0
cpu3_DTLB AVERAGE MISS LATENCY: 9.751 cycles
cpu3_DTLB TOTAL        ACCESS:          0 HIT:          0 MISS:          0
cpu3_DTLB LOAD         ACCESS:          0 HIT:          0 MISS:          0
cpu3_DTLB RFO          ACCESS:          0 HIT:          0 MISS:          0
cpu3_DTLB PREFETCH     ACCESS:          0 HIT:          0 MISS:          0
cpu3_DTLB WRITE        ACCESS:          0 HIT:          0 MISS:          0
cpu3_DTLB TRANSLATION  ACCESS:          0 HIT:          0 MISS:          0
cpu3_DTLB PREFETCH REQUESTED:          0 ISSUED:          0 USEFUL:          0 USELESS:          0
cpu3_DTLB AVERAGE MISS LATENCY: 9.751 cycles
cpu3_DTLB TOTAL        ACCESS:          0 HIT:          0 MISS:          0
cpu3_DTLB LOAD         ACCESS:          0 HIT:          0 MISS:          0
cpu3_DTLB RFO          ACCESS:          0 HIT:          0 MISS:          0
cpu3_DTLB PREFETCH     ACCESS:          0 HIT:          0 MISS:          0
cpu3_DTLB WRITE        ACCESS:          0 HIT:          0 MISS:          0
cpu3_DTLB TRANSLATION  ACCESS:          0 HIT:          0 MISS:          0
cpu3_DTLB PREFETCH REQUESTED:          0 ISSUED:          0 USEFUL:          0 USELESS:          0
cpu3_DTLB AVERAGE MISS LATENCY: 9.751 cycles
cpu3_DTLB TOTAL        ACCESS:   17700898 HIT:   17690513 MISS:      10385
cpu3_DTLB LOAD         ACCESS:   17700898 HIT:   17690513 MISS:      10385
cpu3_DTLB RFO          ACCESS:          0 HIT:          0 MISS:          0
cpu3_DTLB PREFETCH     ACCESS:          0 HIT:          0 MISS:          0
cpu3_DTLB WRITE        ACCESS:          0 HIT:          0 MISS:          0
cpu3_DTLB TRANSLATION  ACCESS:          0 HIT:          0 MISS:          0
cpu3_DTLB PREFETCH REQUESTED:          0 ISSUED:          0 USEFUL:          0 USELESS:          0
cpu3_DTLB AVERAGE MISS LATENCY: 9.751 cycles
cpu3_ITLB TOTAL        ACCESS:          0 HIT:          0 MISS:          0
cpu3_ITLB LOAD         ACCESS:          0 HIT:          0 MISS:          0
cpu3_ITLB RFO          ACCESS:          0 HIT:          0 MISS:          0
cpu3_ITLB PREFETCH     ACCESS:          0 HIT:          0 MISS:          0
cpu3_ITLB WRITE        ACCESS:          0 HIT:          0 MISS:          0
cpu3_ITLB TRANSLATION  ACCESS:          0 HIT:          0 MISS:          0
cpu3_ITLB PREFETCH REQUESTED:          0 ISSUED:          0 USEFUL:          0 USELESS:          0
cpu3_ITLB AVERAGE MISS LATENCY: 254.1 cycles
cpu3_ITLB TOTAL        ACCESS:          0 HIT:          0 MISS:          0
cpu3_ITLB LOAD         ACCESS:          0 HIT:          0 MISS:          0
cpu3_ITLB RFO          ACCESS:          0 HIT:          0 MISS:          0
cpu3_ITLB PREFETCH     ACCESS:          0 HIT:          0 MISS:          0
cpu3_ITLB WRITE        ACCESS:          0 HIT:          0 MISS:          0
cpu3_ITLB TRANSLATION  ACCESS:          0 HIT:          0 MISS:          0
cpu3_ITLB PREFETCH REQUESTED:          0 ISSUED:          0 USEFUL:          0 USELESS:          0
cpu3_ITLB AVERAGE MISS LATENCY: 254.1 cycles
cpu3_ITLB TOTAL        ACCESS:          0 HIT:          0 MISS:          0
cpu3_ITLB LOAD         ACCESS:          0 HIT:          0 MISS:          0
cpu3_ITLB RFO          ACCESS:          0 HIT:          0 MISS:          0
cpu3_ITLB PREFETCH     ACCESS:          0 HIT:          0 MISS:          0
cpu3_ITLB WRITE        ACCESS:          0 HIT:          0 MISS:          0
cpu3_ITLB TRANSLATION  ACCESS:          0 HIT:          0 MISS:          0
cpu3_ITLB PREFETCH REQUESTED:          0 ISSUED:          0 USEFUL:          0 USELESS:          0
cpu3_ITLB AVERAGE MISS LATENCY: 254.1 cycles
cpu3_ITLB TOTAL        ACCESS:     512753 HIT:     512753 MISS:          0
cpu3_ITLB LOAD         ACCESS:     512753 HIT:     512753 MISS:          0
cpu3_ITLB RFO          ACCESS:          0 HIT:          0 MISS:          0
cpu3_ITLB PREFETCH     ACCESS:          0 HIT:          0 MISS:          0
cpu3_ITLB WRITE        ACCESS:          0 HIT:          0 MISS:          0
cpu3_ITLB TRANSLATION  ACCESS:          0 HIT:          0 MISS:          0
cpu3_ITLB PREFETCH REQUESTED:          0 ISSUED:          0 USEFUL:          0 USELESS:          0
cpu3_ITLB AVERAGE MISS LATENCY: 254.1 cycles
cpu3_L1D TOTAL        ACCESS:          0 HIT:          0 MISS:          0
cpu3_L1D LOAD         ACCESS:          0 HIT:          0 MISS:          0
cpu3_L1D RFO          ACCESS:          0 HIT:          0 MISS:          0
cpu3_L1D PREFETCH     ACCESS:          0 HIT:          0 MISS:          0
cpu3_L1D WRITE        ACCESS:          0 HIT:          0 MISS:          0
cpu3_L1D TRANSLATION  ACCESS:          0 HIT:          0 MISS:          0
cpu3_L1D PREFETCH REQUESTED:          0 ISSUED:          0 USEFUL:          0 USELESS:          0
cpu3_L1D AVERAGE MISS LATENCY: 127.4 cycles
cpu3_L1D TOTAL        ACCESS:          0 HIT:          0 MISS:          0
cpu3_L1D LOAD         ACCESS:          0 HIT:          0 MISS:          0
cpu3_L1D RFO          ACCESS:          0 HIT:          0 MISS:          0
cpu3_L1D PREFETCH     ACCESS:          0 HIT:          0 MISS:          0
cpu3_L1D WRITE        ACCESS:          0 HIT:          0 MISS:          0
cpu3_L1D TRANSLATION  ACCESS:          0 HIT:          0 MISS:          0
cpu3_L1D PREFETCH REQUESTED:          0 ISSUED:          0 USEFUL:          0 USELESS:          0
cpu3_L1D AVERAGE MISS LATENCY: 127.4 cycles
cpu3_L1D TOTAL        ACCESS:          0 HIT:          0 MISS:          0
cpu3_L1D LOAD         ACCESS:          0 HIT:          0 MISS:          0
cpu3_L1D RFO          ACCESS:          0 HIT:          0 MISS:          0
cpu3_L1D PREFETCH     ACCESS:          0 HIT:          0 MISS:          0
cpu3_L1D WRITE        ACCESS:          0 HIT:          0 MISS:          0
cpu3_L1D TRANSLATION  ACCESS:          0 HIT:          0 MISS:          0
cpu3_L1D PREFETCH REQUESTED:          0 ISSUED:          0 USEFUL:          0 USELESS:          0
cpu3_L1D AVERAGE MISS LATENCY: 127.4 cycles
cpu3_L1D TOTAL        ACCESS:   22015378 HIT:   22005612 MISS:       9766
cpu3_L1D LOAD         ACCESS:   16452863 HIT:   16450310 MISS:       2553
cpu3_L1D RFO          ACCESS:          0 HIT:          0 MISS:          0
cpu3_L1D PREFETCH     ACCESS:          0 HIT:          0 MISS:          0
cpu3_L1D WRITE        ACCESS:    5562344 HIT:    5555284 MISS:       7060
cpu3_L1D TRANSLATION  ACCESS:        171 HIT:         18 MISS:        153
cpu3_L1D PREFETCH REQUESTED:          0 ISSUED:          0 USEFUL:          0 USELESS:          0
cpu3_L1D AVERAGE MISS LATENCY: 127.4 cycles
cpu3_L1I TOTAL        ACCESS:          0 HIT:          0 MISS:          0
cpu3_L1I LOAD         ACCESS:          0 HIT:          0 MISS:          0
cpu3_L1I RFO          ACCESS:          0 HIT:          0 MISS:          0
cpu3_L1I PREFETCH     ACCESS:          0 HIT:          0 MISS:          0
cpu3_L1I WRITE        ACCESS:          0 HIT:          0 MISS:          0
cpu3_L1I TRANSLATION  ACCESS:          0 HIT:          0 MISS:          0
cpu3_L1I PREFETCH REQUESTED:          0 ISSUED:          0 USEFUL:          0 USELESS:          0
cpu3_L1I AVERAGE MISS LATENCY: 12.84 cycles
cpu3_L1I TOTAL        ACCESS:          0 HIT:          0 MISS:          0
cpu3_L1I LOAD         ACCESS:          0 HIT:          0 MISS:          0
cpu3_L1I RFO          ACCESS:          0 HIT:          0 MISS:          0
cpu3_L1I PREFETCH     ACCESS:          0 HIT:          0 MISS:          0
cpu3_L1I WRITE        ACCESS:          0 HIT:          0 MISS:          0
cpu3_L1I TRANSLATION  ACCESS:          0 HIT:          0 MISS:          0
cpu3_L1I PREFETCH REQUESTED:          0 ISSUED:          0 USEFUL:          0 USELESS:          0
cpu3_L1I AVERAGE MISS LATENCY: 12.84 cycles
cpu3_L1I TOTAL        ACCESS:          0 HIT:          0 MISS:          0
cpu3_L1I LOAD         ACCESS:          0 HIT:          0 MISS:          0
cpu3_L1I RFO          ACCESS:          0 HIT:          0 MISS:          0
cpu3_L1I PREFETCH     ACCESS:          0 HIT:          0 MISS:          0
cpu3_L1I WRITE        ACCESS:          0 HIT:          0 MISS:          0
cpu3_L1I TRANSLATION  ACCESS:          0 HIT:          0 MISS:          0
cpu3_L1I PREFETCH REQUESTED:          0 ISSUED:          0 USEFUL:          0 USELESS:          0
cpu3_L1I AVERAGE MISS LATENCY: 12.84 cycles
cpu3_L1I TOTAL        ACCESS:     550974 HIT:     549516 MISS:       1458
cpu3_L1I LOAD         ACCESS:     550974 HIT:     549516 MISS:       1458
cpu3_L1I RFO          ACCESS:          0 HIT:          0 MISS:          0
cpu3_L1I PREFETCH     ACCESS:          0 HIT:          0 MISS:          0
cpu3_L1I WRITE        ACCESS:          0 HIT:          0 MISS:          0
cpu3_L1I TRANSLATION  ACCESS:          0 HIT:          0 MISS:          0
cpu3_L1I PREFETCH REQUESTED:          0 ISSUED:          0 USEFUL:          0 USELESS:          0
cpu3_L1I AVERAGE MISS LATENCY: 12.84 cycles
cpu3_L2C TOTAL        ACCESS:          0 HIT:          0 MISS:          0
cpu3_L2C LOAD         ACCESS:          0 HIT:          0 MISS:          0
cpu3_L2C RFO          ACCESS:          0 HIT:          0 MISS:          0
cpu3_L2C PREFETCH     ACCESS:          0 HIT:          0 MISS:          0
cpu3_L2C WRITE        ACCESS:          0 HIT:          0 MISS:          0
cpu3_L2C TRANSLATION  ACCESS:          0 HIT:          0 MISS:          0
cpu3_L2C PREFETCH REQUESTED:   24554951 ISSUED:   21855707 USEFUL:    1600815 USELESS:      18429
cpu3_L2C AVERAGE MISS LATENCY: 148.3 cycles
cpu3_L2C TOTAL        ACCESS:          0 HIT:          0 MISS:          0
cpu3_L2C LOAD         ACCESS:          0 HIT:          0 MISS:          0
cpu3_L2C RFO          ACCESS:          0 HIT:          0 MISS:          0
cpu3_L2C PREFETCH     ACCESS:          0 HIT:          0 MISS:          0
cpu3_L2C WRITE        ACCESS:          0 HIT:          0 MISS:          0
cpu3_L2C TRANSLATION  ACCESS:          0 HIT:          0 MISS:          0
cpu3_L2C PREFETCH REQUESTED:   24554951 ISSUED:   21855707 USEFUL:    1600815 USELESS:      18429
cpu3_L2C AVERAGE MISS LATENCY: 148.3 cycles
cpu3_L2C TOTAL        ACCESS:          0 HIT:          0 MISS:          0
cpu3_L2C LOAD         ACCESS:          0 HIT:          0 MISS:          0
cpu3_L2C RFO          ACCESS:          0 HIT:          0 MISS:          0
cpu3_L2C PREFETCH     ACCESS:          0 HIT:          0 MISS:          0
cpu3_L2C WRITE        ACCESS:          0 HIT:          0 MISS:          0
cpu3_L2C TRANSLATION  ACCESS:          0 HIT:          0 MISS:          0
cpu3_L2C PREFETCH REQUESTED:   24554951 ISSUED:   21855707 USEFUL:    1600815 USELESS:      18429
cpu3_L2C AVERAGE MISS LATENCY: 148.3 cycles
cpu3_L2C TOTAL        ACCESS:      12745 HIT:       5880 MISS:       6865
cpu3_L2C LOAD         ACCESS:       2780 HIT:       1311 MISS:       1469
cpu3_L2C RFO          ACCESS:       2560 HIT:         72 MISS:       2488
cpu3_L2C PREFETCH     ACCESS:       4197 HIT:       1387 MISS:       2810
cpu3_L2C WRITE        ACCESS:       3055 HIT:       3052 MISS:          3
cpu3_L2C TRANSLATION  ACCESS:        153 HIT:         58 MISS:         95
cpu3_L2C PREFETCH REQUESTED:   24554951 ISSUED:   21855707 USEFUL:    1600815 USELESS:      18429
cpu3_L2C AVERAGE MISS LATENCY: 148.3 cycles
cpu3_STLB TOTAL        ACCESS:          0 HIT:          0 MISS:          0
cpu3_STLB LOAD         ACCESS:          0 HIT:          0 MISS:          0
cpu3_STLB RFO          ACCESS:          0 HIT:          0 MISS:          0
cpu3_STLB PREFETCH     ACCESS:          0 HIT:          0 MISS:          0
cpu3_STLB WRITE        ACCESS:          0 HIT:          0 MISS:          0
cpu3_STLB TRANSLATION  ACCESS:          0 HIT:          0 MISS:          0
cpu3_STLB PREFETCH REQUESTED:          0 ISSUED:          0 USEFUL:          0 USELESS:          0
cpu3_STLB AVERAGE MISS LATENCY: 225.8 cycles
cpu3_STLB TOTAL        ACCESS:          0 HIT:          0 MISS:          0
cpu3_STLB LOAD         ACCESS:          0 HIT:          0 MISS:          0
cpu3_STLB RFO          ACCESS:          0 HIT:          0 MISS:          0
cpu3_STLB PREFETCH     ACCESS:          0 HIT:          0 MISS:          0
cpu3_STLB WRITE        ACCESS:          0 HIT:          0 MISS:          0
cpu3_STLB TRANSLATION  ACCESS:          0 HIT:          0 MISS:          0
cpu3_STLB PREFETCH REQUESTED:          0 ISSUED:          0 USEFUL:          0 USELESS:          0
cpu3_STLB AVERAGE MISS LATENCY: 225.8 cycles
cpu3_STLB TOTAL        ACCESS:          0 HIT:          0 MISS:          0
cpu3_STLB LOAD         ACCESS:          0 HIT:          0 MISS:          0
cpu3_STLB RFO          ACCESS:          0 HIT:          0 MISS:          0
cpu3_STLB PREFETCH     ACCESS:          0 HIT:          0 MISS:          0
cpu3_STLB WRITE        ACCESS:          0 HIT:          0 MISS:          0
cpu3_STLB TRANSLATION  ACCESS:          0 HIT:          0 MISS:          0
cpu3_STLB PREFETCH REQUESTED:          0 ISSUED:          0 USEFUL:          0 USELESS:          0
cpu3_STLB AVERAGE MISS LATENCY: 225.8 cycles
cpu3_STLB TOTAL        ACCESS:       9174 HIT:       9004 MISS:        170
cpu3_STLB LOAD         ACCESS:       9174 HIT:       9004 MISS:        170
cpu3_STLB RFO          ACCESS:          0 HIT:          0 MISS:          0
cpu3_STLB PREFETCH     ACCESS:          0 HIT:          0 MISS:          0
cpu3_STLB WRITE        ACCESS:          0 HIT:          0 MISS:          0
cpu3_STLB TRANSLATION  ACCESS:          0 HIT:          0 MISS:          0
cpu3_STLB PREFETCH REQUESTED:          0 ISSUED:          0 USEFUL:          0 USELESS:          0
cpu3_STLB AVERAGE MISS LATENCY: 225.8 cycles

DRAM Statistics

Channel 0 RQ ROW_BUFFER_HIT:     647763
  ROW_BUFFER_MISS:    5656420
 AVG DBUS CONGESTED CYCLE: 3.984
WQ ROW_BUFFER_HIT: Channel 0 
  ROW_BUFFER_MISS:      89392
  FULL:    3830807

Channel 1 RQ ROW_BUFFER_HIT:     648195
  ROW_BUFFER_MISS:    5664366
 AVG DBUS CONGESTED CYCLE: 3.985
WQ ROW_BUFFER_HIT: Channel 1 
  ROW_BUFFER_MISS:      88847
  FULL:    3830240
