Original cmd-> /home/grads/r/rdas40/ECEN676/ChampSim/bin/multi_core/spp_2ch --warmup_instructions=50000000 --simulation_instructions=150000000  /home/grads/r/rdas40/dpc3_traces/620.omnetpp_s-874B.champsimtrace.xz /home/grads/r/rdas40/dpc3_traces/607.cactuBSSN_s-2421B.champsimtrace.xz /home/grads/r/rdas40/dpc3_traces/605.mcf_s-665B.champsimtrace.xz /home/grads/r/rdas40/dpc3_traces/628.pop2_s-17B.champsimtrace.xz
WARNING: physical memory size is smaller than virtual memory size.
WARNING: option --warmup_instructions is deprecated. Use --warmup-instructions instead.
WARNING: option --simulation_instructions is deprecated. Use --simulation-instructions instead.

*** ChampSim Multicore Out-of-Order Simulator ***
Warmup Instructions: 50000000
Simulation Instructions: 150000000
Number of CPUs: 4
Page size: 4096

Initialize SIGNATURE TABLE
ST_SET: 1
ST_WAY: 256
ST_TAG_BIT: 16
ST_TAG_MASK: ffff

Initialize PATTERN TABLE
PT_SET: 512
PT_WAY: 4
SIG_DELTA_BIT: 7
C_SIG_BIT: 4
C_DELTA_BIT: 4

Initialize PREFETCH FILTER
FILTER_SET: 1024
Initialize SIGNATURE TABLE
ST_SET: 1
ST_WAY: 256
ST_TAG_BIT: 16
ST_TAG_MASK: ffff

Initialize PATTERN TABLE
PT_SET: 512
PT_WAY: 4
SIG_DELTA_BIT: 7
C_SIG_BIT: 4
C_DELTA_BIT: 4

Initialize PREFETCH FILTER
FILTER_SET: 1024
Initialize SIGNATURE TABLE
ST_SET: 1
ST_WAY: 256
ST_TAG_BIT: 16
ST_TAG_MASK: ffff

Initialize PATTERN TABLE
PT_SET: 512
PT_WAY: 4
SIG_DELTA_BIT: 7
C_SIG_BIT: 4
C_DELTA_BIT: 4

Initialize PREFETCH FILTER
FILTER_SET: 1024
Initialize SIGNATURE TABLE
ST_SET: 1
ST_WAY: 256
ST_TAG_BIT: 16
ST_TAG_MASK: ffff

Initialize PATTERN TABLE
PT_SET: 512
PT_WAY: 4
SIG_DELTA_BIT: 7
C_SIG_BIT: 4
C_DELTA_BIT: 4

Initialize PREFETCH FILTER
FILTER_SET: 1024
Off-chip DRAM Size: 8 GiB Channels: 2 Width: 64-bit Data Race: 3200 MT/s
Heartbeat CPU 3 instructions: 10000004 cycles: 2653321 heartbeat IPC: 3.769 cumulative IPC: 3.769 (Simulation time: 00 hr 03 min 28 sec)
Heartbeat CPU 2 instructions: 10000003 cycles: 3015663 heartbeat IPC: 3.316 cumulative IPC: 3.316 (Simulation time: 00 hr 03 min 56 sec)
Heartbeat CPU 1 instructions: 10000001 cycles: 3679107 heartbeat IPC: 2.718 cumulative IPC: 2.718 (Simulation time: 00 hr 04 min 47 sec)
Heartbeat CPU 0 instructions: 10000002 cycles: 4175085 heartbeat IPC: 2.395 cumulative IPC: 2.395 (Simulation time: 00 hr 05 min 27 sec)
Heartbeat CPU 3 instructions: 20000001 cycles: 5307220 heartbeat IPC: 3.768 cumulative IPC: 3.768 (Simulation time: 00 hr 06 min 55 sec)
Heartbeat CPU 2 instructions: 20000003 cycles: 6039619 heartbeat IPC: 3.307 cumulative IPC: 3.311 (Simulation time: 00 hr 07 min 52 sec)
Heartbeat CPU 1 instructions: 20000001 cycles: 7359909 heartbeat IPC: 2.717 cumulative IPC: 2.717 (Simulation time: 00 hr 09 min 35 sec)
Heartbeat CPU 3 instructions: 30000003 cycles: 7960623 heartbeat IPC: 3.769 cumulative IPC: 3.769 (Simulation time: 00 hr 10 min 22 sec)
Heartbeat CPU 0 instructions: 20000004 cycles: 8347987 heartbeat IPC: 2.396 cumulative IPC: 2.396 (Simulation time: 00 hr 10 min 52 sec)
Heartbeat CPU 2 instructions: 30000003 cycles: 9055999 heartbeat IPC: 3.315 cumulative IPC: 3.313 (Simulation time: 00 hr 11 min 48 sec)
Heartbeat CPU 3 instructions: 40000000 cycles: 10613622 heartbeat IPC: 3.769 cumulative IPC: 3.769 (Simulation time: 00 hr 13 min 50 sec)
Heartbeat CPU 1 instructions: 30000002 cycles: 11041249 heartbeat IPC: 2.716 cumulative IPC: 2.717 (Simulation time: 00 hr 14 min 23 sec)
Heartbeat CPU 2 instructions: 40000002 cycles: 12070482 heartbeat IPC: 3.317 cumulative IPC: 3.314 (Simulation time: 00 hr 15 min 44 sec)
Heartbeat CPU 0 instructions: 30000001 cycles: 12522913 heartbeat IPC: 2.395 cumulative IPC: 2.396 (Simulation time: 00 hr 16 min 20 sec)
Heartbeat CPU 3 instructions: 50000001 cycles: 13267208 heartbeat IPC: 3.768 cumulative IPC: 3.769 (Simulation time: 00 hr 17 min 18 sec)
Warmup finished CPU 3 instructions: 50000001 cycles: 13267209 cumulative IPC: 3.769 (Simulation time: 00 hr 17 min 18 sec)
Heartbeat CPU 1 instructions: 40000000 cycles: 14720531 heartbeat IPC: 2.718 cumulative IPC: 2.717 (Simulation time: 00 hr 19 min 12 sec)
Heartbeat CPU 2 instructions: 50000002 cycles: 15073850 heartbeat IPC: 3.33 cumulative IPC: 3.317 (Simulation time: 00 hr 19 min 40 sec)
Warmup finished CPU 2 instructions: 50000002 cycles: 15073851 cumulative IPC: 3.317 (Simulation time: 00 hr 19 min 40 sec)
Heartbeat CPU 3 instructions: 60000000 cycles: 15923469 heartbeat IPC: 3.765 cumulative IPC: 3.768 (Simulation time: 00 hr 20 min 47 sec)
Heartbeat CPU 0 instructions: 40000004 cycles: 16708445 heartbeat IPC: 2.389 cumulative IPC: 2.394 (Simulation time: 00 hr 21 min 48 sec)
Heartbeat CPU 2 instructions: 60000003 cycles: 18090635 heartbeat IPC: 3.315 cumulative IPC: 3.317 (Simulation time: 00 hr 23 min 37 sec)
Heartbeat CPU 1 instructions: 50000002 cycles: 18400787 heartbeat IPC: 2.717 cumulative IPC: 2.717 (Simulation time: 00 hr 24 min 01 sec)
Warmup finished CPU 1 instructions: 50000002 cycles: 18400788 cumulative IPC: 2.717 (Simulation time: 00 hr 24 min 01 sec)
Heartbeat CPU 3 instructions: 70000002 cycles: 18585435 heartbeat IPC: 3.757 cumulative IPC: 3.766 (Simulation time: 00 hr 24 min 16 sec)
Heartbeat CPU 0 instructions: 50000003 cycles: 20875012 heartbeat IPC: 2.4 cumulative IPC: 2.395 (Simulation time: 00 hr 27 min 14 sec)
Warmup finished CPU 0 instructions: 50000003 cycles: 20875013 cumulative IPC: 2.395 (Simulation time: 00 hr 27 min 14 sec)
Warmup complete CPU 0 instructions: 50000003 cycles: 20875013 cumulative IPC: 2.395 (Simulation time: 00 hr 27 min 14 sec)
Warmup complete CPU 1 instructions: 56472460 cycles: 20875013 cumulative IPC: 2.705 (Simulation time: 00 hr 27 min 14 sec)
Warmup complete CPU 2 instructions: 69231213 cycles: 20875013 cumulative IPC: 3.316 (Simulation time: 00 hr 27 min 14 sec)
Warmup complete CPU 3 instructions: 78826596 cycles: 20875013 cumulative IPC: 3.776 (Simulation time: 00 hr 27 min 14 sec)
Heartbeat CPU 3 instructions: 80000000 cycles: 21770327 heartbeat IPC: 3.14 cumulative IPC: 1.311 (Simulation time: 00 hr 27 min 53 sec)
Heartbeat CPU 2 instructions: 70000000 cycles: 22709364 heartbeat IPC: 2.165 cumulative IPC: 0.4191 (Simulation time: 00 hr 28 min 36 sec)
Heartbeat CPU 1 instructions: 60000002 cycles: 23670839 heartbeat IPC: 1.898 cumulative IPC: 1.262 (Simulation time: 00 hr 29 min 16 sec)
Heartbeat CPU 3 instructions: 90000001 cycles: 26929330 heartbeat IPC: 1.938 cumulative IPC: 1.846 (Simulation time: 00 hr 31 min 46 sec)
Heartbeat CPU 1 instructions: 70000004 cycles: 31787460 heartbeat IPC: 1.232 cumulative IPC: 1.24 (Simulation time: 00 hr 35 min 25 sec)
Heartbeat CPU 3 instructions: 100000002 cycles: 32068400 heartbeat IPC: 1.946 cumulative IPC: 1.892 (Simulation time: 00 hr 35 min 37 sec)
Heartbeat CPU 3 instructions: 110000001 cycles: 37783025 heartbeat IPC: 1.75 cumulative IPC: 1.844 (Simulation time: 00 hr 39 min 39 sec)
Heartbeat CPU 1 instructions: 80000000 cycles: 42452087 heartbeat IPC: 0.9377 cumulative IPC: 1.09 (Simulation time: 00 hr 42 min 46 sec)
Heartbeat CPU 3 instructions: 120000003 cycles: 44005935 heartbeat IPC: 1.607 cumulative IPC: 1.78 (Simulation time: 00 hr 43 min 54 sec)
Heartbeat CPU 3 instructions: 130000002 cycles: 49144622 heartbeat IPC: 1.946 cumulative IPC: 1.81 (Simulation time: 00 hr 47 min 36 sec)
Heartbeat CPU 1 instructions: 90000000 cycles: 51392020 heartbeat IPC: 1.119 cumulative IPC: 1.099 (Simulation time: 00 hr 49 min 05 sec)
Heartbeat CPU 3 instructions: 140000003 cycles: 53654739 heartbeat IPC: 2.217 cumulative IPC: 1.866 (Simulation time: 00 hr 50 min 45 sec)
Heartbeat CPU 0 instructions: 60000003 cycles: 57582313 heartbeat IPC: 0.2724 cumulative IPC: 0.2724 (Simulation time: 00 hr 53 min 31 sec)
Heartbeat CPU 3 instructions: 150000000 cycles: 58712487 heartbeat IPC: 1.977 cumulative IPC: 1.881 (Simulation time: 00 hr 54 min 21 sec)
Heartbeat CPU 1 instructions: 100000000 cycles: 60074385 heartbeat IPC: 1.152 cumulative IPC: 1.11 (Simulation time: 00 hr 55 min 21 sec)
Heartbeat CPU 3 instructions: 160000000 cycles: 63870096 heartbeat IPC: 1.939 cumulative IPC: 1.888 (Simulation time: 00 hr 57 min 59 sec)
Heartbeat CPU 2 instructions: 80000000 cycles: 64040497 heartbeat IPC: 0.2419 cumulative IPC: 0.2495 (Simulation time: 00 hr 58 min 08 sec)
Heartbeat CPU 1 instructions: 110000003 cycles: 68524581 heartbeat IPC: 1.183 cumulative IPC: 1.123 (Simulation time: 01 hr 01 min 26 sec)
Heartbeat CPU 3 instructions: 170000000 cycles: 68634652 heartbeat IPC: 2.099 cumulative IPC: 1.909 (Simulation time: 01 hr 01 min 30 sec)
Heartbeat CPU 3 instructions: 180000003 cycles: 74771698 heartbeat IPC: 1.629 cumulative IPC: 1.877 (Simulation time: 01 hr 06 min 00 sec)
Heartbeat CPU 1 instructions: 120000001 cycles: 76515687 heartbeat IPC: 1.251 cumulative IPC: 1.142 (Simulation time: 01 hr 07 min 21 sec)
Heartbeat CPU 3 instructions: 190000001 cycles: 80195529 heartbeat IPC: 1.844 cumulative IPC: 1.874 (Simulation time: 01 hr 10 min 06 sec)
Heartbeat CPU 1 instructions: 130000004 cycles: 84384047 heartbeat IPC: 1.271 cumulative IPC: 1.158 (Simulation time: 01 hr 13 min 17 sec)
Heartbeat CPU 3 instructions: 200000002 cycles: 85584856 heartbeat IPC: 1.856 cumulative IPC: 1.873 (Simulation time: 01 hr 14 min 13 sec)
Heartbeat CPU 0 instructions: 70000002 cycles: 87958339 heartbeat IPC: 0.3292 cumulative IPC: 0.2981 (Simulation time: 01 hr 16 min 00 sec)
Heartbeat CPU 3 instructions: 210000003 cycles: 91092427 heartbeat IPC: 1.816 cumulative IPC: 1.868 (Simulation time: 01 hr 18 min 23 sec)
Heartbeat CPU 1 instructions: 140000003 cycles: 92075428 heartbeat IPC: 1.3 cumulative IPC: 1.173 (Simulation time: 01 hr 19 min 10 sec)
Heartbeat CPU 3 instructions: 220000004 cycles: 96732476 heartbeat IPC: 1.773 cumulative IPC: 1.861 (Simulation time: 01 hr 22 min 38 sec)
Heartbeat CPU 2 instructions: 90000004 cycles: 97890819 heartbeat IPC: 0.2954 cumulative IPC: 0.2697 (Simulation time: 01 hr 23 min 29 sec)
Heartbeat CPU 1 instructions: 150000004 cycles: 100142186 heartbeat IPC: 1.24 cumulative IPC: 1.18 (Simulation time: 01 hr 25 min 13 sec)
Simulation finished CPU 3 instructions: 150000003 cycles: 80722927 cumulative IPC: 1.858 (Simulation time: 01 hr 26 min 19 sec)
Heartbeat CPU 3 instructions: 230000003 cycles: 102220473 heartbeat IPC: 1.822 cumulative IPC: 1.858 (Simulation time: 01 hr 26 min 49 sec)
Heartbeat CPU 1 instructions: 160000004 cycles: 107673351 heartbeat IPC: 1.328 cumulative IPC: 1.193 (Simulation time: 01 hr 30 min 59 sec)
Heartbeat CPU 3 instructions: 240000002 cycles: 107693485 heartbeat IPC: 1.827 cumulative IPC: 1.856 (Simulation time: 01 hr 31 min 00 sec)
Heartbeat CPU 3 instructions: 250000003 cycles: 112963800 heartbeat IPC: 1.897 cumulative IPC: 1.859 (Simulation time: 01 hr 35 min 01 sec)
Heartbeat CPU 1 instructions: 170000000 cycles: 115304823 heartbeat IPC: 1.31 cumulative IPC: 1.202 (Simulation time: 01 hr 36 min 53 sec)
Heartbeat CPU 3 instructions: 260000000 cycles: 118470747 heartbeat IPC: 1.816 cumulative IPC: 1.856 (Simulation time: 01 hr 39 min 08 sec)
Heartbeat CPU 0 instructions: 80000002 cycles: 118781099 heartbeat IPC: 0.3244 cumulative IPC: 0.3064 (Simulation time: 01 hr 39 min 21 sec)
Heartbeat CPU 1 instructions: 180000003 cycles: 123051117 heartbeat IPC: 1.291 cumulative IPC: 1.209 (Simulation time: 01 hr 42 min 39 sec)
Heartbeat CPU 3 instructions: 270000001 cycles: 123301276 heartbeat IPC: 2.07 cumulative IPC: 1.866 (Simulation time: 01 hr 42 min 49 sec)
Heartbeat CPU 2 instructions: 100000000 cycles: 126475704 heartbeat IPC: 0.3498 cumulative IPC: 0.2914 (Simulation time: 01 hr 45 min 11 sec)
Heartbeat CPU 3 instructions: 280000004 cycles: 128575099 heartbeat IPC: 1.896 cumulative IPC: 1.868 (Simulation time: 01 hr 46 min 47 sec)
Heartbeat CPU 1 instructions: 190000003 cycles: 131641310 heartbeat IPC: 1.164 cumulative IPC: 1.205 (Simulation time: 01 hr 48 min 59 sec)
Heartbeat CPU 3 instructions: 290000003 cycles: 134507974 heartbeat IPC: 1.686 cumulative IPC: 1.858 (Simulation time: 01 hr 50 min 59 sec)
Heartbeat CPU 3 instructions: 300000000 cycles: 140880815 heartbeat IPC: 1.569 cumulative IPC: 1.843 (Simulation time: 01 hr 55 min 22 sec)
Heartbeat CPU 1 instructions: 200000002 cycles: 142060179 heartbeat IPC: 0.9598 cumulative IPC: 1.184 (Simulation time: 01 hr 56 min 13 sec)
Heartbeat CPU 3 instructions: 310000002 cycles: 146090962 heartbeat IPC: 1.919 cumulative IPC: 1.846 (Simulation time: 01 hr 59 min 11 sec)
Simulation finished CPU 1 instructions: 150000002 cycles: 126591621 cumulative IPC: 1.185 (Simulation time: 02 hr 00 min 08 sec)
Heartbeat CPU 1 instructions: 210000002 cycles: 150658600 heartbeat IPC: 1.163 cumulative IPC: 1.183 (Simulation time: 02 hr 02 min 24 sec)
Heartbeat CPU 3 instructions: 320000003 cycles: 150864229 heartbeat IPC: 2.095 cumulative IPC: 1.855 (Simulation time: 02 hr 02 min 33 sec)
Heartbeat CPU 0 instructions: 90000001 cycles: 154416222 heartbeat IPC: 0.2806 cumulative IPC: 0.2995 (Simulation time: 02 hr 05 min 01 sec)
Heartbeat CPU 3 instructions: 330000002 cycles: 156322821 heartbeat IPC: 1.832 cumulative IPC: 1.854 (Simulation time: 02 hr 06 min 21 sec)
Heartbeat CPU 1 instructions: 220000002 cycles: 159524318 heartbeat IPC: 1.128 cumulative IPC: 1.179 (Simulation time: 02 hr 08 min 39 sec)
Heartbeat CPU 2 instructions: 110000000 cycles: 160739324 heartbeat IPC: 0.2919 cumulative IPC: 0.2915 (Simulation time: 02 hr 09 min 25 sec)
Heartbeat CPU 3 instructions: 340000000 cycles: 161890957 heartbeat IPC: 1.796 cumulative IPC: 1.852 (Simulation time: 02 hr 10 min 17 sec)
Heartbeat CPU 3 instructions: 350000000 cycles: 166855638 heartbeat IPC: 2.014 cumulative IPC: 1.858 (Simulation time: 02 hr 13 min 56 sec)
Heartbeat CPU 1 instructions: 230000003 cycles: 167996312 heartbeat IPC: 1.18 cumulative IPC: 1.179 (Simulation time: 02 hr 14 min 46 sec)
Heartbeat CPU 3 instructions: 360000001 cycles: 172772538 heartbeat IPC: 1.69 cumulative IPC: 1.851 (Simulation time: 02 hr 18 min 20 sec)
Heartbeat CPU 1 instructions: 240000003 cycles: 176062942 heartbeat IPC: 1.24 cumulative IPC: 1.183 (Simulation time: 02 hr 20 min 47 sec)
Heartbeat CPU 3 instructions: 370000002 cycles: 178353043 heartbeat IPC: 1.792 cumulative IPC: 1.849 (Simulation time: 02 hr 22 min 33 sec)
Heartbeat CPU 1 instructions: 250000002 cycles: 183710057 heartbeat IPC: 1.308 cumulative IPC: 1.188 (Simulation time: 02 hr 26 min 39 sec)
Heartbeat CPU 3 instructions: 380000001 cycles: 183754678 heartbeat IPC: 1.851 cumulative IPC: 1.849 (Simulation time: 02 hr 26 min 41 sec)
Heartbeat CPU 0 instructions: 100000000 cycles: 186496022 heartbeat IPC: 0.3117 cumulative IPC: 0.3019 (Simulation time: 02 hr 28 min 46 sec)
Heartbeat CPU 2 instructions: 120000003 cycles: 188518975 heartbeat IPC: 0.36 cumulative IPC: 0.3028 (Simulation time: 02 hr 30 min 18 sec)
Heartbeat CPU 3 instructions: 390000000 cycles: 189231932 heartbeat IPC: 1.826 cumulative IPC: 1.848 (Simulation time: 02 hr 30 min 53 sec)
Heartbeat CPU 1 instructions: 260000004 cycles: 191472314 heartbeat IPC: 1.288 cumulative IPC: 1.193 (Simulation time: 02 hr 32 min 35 sec)
Heartbeat CPU 3 instructions: 400000001 cycles: 194662661 heartbeat IPC: 1.841 cumulative IPC: 1.848 (Simulation time: 02 hr 35 min 02 sec)
Heartbeat CPU 1 instructions: 270000004 cycles: 199196773 heartbeat IPC: 1.295 cumulative IPC: 1.197 (Simulation time: 02 hr 38 min 29 sec)
Heartbeat CPU 3 instructions: 410000002 cycles: 200123438 heartbeat IPC: 1.831 cumulative IPC: 1.848 (Simulation time: 02 hr 39 min 14 sec)
Heartbeat CPU 3 instructions: 420000004 cycles: 205646780 heartbeat IPC: 1.81 cumulative IPC: 1.846 (Simulation time: 02 hr 43 min 27 sec)
Heartbeat CPU 1 instructions: 280000002 cycles: 206777008 heartbeat IPC: 1.319 cumulative IPC: 1.202 (Simulation time: 02 hr 44 min 17 sec)
Heartbeat CPU 3 instructions: 430000003 cycles: 211000626 heartbeat IPC: 1.868 cumulative IPC: 1.847 (Simulation time: 02 hr 47 min 34 sec)
Heartbeat CPU 1 instructions: 290000001 cycles: 214637652 heartbeat IPC: 1.272 cumulative IPC: 1.205 (Simulation time: 02 hr 50 min 23 sec)
Heartbeat CPU 3 instructions: 440000000 cycles: 215790863 heartbeat IPC: 2.088 cumulative IPC: 1.853 (Simulation time: 02 hr 51 min 13 sec)
Heartbeat CPU 2 instructions: 130000000 cycles: 215974640 heartbeat IPC: 0.3642 cumulative IPC: 0.3115 (Simulation time: 02 hr 51 min 21 sec)
Heartbeat CPU 0 instructions: 110000004 cycles: 216291785 heartbeat IPC: 0.3356 cumulative IPC: 0.307 (Simulation time: 02 hr 51 min 34 sec)
Heartbeat CPU 3 instructions: 450000001 cycles: 221253934 heartbeat IPC: 1.83 cumulative IPC: 1.852 (Simulation time: 02 hr 55 min 17 sec)
Heartbeat CPU 1 instructions: 300000001 cycles: 222590550 heartbeat IPC: 1.257 cumulative IPC: 1.207 (Simulation time: 02 hr 56 min 18 sec)
Heartbeat CPU 3 instructions: 460000002 cycles: 226010284 heartbeat IPC: 2.102 cumulative IPC: 1.858 (Simulation time: 02 hr 58 min 54 sec)
Heartbeat CPU 1 instructions: 310000002 cycles: 231307945 heartbeat IPC: 1.147 cumulative IPC: 1.205 (Simulation time: 03 hr 02 min 47 sec)
Heartbeat CPU 3 instructions: 470000000 cycles: 231850359 heartbeat IPC: 1.712 cumulative IPC: 1.854 (Simulation time: 03 hr 03 min 10 sec)
Heartbeat CPU 3 instructions: 480000001 cycles: 238446020 heartbeat IPC: 1.516 cumulative IPC: 1.844 (Simulation time: 03 hr 07 min 39 sec)
Heartbeat CPU 1 instructions: 320000002 cycles: 241584383 heartbeat IPC: 0.9731 cumulative IPC: 1.194 (Simulation time: 03 hr 09 min 51 sec)
Heartbeat CPU 3 instructions: 490000000 cycles: 243218149 heartbeat IPC: 2.096 cumulative IPC: 1.849 (Simulation time: 03 hr 11 min 06 sec)
Heartbeat CPU 3 instructions: 500000003 cycles: 248698703 heartbeat IPC: 1.825 cumulative IPC: 1.849 (Simulation time: 03 hr 14 min 58 sec)
Heartbeat CPU 2 instructions: 140000002 cycles: 249780094 heartbeat IPC: 0.2958 cumulative IPC: 0.3092 (Simulation time: 03 hr 15 min 47 sec)
Heartbeat CPU 1 instructions: 330000001 cycles: 250408814 heartbeat IPC: 1.133 cumulative IPC: 1.192 (Simulation time: 03 hr 16 min 14 sec)
Heartbeat CPU 0 instructions: 120000004 cycles: 252326756 heartbeat IPC: 0.2775 cumulative IPC: 0.3024 (Simulation time: 03 hr 17 min 33 sec)
Heartbeat CPU 3 instructions: 510000000 cycles: 253641623 heartbeat IPC: 2.023 cumulative IPC: 1.852 (Simulation time: 03 hr 18 min 28 sec)
Heartbeat CPU 1 instructions: 340000003 cycles: 259581367 heartbeat IPC: 1.09 cumulative IPC: 1.188 (Simulation time: 03 hr 22 min 36 sec)
Heartbeat CPU 3 instructions: 520000001 cycles: 259737019 heartbeat IPC: 1.641 cumulative IPC: 1.847 (Simulation time: 03 hr 22 min 44 sec)
Heartbeat CPU 3 instructions: 530000003 cycles: 264228225 heartbeat IPC: 2.227 cumulative IPC: 1.854 (Simulation time: 03 hr 26 min 05 sec)
Heartbeat CPU 1 instructions: 350000002 cycles: 267767134 heartbeat IPC: 1.222 cumulative IPC: 1.189 (Simulation time: 03 hr 28 min 42 sec)
Heartbeat CPU 3 instructions: 540000004 cycles: 270104845 heartbeat IPC: 1.702 cumulative IPC: 1.85 (Simulation time: 03 hr 30 min 25 sec)
Heartbeat CPU 3 instructions: 550000004 cycles: 275434927 heartbeat IPC: 1.876 cumulative IPC: 1.851 (Simulation time: 03 hr 34 min 32 sec)
Heartbeat CPU 1 instructions: 360000004 cycles: 275450560 heartbeat IPC: 1.302 cumulative IPC: 1.192 (Simulation time: 03 hr 34 min 33 sec)
Heartbeat CPU 2 instructions: 150000000 cycles: 278951273 heartbeat IPC: 0.3428 cumulative IPC: 0.313 (Simulation time: 03 hr 37 min 15 sec)
Heartbeat CPU 3 instructions: 560000003 cycles: 280861668 heartbeat IPC: 1.843 cumulative IPC: 1.851 (Simulation time: 03 hr 38 min 44 sec)
Heartbeat CPU 1 instructions: 370000001 cycles: 283118657 heartbeat IPC: 1.304 cumulative IPC: 1.196 (Simulation time: 03 hr 40 min 28 sec)
Heartbeat CPU 0 instructions: 130000002 cycles: 283586676 heartbeat IPC: 0.3199 cumulative IPC: 0.3045 (Simulation time: 03 hr 40 min 49 sec)
Heartbeat CPU 3 instructions: 570000000 cycles: 286251624 heartbeat IPC: 1.855 cumulative IPC: 1.851 (Simulation time: 03 hr 42 min 52 sec)
Heartbeat CPU 1 instructions: 380000001 cycles: 290724981 heartbeat IPC: 1.315 cumulative IPC: 1.199 (Simulation time: 03 hr 46 min 23 sec)
Heartbeat CPU 3 instructions: 580000003 cycles: 291621964 heartbeat IPC: 1.862 cumulative IPC: 1.851 (Simulation time: 03 hr 47 min 03 sec)
Heartbeat CPU 3 instructions: 590000003 cycles: 296884177 heartbeat IPC: 1.9 cumulative IPC: 1.852 (Simulation time: 03 hr 51 min 09 sec)
Heartbeat CPU 1 instructions: 390000003 cycles: 298335777 heartbeat IPC: 1.314 cumulative IPC: 1.202 (Simulation time: 03 hr 52 min 17 sec)
Heartbeat CPU 3 instructions: 600000001 cycles: 302136303 heartbeat IPC: 1.904 cumulative IPC: 1.853 (Simulation time: 03 hr 55 min 14 sec)
Heartbeat CPU 2 instructions: 160000002 cycles: 305388128 heartbeat IPC: 0.3783 cumulative IPC: 0.319 (Simulation time: 03 hr 57 min 46 sec)
Heartbeat CPU 1 instructions: 400000003 cycles: 305851692 heartbeat IPC: 1.331 cumulative IPC: 1.205 (Simulation time: 03 hr 58 min 05 sec)
Heartbeat CPU 3 instructions: 610000000 cycles: 307602719 heartbeat IPC: 1.829 cumulative IPC: 1.853 (Simulation time: 03 hr 59 min 27 sec)
Heartbeat CPU 3 instructions: 620000004 cycles: 312004794 heartbeat IPC: 2.272 cumulative IPC: 1.859 (Simulation time: 04 hr 02 min 50 sec)
Heartbeat CPU 0 instructions: 140000001 cycles: 312641823 heartbeat IPC: 0.3442 cumulative IPC: 0.3085 (Simulation time: 04 hr 03 min 17 sec)
Heartbeat CPU 1 instructions: 410000000 cycles: 313611759 heartbeat IPC: 1.289 cumulative IPC: 1.208 (Simulation time: 04 hr 04 min 02 sec)
Heartbeat CPU 3 instructions: 630000000 cycles: 318144094 heartbeat IPC: 1.629 cumulative IPC: 1.854 (Simulation time: 04 hr 07 min 23 sec)
Heartbeat CPU 1 instructions: 420000000 cycles: 321538458 heartbeat IPC: 1.262 cumulative IPC: 1.209 (Simulation time: 04 hr 09 min 57 sec)
Heartbeat CPU 3 instructions: 640000000 cycles: 323287974 heartbeat IPC: 1.944 cumulative IPC: 1.856 (Simulation time: 04 hr 11 min 17 sec)
Heartbeat CPU 3 instructions: 650000003 cycles: 328959051 heartbeat IPC: 1.763 cumulative IPC: 1.854 (Simulation time: 04 hr 15 min 24 sec)
Heartbeat CPU 1 instructions: 430000002 cycles: 330543211 heartbeat IPC: 1.111 cumulative IPC: 1.206 (Simulation time: 04 hr 16 min 34 sec)
Heartbeat CPU 3 instructions: 660000002 cycles: 335736199 heartbeat IPC: 1.476 cumulative IPC: 1.846 (Simulation time: 04 hr 20 min 02 sec)
Heartbeat CPU 2 instructions: 170000000 cycles: 338443428 heartbeat IPC: 0.3025 cumulative IPC: 0.3173 (Simulation time: 04 hr 21 min 59 sec)
Heartbeat CPU 3 instructions: 670000001 cycles: 340494481 heartbeat IPC: 2.102 cumulative IPC: 1.85 (Simulation time: 04 hr 23 min 25 sec)
Heartbeat CPU 1 instructions: 440000003 cycles: 340669136 heartbeat IPC: 0.9876 cumulative IPC: 1.199 (Simulation time: 04 hr 23 min 33 sec)
Heartbeat CPU 3 instructions: 680000001 cycles: 346448077 heartbeat IPC: 1.68 cumulative IPC: 1.847 (Simulation time: 04 hr 27 min 37 sec)
Heartbeat CPU 0 instructions: 150000003 cycles: 349127701 heartbeat IPC: 0.2741 cumulative IPC: 0.3046 (Simulation time: 04 hr 29 min 38 sec)
Heartbeat CPU 1 instructions: 450000000 cycles: 349560233 heartbeat IPC: 1.125 cumulative IPC: 1.197 (Simulation time: 04 hr 29 min 57 sec)
Heartbeat CPU 3 instructions: 690000000 cycles: 350135486 heartbeat IPC: 2.712 cumulative IPC: 1.856 (Simulation time: 04 hr 30 min 20 sec)
Heartbeat CPU 3 instructions: 700000000 cycles: 355878281 heartbeat IPC: 1.741 cumulative IPC: 1.854 (Simulation time: 04 hr 34 min 27 sec)
Heartbeat CPU 1 instructions: 460000001 cycles: 358481403 heartbeat IPC: 1.121 cumulative IPC: 1.195 (Simulation time: 04 hr 36 min 09 sec)
Heartbeat CPU 3 instructions: 710000000 cycles: 361552745 heartbeat IPC: 1.762 cumulative IPC: 1.853 (Simulation time: 04 hr 38 min 25 sec)
Heartbeat CPU 1 instructions: 470000001 cycles: 366618716 heartbeat IPC: 1.229 cumulative IPC: 1.196 (Simulation time: 04 hr 42 min 13 sec)
Heartbeat CPU 3 instructions: 720000001 cycles: 366731123 heartbeat IPC: 1.931 cumulative IPC: 1.854 (Simulation time: 04 hr 42 min 19 sec)
Heartbeat CPU 2 instructions: 180000004 cycles: 368991551 heartbeat IPC: 0.3274 cumulative IPC: 0.3182 (Simulation time: 04 hr 43 min 55 sec)
Heartbeat CPU 3 instructions: 730000000 cycles: 372797593 heartbeat IPC: 1.648 cumulative IPC: 1.85 (Simulation time: 04 hr 46 min 52 sec)
Heartbeat CPU 1 instructions: 480000004 cycles: 374327319 heartbeat IPC: 1.297 cumulative IPC: 1.198 (Simulation time: 04 hr 48 min 03 sec)
Heartbeat CPU 3 instructions: 740000004 cycles: 378039135 heartbeat IPC: 1.908 cumulative IPC: 1.851 (Simulation time: 04 hr 50 min 56 sec)
Heartbeat CPU 0 instructions: 160000002 cycles: 381152520 heartbeat IPC: 0.3123 cumulative IPC: 0.3053 (Simulation time: 04 hr 53 min 20 sec)
Heartbeat CPU 1 instructions: 490000003 cycles: 381958166 heartbeat IPC: 1.31 cumulative IPC: 1.201 (Simulation time: 04 hr 54 min 00 sec)
Heartbeat CPU 3 instructions: 750000004 cycles: 383299064 heartbeat IPC: 1.901 cumulative IPC: 1.852 (Simulation time: 04 hr 55 min 01 sec)
Heartbeat CPU 3 instructions: 760000001 cycles: 388727044 heartbeat IPC: 1.842 cumulative IPC: 1.852 (Simulation time: 04 hr 59 min 14 sec)
Heartbeat CPU 1 instructions: 500000001 cycles: 389599539 heartbeat IPC: 1.309 cumulative IPC: 1.203 (Simulation time: 04 hr 59 min 54 sec)
Heartbeat CPU 3 instructions: 770000000 cycles: 394164293 heartbeat IPC: 1.839 cumulative IPC: 1.852 (Simulation time: 05 hr 03 min 25 sec)
Heartbeat CPU 2 instructions: 190000003 cycles: 396074868 heartbeat IPC: 0.3692 cumulative IPC: 0.3219 (Simulation time: 05 hr 04 min 54 sec)
Heartbeat CPU 1 instructions: 510000004 cycles: 397246521 heartbeat IPC: 1.308 cumulative IPC: 1.205 (Simulation time: 05 hr 05 min 47 sec)
Heartbeat CPU 3 instructions: 780000000 cycles: 399594422 heartbeat IPC: 1.842 cumulative IPC: 1.851 (Simulation time: 05 hr 07 min 34 sec)
Heartbeat CPU 1 instructions: 520000001 cycles: 405015538 heartbeat IPC: 1.287 cumulative IPC: 1.207 (Simulation time: 05 hr 11 min 42 sec)
Heartbeat CPU 3 instructions: 790000004 cycles: 405290367 heartbeat IPC: 1.756 cumulative IPC: 1.85 (Simulation time: 05 hr 11 min 54 sec)
Heartbeat CPU 0 instructions: 170000001 cycles: 409164172 heartbeat IPC: 0.357 cumulative IPC: 0.309 (Simulation time: 05 hr 14 min 55 sec)
Heartbeat CPU 3 instructions: 800000000 cycles: 410079819 heartbeat IPC: 2.088 cumulative IPC: 1.853 (Simulation time: 05 hr 15 min 37 sec)
Heartbeat CPU 1 instructions: 530000002 cycles: 412886655 heartbeat IPC: 1.27 cumulative IPC: 1.208 (Simulation time: 05 hr 17 min 44 sec)
Heartbeat CPU 3 instructions: 810000000 cycles: 415972622 heartbeat IPC: 1.697 cumulative IPC: 1.851 (Simulation time: 05 hr 20 min 01 sec)
Heartbeat CPU 3 instructions: 820000001 cycles: 420831122 heartbeat IPC: 2.058 cumulative IPC: 1.853 (Simulation time: 05 hr 23 min 41 sec)
Heartbeat CPU 1 instructions: 540000000 cycles: 420838036 heartbeat IPC: 1.258 cumulative IPC: 1.209 (Simulation time: 05 hr 23 min 42 sec)
Heartbeat CPU 2 instructions: 200000000 cycles: 424368141 heartbeat IPC: 0.3534 cumulative IPC: 0.3241 (Simulation time: 05 hr 26 min 25 sec)
Heartbeat CPU 3 instructions: 830000001 cycles: 425712032 heartbeat IPC: 2.049 cumulative IPC: 1.855 (Simulation time: 05 hr 27 min 24 sec)
Heartbeat CPU 1 instructions: 550000000 cycles: 429736047 heartbeat IPC: 1.124 cumulative IPC: 1.207 (Simulation time: 05 hr 30 min 19 sec)
Heartbeat CPU 3 instructions: 840000000 cycles: 431362044 heartbeat IPC: 1.77 cumulative IPC: 1.854 (Simulation time: 05 hr 31 min 24 sec)
Heartbeat CPU 3 instructions: 850000001 cycles: 437563503 heartbeat IPC: 1.613 cumulative IPC: 1.851 (Simulation time: 05 hr 35 min 41 sec)
Heartbeat CPU 1 instructions: 560000004 cycles: 439844738 heartbeat IPC: 0.9892 cumulative IPC: 1.202 (Simulation time: 05 hr 37 min 19 sec)
Heartbeat CPU 3 instructions: 860000002 cycles: 442818290 heartbeat IPC: 1.903 cumulative IPC: 1.851 (Simulation time: 05 hr 39 min 33 sec)
Heartbeat CPU 0 instructions: 180000001 cycles: 444917371 heartbeat IPC: 0.2797 cumulative IPC: 0.3066 (Simulation time: 05 hr 40 min 56 sec)
Heartbeat CPU 3 instructions: 870000000 cycles: 447617885 heartbeat IPC: 2.084 cumulative IPC: 1.854 (Simulation time: 05 hr 42 min 55 sec)
Heartbeat CPU 1 instructions: 570000003 cycles: 448586160 heartbeat IPC: 1.144 cumulative IPC: 1.201 (Simulation time: 05 hr 43 min 37 sec)
Heartbeat CPU 3 instructions: 880000004 cycles: 453139589 heartbeat IPC: 1.811 cumulative IPC: 1.853 (Simulation time: 05 hr 46 min 51 sec)
Heartbeat CPU 1 instructions: 580000000 cycles: 457484463 heartbeat IPC: 1.124 cumulative IPC: 1.199 (Simulation time: 05 hr 49 min 49 sec)
Heartbeat CPU 3 instructions: 890000000 cycles: 458921673 heartbeat IPC: 1.729 cumulative IPC: 1.852 (Simulation time: 05 hr 50 min 54 sec)
Heartbeat CPU 2 instructions: 210000000 cycles: 459416931 heartbeat IPC: 0.2853 cumulative IPC: 0.321 (Simulation time: 05 hr 51 min 16 sec)
Heartbeat CPU 3 instructions: 900000001 cycles: 463756571 heartbeat IPC: 2.068 cumulative IPC: 1.854 (Simulation time: 05 hr 54 min 29 sec)
Heartbeat CPU 1 instructions: 590000003 cycles: 465589453 heartbeat IPC: 1.234 cumulative IPC: 1.2 (Simulation time: 05 hr 55 min 53 sec)
Heartbeat CPU 3 instructions: 910000002 cycles: 469472003 heartbeat IPC: 1.75 cumulative IPC: 1.853 (Simulation time: 05 hr 58 min 47 sec)
Heartbeat CPU 1 instructions: 600000004 cycles: 473145386 heartbeat IPC: 1.323 cumulative IPC: 1.202 (Simulation time: 06 hr 01 min 40 sec)
Heartbeat CPU 3 instructions: 920000004 cycles: 474564372 heartbeat IPC: 1.964 cumulative IPC: 1.854 (Simulation time: 06 hr 02 min 44 sec)
Heartbeat CPU 0 instructions: 190000004 cycles: 476765670 heartbeat IPC: 0.314 cumulative IPC: 0.3071 (Simulation time: 06 hr 04 min 30 sec)
Heartbeat CPU 3 instructions: 930000002 cycles: 479748612 heartbeat IPC: 1.929 cumulative IPC: 1.855 (Simulation time: 06 hr 06 min 47 sec)
Heartbeat CPU 1 instructions: 610000004 cycles: 480858339 heartbeat IPC: 1.297 cumulative IPC: 1.203 (Simulation time: 06 hr 07 min 40 sec)
Simulation finished CPU 2 instructions: 150000002 cycles: 463514924 cumulative IPC: 0.3236 (Simulation time: 06 hr 10 min 20 sec)
Heartbeat CPU 3 instructions: 940000002 cycles: 485087261 heartbeat IPC: 1.873 cumulative IPC: 1.855 (Simulation time: 06 hr 10 min 53 sec)
Heartbeat CPU 2 instructions: 220000004 cycles: 486291746 heartbeat IPC: 0.3721 cumulative IPC: 0.3239 (Simulation time: 06 hr 11 min 50 sec)
Heartbeat CPU 1 instructions: 620000000 cycles: 488731504 heartbeat IPC: 1.27 cumulative IPC: 1.204 (Simulation time: 06 hr 13 min 44 sec)
Heartbeat CPU 3 instructions: 950000004 cycles: 490211456 heartbeat IPC: 1.952 cumulative IPC: 1.856 (Simulation time: 06 hr 14 min 54 sec)
Heartbeat CPU 3 instructions: 960000003 cycles: 495462364 heartbeat IPC: 1.904 cumulative IPC: 1.857 (Simulation time: 06 hr 18 min 57 sec)
Heartbeat CPU 1 instructions: 630000004 cycles: 496436707 heartbeat IPC: 1.298 cumulative IPC: 1.206 (Simulation time: 06 hr 19 min 42 sec)
Heartbeat CPU 3 instructions: 970000000 cycles: 500986375 heartbeat IPC: 1.81 cumulative IPC: 1.856 (Simulation time: 06 hr 23 min 11 sec)
Heartbeat CPU 1 instructions: 640000004 cycles: 503894271 heartbeat IPC: 1.341 cumulative IPC: 1.208 (Simulation time: 06 hr 25 min 26 sec)
Heartbeat CPU 0 instructions: 200000001 cycles: 506600135 heartbeat IPC: 0.3352 cumulative IPC: 0.3088 (Simulation time: 06 hr 27 min 28 sec)
Simulation finished CPU 0 instructions: 150000003 cycles: 485725124 cumulative IPC: 0.3088 (Simulation time: 06 hr 27 min 28 sec)
Simulation complete CPU 0 instructions: 150000003 cycles: 485725124 cumulative IPC: 0.3088 (Simulation time: 06 hr 27 min 28 sec)
Simulation complete CPU 1 instructions: 586972047 cycles: 485725124 cumulative IPC: 1.208 (Simulation time: 06 hr 27 min 28 sec)
Simulation complete CPU 2 instructions: 157840879 cycles: 485725124 cumulative IPC: 0.325 (Simulation time: 06 hr 27 min 28 sec)
Simulation complete CPU 3 instructions: 901144582 cycles: 485725124 cumulative IPC: 1.855 (Simulation time: 06 hr 27 min 28 sec)

ChampSim completed all CPUs

=== Simulation ===
CPU 0 runs /home/grads/r/rdas40/dpc3_traces/620.omnetpp_s-874B.champsimtrace.xzCPU 1 runs /home/grads/r/rdas40/dpc3_traces/607.cactuBSSN_s-2421B.champsimtrace.xzCPU 2 runs /home/grads/r/rdas40/dpc3_traces/605.mcf_s-665B.champsimtrace.xzCPU 3 runs /home/grads/r/rdas40/dpc3_traces/628.pop2_s-17B.champsimtrace.xz
Total Simulation Statistics (not including warmup)

CPU 0 cumulative IPC: 0.3088 instructions: 150000003 cycles: 485725124
CPU 0 Branch Prediction Accuracy: 94.9% MPKI: 10.6 Average ROB Occupancy at Mispredict: 83.79
Branch type MPKI
BRANCH_DIRECT_JUMP: 0.923
BRANCH_INDIRECT: 0.128
BRANCH_CONDITIONAL: 8.42
BRANCH_DIRECT_CALL: 0.00016
BRANCH_INDIRECT_CALL: 0.734
BRANCH_RETURN: 0.399


CPU 1 cumulative IPC: 1.208 instructions: 586972047 cycles: 485725124
CPU 1 Branch Prediction Accuracy: 99.85% MPKI: 0.001804 Average ROB Occupancy at Mispredict: 348.5
Branch type MPKI
BRANCH_DIRECT_JUMP: 1.7e-06
BRANCH_INDIRECT: 8.52e-06
BRANCH_CONDITIONAL: 0.00179
BRANCH_DIRECT_CALL: 0
BRANCH_INDIRECT_CALL: 0
BRANCH_RETURN: 0


CPU 2 cumulative IPC: 0.325 instructions: 157840879 cycles: 485725124
CPU 2 Branch Prediction Accuracy: 90.36% MPKI: 23.84 Average ROB Occupancy at Mispredict: 18.68
Branch type MPKI
BRANCH_DIRECT_JUMP: 0.266
BRANCH_INDIRECT: 0
BRANCH_CONDITIONAL: 23.6
BRANCH_DIRECT_CALL: 0
BRANCH_INDIRECT_CALL: 0.000602
BRANCH_RETURN: 0


CPU 3 cumulative IPC: 1.855 instructions: 901144582 cycles: 485725124
CPU 3 Branch Prediction Accuracy: 97.48% MPKI: 3.926 Average ROB Occupancy at Mispredict: 103.7
Branch type MPKI
BRANCH_DIRECT_JUMP: 0.0291
BRANCH_INDIRECT: 0.000697
BRANCH_CONDITIONAL: 3.83
BRANCH_DIRECT_CALL: 0.000256
BRANCH_INDIRECT_CALL: 0
BRANCH_RETURN: 0.0691

LLC TOTAL        ACCESS:    4673741 HIT:    1664967 MISS:    3008774
LLC LOAD         ACCESS:    1688858 HIT:     379065 MISS:    1309793
LLC RFO          ACCESS:     258097 HIT:      89012 MISS:     169085
LLC PREFETCH     ACCESS:    1157289 HIT:     231398 MISS:     925891
LLC WRITE        ACCESS:     972505 HIT:     925442 MISS:      47063
LLC TRANSLATION  ACCESS:     596992 HIT:      40050 MISS:     556942
LLC PREFETCH REQUESTED:          0 ISSUED:          0 USEFUL:          0 USELESS:          0
LLC AVERAGE MISS LATENCY: 540.2 cycles
LLC TOTAL        ACCESS:   17777281 HIT:   13118819 MISS:    4658462
LLC LOAD         ACCESS:    5752687 HIT:    2802162 MISS:    2950525
LLC RFO          ACCESS:      15520 HIT:      15520 MISS:          0
LLC PREFETCH     ACCESS:   11335777 HIT:    9682807 MISS:    1652970
LLC WRITE        ACCESS:     584082 HIT:     583943 MISS:        139
LLC TRANSLATION  ACCESS:      89215 HIT:      34387 MISS:      54828
LLC PREFETCH REQUESTED:          0 ISSUED:          0 USEFUL:          0 USELESS:          0
LLC AVERAGE MISS LATENCY: 540.2 cycles
LLC TOTAL        ACCESS:    7022590 HIT:    3881399 MISS:    3141191
LLC LOAD         ACCESS:    2830469 HIT:    1923571 MISS:     906898
LLC RFO          ACCESS:     238183 HIT:     231359 MISS:       6824
LLC PREFETCH     ACCESS:    3554975 HIT:    1371812 MISS:    2183163
LLC WRITE        ACCESS:     384397 HIT:     348012 MISS:      36385
LLC TRANSLATION  ACCESS:      14566 HIT:       6645 MISS:       7921
LLC PREFETCH REQUESTED:          0 ISSUED:          0 USEFUL:          0 USELESS:          0
LLC AVERAGE MISS LATENCY: 540.2 cycles
LLC TOTAL        ACCESS:   16728129 HIT:   10657587 MISS:    6070542
LLC LOAD         ACCESS:    2789908 HIT:    1908617 MISS:     881291
LLC RFO          ACCESS:    1903960 HIT:     712763 MISS:    1191197
LLC PREFETCH     ACCESS:    9285994 HIT:    5346641 MISS:    3939353
LLC WRITE        ACCESS:    2722209 HIT:    2682207 MISS:      40002
LLC TRANSLATION  ACCESS:      26058 HIT:       7359 MISS:      18699
LLC PREFETCH REQUESTED:          0 ISSUED:          0 USEFUL:          0 USELESS:          0
LLC AVERAGE MISS LATENCY: 540.2 cycles
cpu0_DTLB TOTAL        ACCESS:   38230176 HIT:   34932984 MISS:    3297192
cpu0_DTLB LOAD         ACCESS:   38230176 HIT:   34932984 MISS:    3297192
cpu0_DTLB RFO          ACCESS:          0 HIT:          0 MISS:          0
cpu0_DTLB PREFETCH     ACCESS:          0 HIT:          0 MISS:          0
cpu0_DTLB WRITE        ACCESS:          0 HIT:          0 MISS:          0
cpu0_DTLB TRANSLATION  ACCESS:          0 HIT:          0 MISS:          0
cpu0_DTLB PREFETCH REQUESTED:          0 ISSUED:          0 USEFUL:          0 USELESS:          0
cpu0_DTLB AVERAGE MISS LATENCY: 93.15 cycles
cpu0_DTLB TOTAL        ACCESS:          0 HIT:          0 MISS:          0
cpu0_DTLB LOAD         ACCESS:          0 HIT:          0 MISS:          0
cpu0_DTLB RFO          ACCESS:          0 HIT:          0 MISS:          0
cpu0_DTLB PREFETCH     ACCESS:          0 HIT:          0 MISS:          0
cpu0_DTLB WRITE        ACCESS:          0 HIT:          0 MISS:          0
cpu0_DTLB TRANSLATION  ACCESS:          0 HIT:          0 MISS:          0
cpu0_DTLB PREFETCH REQUESTED:          0 ISSUED:          0 USEFUL:          0 USELESS:          0
cpu0_DTLB AVERAGE MISS LATENCY: 93.15 cycles
cpu0_DTLB TOTAL        ACCESS:          0 HIT:          0 MISS:          0
cpu0_DTLB LOAD         ACCESS:          0 HIT:          0 MISS:          0
cpu0_DTLB RFO          ACCESS:          0 HIT:          0 MISS:          0
cpu0_DTLB PREFETCH     ACCESS:          0 HIT:          0 MISS:          0
cpu0_DTLB WRITE        ACCESS:          0 HIT:          0 MISS:          0
cpu0_DTLB TRANSLATION  ACCESS:          0 HIT:          0 MISS:          0
cpu0_DTLB PREFETCH REQUESTED:          0 ISSUED:          0 USEFUL:          0 USELESS:          0
cpu0_DTLB AVERAGE MISS LATENCY: 93.15 cycles
cpu0_DTLB TOTAL        ACCESS:          0 HIT:          0 MISS:          0
cpu0_DTLB LOAD         ACCESS:          0 HIT:          0 MISS:          0
cpu0_DTLB RFO          ACCESS:          0 HIT:          0 MISS:          0
cpu0_DTLB PREFETCH     ACCESS:          0 HIT:          0 MISS:          0
cpu0_DTLB WRITE        ACCESS:          0 HIT:          0 MISS:          0
cpu0_DTLB TRANSLATION  ACCESS:          0 HIT:          0 MISS:          0
cpu0_DTLB PREFETCH REQUESTED:          0 ISSUED:          0 USEFUL:          0 USELESS:          0
cpu0_DTLB AVERAGE MISS LATENCY: 93.15 cycles
cpu0_ITLB TOTAL        ACCESS:   10785932 HIT:   10513983 MISS:     271949
cpu0_ITLB LOAD         ACCESS:   10785932 HIT:   10513983 MISS:     271949
cpu0_ITLB RFO          ACCESS:          0 HIT:          0 MISS:          0
cpu0_ITLB PREFETCH     ACCESS:          0 HIT:          0 MISS:          0
cpu0_ITLB WRITE        ACCESS:          0 HIT:          0 MISS:          0
cpu0_ITLB TRANSLATION  ACCESS:          0 HIT:          0 MISS:          0
cpu0_ITLB PREFETCH REQUESTED:          0 ISSUED:          0 USEFUL:          0 USELESS:          0
cpu0_ITLB AVERAGE MISS LATENCY: 8.505 cycles
cpu0_ITLB TOTAL        ACCESS:          0 HIT:          0 MISS:          0
cpu0_ITLB LOAD         ACCESS:          0 HIT:          0 MISS:          0
cpu0_ITLB RFO          ACCESS:          0 HIT:          0 MISS:          0
cpu0_ITLB PREFETCH     ACCESS:          0 HIT:          0 MISS:          0
cpu0_ITLB WRITE        ACCESS:          0 HIT:          0 MISS:          0
cpu0_ITLB TRANSLATION  ACCESS:          0 HIT:          0 MISS:          0
cpu0_ITLB PREFETCH REQUESTED:          0 ISSUED:          0 USEFUL:          0 USELESS:          0
cpu0_ITLB AVERAGE MISS LATENCY: 8.505 cycles
cpu0_ITLB TOTAL        ACCESS:          0 HIT:          0 MISS:          0
cpu0_ITLB LOAD         ACCESS:          0 HIT:          0 MISS:          0
cpu0_ITLB RFO          ACCESS:          0 HIT:          0 MISS:          0
cpu0_ITLB PREFETCH     ACCESS:          0 HIT:          0 MISS:          0
cpu0_ITLB WRITE        ACCESS:          0 HIT:          0 MISS:          0
cpu0_ITLB TRANSLATION  ACCESS:          0 HIT:          0 MISS:          0
cpu0_ITLB PREFETCH REQUESTED:          0 ISSUED:          0 USEFUL:          0 USELESS:          0
cpu0_ITLB AVERAGE MISS LATENCY: 8.505 cycles
cpu0_ITLB TOTAL        ACCESS:          0 HIT:          0 MISS:          0
cpu0_ITLB LOAD         ACCESS:          0 HIT:          0 MISS:          0
cpu0_ITLB RFO          ACCESS:          0 HIT:          0 MISS:          0
cpu0_ITLB PREFETCH     ACCESS:          0 HIT:          0 MISS:          0
cpu0_ITLB WRITE        ACCESS:          0 HIT:          0 MISS:          0
cpu0_ITLB TRANSLATION  ACCESS:          0 HIT:          0 MISS:          0
cpu0_ITLB PREFETCH REQUESTED:          0 ISSUED:          0 USEFUL:          0 USELESS:          0
cpu0_ITLB AVERAGE MISS LATENCY: 8.505 cycles
cpu0_L1D TOTAL        ACCESS:   49766089 HIT:   44847080 MISS:    4919009
cpu0_L1D LOAD         ACCESS:   22931066 HIT:   19870112 MISS:    3060954
cpu0_L1D RFO          ACCESS:          0 HIT:          0 MISS:          0
cpu0_L1D PREFETCH     ACCESS:          0 HIT:          0 MISS:          0
cpu0_L1D WRITE        ACCESS:   25943840 HIT:   24831759 MISS:    1112081
cpu0_L1D TRANSLATION  ACCESS:     891183 HIT:     145209 MISS:     745974
cpu0_L1D PREFETCH REQUESTED:          0 ISSUED:          0 USEFUL:          0 USELESS:          0
cpu0_L1D AVERAGE MISS LATENCY: 209.8 cycles
cpu0_L1D TOTAL        ACCESS:          0 HIT:          0 MISS:          0
cpu0_L1D LOAD         ACCESS:          0 HIT:          0 MISS:          0
cpu0_L1D RFO          ACCESS:          0 HIT:          0 MISS:          0
cpu0_L1D PREFETCH     ACCESS:          0 HIT:          0 MISS:          0
cpu0_L1D WRITE        ACCESS:          0 HIT:          0 MISS:          0
cpu0_L1D TRANSLATION  ACCESS:          0 HIT:          0 MISS:          0
cpu0_L1D PREFETCH REQUESTED:          0 ISSUED:          0 USEFUL:          0 USELESS:          0
cpu0_L1D AVERAGE MISS LATENCY: 209.8 cycles
cpu0_L1D TOTAL        ACCESS:          0 HIT:          0 MISS:          0
cpu0_L1D LOAD         ACCESS:          0 HIT:          0 MISS:          0
cpu0_L1D RFO          ACCESS:          0 HIT:          0 MISS:          0
cpu0_L1D PREFETCH     ACCESS:          0 HIT:          0 MISS:          0
cpu0_L1D WRITE        ACCESS:          0 HIT:          0 MISS:          0
cpu0_L1D TRANSLATION  ACCESS:          0 HIT:          0 MISS:          0
cpu0_L1D PREFETCH REQUESTED:          0 ISSUED:          0 USEFUL:          0 USELESS:          0
cpu0_L1D AVERAGE MISS LATENCY: 209.8 cycles
cpu0_L1D TOTAL        ACCESS:          0 HIT:          0 MISS:          0
cpu0_L1D LOAD         ACCESS:          0 HIT:          0 MISS:          0
cpu0_L1D RFO          ACCESS:          0 HIT:          0 MISS:          0
cpu0_L1D PREFETCH     ACCESS:          0 HIT:          0 MISS:          0
cpu0_L1D WRITE        ACCESS:          0 HIT:          0 MISS:          0
cpu0_L1D TRANSLATION  ACCESS:          0 HIT:          0 MISS:          0
cpu0_L1D PREFETCH REQUESTED:          0 ISSUED:          0 USEFUL:          0 USELESS:          0
cpu0_L1D AVERAGE MISS LATENCY: 209.8 cycles
cpu0_L1I TOTAL        ACCESS:   12870456 HIT:   12796442 MISS:      74014
cpu0_L1I LOAD         ACCESS:   12870456 HIT:   12796442 MISS:      74014
cpu0_L1I RFO          ACCESS:          0 HIT:          0 MISS:          0
cpu0_L1I PREFETCH     ACCESS:          0 HIT:          0 MISS:          0
cpu0_L1I WRITE        ACCESS:          0 HIT:          0 MISS:          0
cpu0_L1I TRANSLATION  ACCESS:          0 HIT:          0 MISS:          0
cpu0_L1I PREFETCH REQUESTED:          0 ISSUED:          0 USEFUL:          0 USELESS:          0
cpu0_L1I AVERAGE MISS LATENCY: 42.45 cycles
cpu0_L1I TOTAL        ACCESS:          0 HIT:          0 MISS:          0
cpu0_L1I LOAD         ACCESS:          0 HIT:          0 MISS:          0
cpu0_L1I RFO          ACCESS:          0 HIT:          0 MISS:          0
cpu0_L1I PREFETCH     ACCESS:          0 HIT:          0 MISS:          0
cpu0_L1I WRITE        ACCESS:          0 HIT:          0 MISS:          0
cpu0_L1I TRANSLATION  ACCESS:          0 HIT:          0 MISS:          0
cpu0_L1I PREFETCH REQUESTED:          0 ISSUED:          0 USEFUL:          0 USELESS:          0
cpu0_L1I AVERAGE MISS LATENCY: 42.45 cycles
cpu0_L1I TOTAL        ACCESS:          0 HIT:          0 MISS:          0
cpu0_L1I LOAD         ACCESS:          0 HIT:          0 MISS:          0
cpu0_L1I RFO          ACCESS:          0 HIT:          0 MISS:          0
cpu0_L1I PREFETCH     ACCESS:          0 HIT:          0 MISS:          0
cpu0_L1I WRITE        ACCESS:          0 HIT:          0 MISS:          0
cpu0_L1I TRANSLATION  ACCESS:          0 HIT:          0 MISS:          0
cpu0_L1I PREFETCH REQUESTED:          0 ISSUED:          0 USEFUL:          0 USELESS:          0
cpu0_L1I AVERAGE MISS LATENCY: 42.45 cycles
cpu0_L1I TOTAL        ACCESS:          0 HIT:          0 MISS:          0
cpu0_L1I LOAD         ACCESS:          0 HIT:          0 MISS:          0
cpu0_L1I RFO          ACCESS:          0 HIT:          0 MISS:          0
cpu0_L1I PREFETCH     ACCESS:          0 HIT:          0 MISS:          0
cpu0_L1I WRITE        ACCESS:          0 HIT:          0 MISS:          0
cpu0_L1I TRANSLATION  ACCESS:          0 HIT:          0 MISS:          0
cpu0_L1I PREFETCH REQUESTED:          0 ISSUED:          0 USEFUL:          0 USELESS:          0
cpu0_L1I AVERAGE MISS LATENCY: 42.45 cycles
cpu0_L2C TOTAL        ACCESS:    7237549 HIT:    2930516 MISS:    4307033
cpu0_L2C LOAD         ACCESS:    2539396 HIT:     847021 MISS:    1692375
cpu0_L2C RFO          ACCESS:     365560 HIT:     107394 MISS:     258166
cpu0_L2C PREFETCH     ACCESS:    2188315 HIT:     431283 MISS:    1757032
cpu0_L2C WRITE        ACCESS:    1399093 HIT:    1396625 MISS:       2468
cpu0_L2C TRANSLATION  ACCESS:     745185 HIT:     148193 MISS:     596992
cpu0_L2C PREFETCH REQUESTED:    2188315 ISSUED:    2188315 USEFUL:       6861 USELESS:      19435
cpu0_L2C AVERAGE MISS LATENCY: 240 cycles
cpu0_L2C TOTAL        ACCESS:          0 HIT:          0 MISS:          0
cpu0_L2C LOAD         ACCESS:          0 HIT:          0 MISS:          0
cpu0_L2C RFO          ACCESS:          0 HIT:          0 MISS:          0
cpu0_L2C PREFETCH     ACCESS:          0 HIT:          0 MISS:          0
cpu0_L2C WRITE        ACCESS:          0 HIT:          0 MISS:          0
cpu0_L2C TRANSLATION  ACCESS:          0 HIT:          0 MISS:          0
cpu0_L2C PREFETCH REQUESTED:    2188315 ISSUED:    2188315 USEFUL:       6861 USELESS:      19435
cpu0_L2C AVERAGE MISS LATENCY: 240 cycles
cpu0_L2C TOTAL        ACCESS:          0 HIT:          0 MISS:          0
cpu0_L2C LOAD         ACCESS:          0 HIT:          0 MISS:          0
cpu0_L2C RFO          ACCESS:          0 HIT:          0 MISS:          0
cpu0_L2C PREFETCH     ACCESS:          0 HIT:          0 MISS:          0
cpu0_L2C WRITE        ACCESS:          0 HIT:          0 MISS:          0
cpu0_L2C TRANSLATION  ACCESS:          0 HIT:          0 MISS:          0
cpu0_L2C PREFETCH REQUESTED:    2188315 ISSUED:    2188315 USEFUL:       6861 USELESS:      19435
cpu0_L2C AVERAGE MISS LATENCY: 240 cycles
cpu0_L2C TOTAL        ACCESS:          0 HIT:          0 MISS:          0
cpu0_L2C LOAD         ACCESS:          0 HIT:          0 MISS:          0
cpu0_L2C RFO          ACCESS:          0 HIT:          0 MISS:          0
cpu0_L2C PREFETCH     ACCESS:          0 HIT:          0 MISS:          0
cpu0_L2C WRITE        ACCESS:          0 HIT:          0 MISS:          0
cpu0_L2C TRANSLATION  ACCESS:          0 HIT:          0 MISS:          0
cpu0_L2C PREFETCH REQUESTED:    2188315 ISSUED:    2188315 USEFUL:       6861 USELESS:      19435
cpu0_L2C AVERAGE MISS LATENCY: 240 cycles
cpu0_STLB TOTAL        ACCESS:    3014983 HIT:    2372548 MISS:     642435
cpu0_STLB LOAD         ACCESS:    3014983 HIT:    2372548 MISS:     642435
cpu0_STLB RFO          ACCESS:          0 HIT:          0 MISS:          0
cpu0_STLB PREFETCH     ACCESS:          0 HIT:          0 MISS:          0
cpu0_STLB WRITE        ACCESS:          0 HIT:          0 MISS:          0
cpu0_STLB TRANSLATION  ACCESS:          0 HIT:          0 MISS:          0
cpu0_STLB PREFETCH REQUESTED:          0 ISSUED:          0 USEFUL:          0 USELESS:          0
cpu0_STLB AVERAGE MISS LATENCY: 458.4 cycles
cpu0_STLB TOTAL        ACCESS:          0 HIT:          0 MISS:          0
cpu0_STLB LOAD         ACCESS:          0 HIT:          0 MISS:          0
cpu0_STLB RFO          ACCESS:          0 HIT:          0 MISS:          0
cpu0_STLB PREFETCH     ACCESS:          0 HIT:          0 MISS:          0
cpu0_STLB WRITE        ACCESS:          0 HIT:          0 MISS:          0
cpu0_STLB TRANSLATION  ACCESS:          0 HIT:          0 MISS:          0
cpu0_STLB PREFETCH REQUESTED:          0 ISSUED:          0 USEFUL:          0 USELESS:          0
cpu0_STLB AVERAGE MISS LATENCY: 458.4 cycles
cpu0_STLB TOTAL        ACCESS:          0 HIT:          0 MISS:          0
cpu0_STLB LOAD         ACCESS:          0 HIT:          0 MISS:          0
cpu0_STLB RFO          ACCESS:          0 HIT:          0 MISS:          0
cpu0_STLB PREFETCH     ACCESS:          0 HIT:          0 MISS:          0
cpu0_STLB WRITE        ACCESS:          0 HIT:          0 MISS:          0
cpu0_STLB TRANSLATION  ACCESS:          0 HIT:          0 MISS:          0
cpu0_STLB PREFETCH REQUESTED:          0 ISSUED:          0 USEFUL:          0 USELESS:          0
cpu0_STLB AVERAGE MISS LATENCY: 458.4 cycles
cpu0_STLB TOTAL        ACCESS:          0 HIT:          0 MISS:          0
cpu0_STLB LOAD         ACCESS:          0 HIT:          0 MISS:          0
cpu0_STLB RFO          ACCESS:          0 HIT:          0 MISS:          0
cpu0_STLB PREFETCH     ACCESS:          0 HIT:          0 MISS:          0
cpu0_STLB WRITE        ACCESS:          0 HIT:          0 MISS:          0
cpu0_STLB TRANSLATION  ACCESS:          0 HIT:          0 MISS:          0
cpu0_STLB PREFETCH REQUESTED:          0 ISSUED:          0 USEFUL:          0 USELESS:          0
cpu0_STLB AVERAGE MISS LATENCY: 458.4 cycles
cpu1_DTLB TOTAL        ACCESS:          0 HIT:          0 MISS:          0
cpu1_DTLB LOAD         ACCESS:          0 HIT:          0 MISS:          0
cpu1_DTLB RFO          ACCESS:          0 HIT:          0 MISS:          0
cpu1_DTLB PREFETCH     ACCESS:          0 HIT:          0 MISS:          0
cpu1_DTLB WRITE        ACCESS:          0 HIT:          0 MISS:          0
cpu1_DTLB TRANSLATION  ACCESS:          0 HIT:          0 MISS:          0
cpu1_DTLB PREFETCH REQUESTED:          0 ISSUED:          0 USEFUL:          0 USELESS:          0
cpu1_DTLB AVERAGE MISS LATENCY: 7.141 cycles
cpu1_DTLB TOTAL        ACCESS:  124170452 HIT:   72928463 MISS:   51241989
cpu1_DTLB LOAD         ACCESS:  124170452 HIT:   72928463 MISS:   51241989
cpu1_DTLB RFO          ACCESS:          0 HIT:          0 MISS:          0
cpu1_DTLB PREFETCH     ACCESS:          0 HIT:          0 MISS:          0
cpu1_DTLB WRITE        ACCESS:          0 HIT:          0 MISS:          0
cpu1_DTLB TRANSLATION  ACCESS:          0 HIT:          0 MISS:          0
cpu1_DTLB PREFETCH REQUESTED:          0 ISSUED:          0 USEFUL:          0 USELESS:          0
cpu1_DTLB AVERAGE MISS LATENCY: 7.141 cycles
cpu1_DTLB TOTAL        ACCESS:          0 HIT:          0 MISS:          0
cpu1_DTLB LOAD         ACCESS:          0 HIT:          0 MISS:          0
cpu1_DTLB RFO          ACCESS:          0 HIT:          0 MISS:          0
cpu1_DTLB PREFETCH     ACCESS:          0 HIT:          0 MISS:          0
cpu1_DTLB WRITE        ACCESS:          0 HIT:          0 MISS:          0
cpu1_DTLB TRANSLATION  ACCESS:          0 HIT:          0 MISS:          0
cpu1_DTLB PREFETCH REQUESTED:          0 ISSUED:          0 USEFUL:          0 USELESS:          0
cpu1_DTLB AVERAGE MISS LATENCY: 7.141 cycles
cpu1_DTLB TOTAL        ACCESS:          0 HIT:          0 MISS:          0
cpu1_DTLB LOAD         ACCESS:          0 HIT:          0 MISS:          0
cpu1_DTLB RFO          ACCESS:          0 HIT:          0 MISS:          0
cpu1_DTLB PREFETCH     ACCESS:          0 HIT:          0 MISS:          0
cpu1_DTLB WRITE        ACCESS:          0 HIT:          0 MISS:          0
cpu1_DTLB TRANSLATION  ACCESS:          0 HIT:          0 MISS:          0
cpu1_DTLB PREFETCH REQUESTED:          0 ISSUED:          0 USEFUL:          0 USELESS:          0
cpu1_DTLB AVERAGE MISS LATENCY: 7.141 cycles
cpu1_ITLB TOTAL        ACCESS:          0 HIT:          0 MISS:          0
cpu1_ITLB LOAD         ACCESS:          0 HIT:          0 MISS:          0
cpu1_ITLB RFO          ACCESS:          0 HIT:          0 MISS:          0
cpu1_ITLB PREFETCH     ACCESS:          0 HIT:          0 MISS:          0
cpu1_ITLB WRITE        ACCESS:          0 HIT:          0 MISS:          0
cpu1_ITLB TRANSLATION  ACCESS:          0 HIT:          0 MISS:          0
cpu1_ITLB PREFETCH REQUESTED:          0 ISSUED:          0 USEFUL:          0 USELESS:          0
cpu1_ITLB AVERAGE MISS LATENCY: -nan cycles
cpu1_ITLB TOTAL        ACCESS:   77070756 HIT:   77070756 MISS:          0
cpu1_ITLB LOAD         ACCESS:   77070756 HIT:   77070756 MISS:          0
cpu1_ITLB RFO          ACCESS:          0 HIT:          0 MISS:          0
cpu1_ITLB PREFETCH     ACCESS:          0 HIT:          0 MISS:          0
cpu1_ITLB WRITE        ACCESS:          0 HIT:          0 MISS:          0
cpu1_ITLB TRANSLATION  ACCESS:          0 HIT:          0 MISS:          0
cpu1_ITLB PREFETCH REQUESTED:          0 ISSUED:          0 USEFUL:          0 USELESS:          0
cpu1_ITLB AVERAGE MISS LATENCY: -nan cycles
cpu1_ITLB TOTAL        ACCESS:          0 HIT:          0 MISS:          0
cpu1_ITLB LOAD         ACCESS:          0 HIT:          0 MISS:          0
cpu1_ITLB RFO          ACCESS:          0 HIT:          0 MISS:          0
cpu1_ITLB PREFETCH     ACCESS:          0 HIT:          0 MISS:          0
cpu1_ITLB WRITE        ACCESS:          0 HIT:          0 MISS:          0
cpu1_ITLB TRANSLATION  ACCESS:          0 HIT:          0 MISS:          0
cpu1_ITLB PREFETCH REQUESTED:          0 ISSUED:          0 USEFUL:          0 USELESS:          0
cpu1_ITLB AVERAGE MISS LATENCY: -nan cycles
cpu1_ITLB TOTAL        ACCESS:          0 HIT:          0 MISS:          0
cpu1_ITLB LOAD         ACCESS:          0 HIT:          0 MISS:          0
cpu1_ITLB RFO          ACCESS:          0 HIT:          0 MISS:          0
cpu1_ITLB PREFETCH     ACCESS:          0 HIT:          0 MISS:          0
cpu1_ITLB WRITE        ACCESS:          0 HIT:          0 MISS:          0
cpu1_ITLB TRANSLATION  ACCESS:          0 HIT:          0 MISS:          0
cpu1_ITLB PREFETCH REQUESTED:          0 ISSUED:          0 USEFUL:          0 USELESS:          0
cpu1_ITLB AVERAGE MISS LATENCY: -nan cycles
cpu1_L1D TOTAL        ACCESS:          0 HIT:          0 MISS:          0
cpu1_L1D LOAD         ACCESS:          0 HIT:          0 MISS:          0
cpu1_L1D RFO          ACCESS:          0 HIT:          0 MISS:          0
cpu1_L1D PREFETCH     ACCESS:          0 HIT:          0 MISS:          0
cpu1_L1D WRITE        ACCESS:          0 HIT:          0 MISS:          0
cpu1_L1D TRANSLATION  ACCESS:          0 HIT:          0 MISS:          0
cpu1_L1D PREFETCH REQUESTED:          0 ISSUED:          0 USEFUL:          0 USELESS:          0
cpu1_L1D AVERAGE MISS LATENCY: 57.81 cycles
cpu1_L1D TOTAL        ACCESS:  153141790 HIT:   84804809 MISS:   68336981
cpu1_L1D LOAD         ACCESS:   85968106 HIT:   21242229 MISS:   64725877
cpu1_L1D RFO          ACCESS:          0 HIT:          0 MISS:          0
cpu1_L1D PREFETCH     ACCESS:          0 HIT:          0 MISS:          0
cpu1_L1D WRITE        ACCESS:   67062491 HIT:   63561624 MISS:    3500867
cpu1_L1D TRANSLATION  ACCESS:     111193 HIT:        956 MISS:     110237
cpu1_L1D PREFETCH REQUESTED:          0 ISSUED:          0 USEFUL:          0 USELESS:          0
cpu1_L1D AVERAGE MISS LATENCY: 57.81 cycles
cpu1_L1D TOTAL        ACCESS:          0 HIT:          0 MISS:          0
cpu1_L1D LOAD         ACCESS:          0 HIT:          0 MISS:          0
cpu1_L1D RFO          ACCESS:          0 HIT:          0 MISS:          0
cpu1_L1D PREFETCH     ACCESS:          0 HIT:          0 MISS:          0
cpu1_L1D WRITE        ACCESS:          0 HIT:          0 MISS:          0
cpu1_L1D TRANSLATION  ACCESS:          0 HIT:          0 MISS:          0
cpu1_L1D PREFETCH REQUESTED:          0 ISSUED:          0 USEFUL:          0 USELESS:          0
cpu1_L1D AVERAGE MISS LATENCY: 57.81 cycles
cpu1_L1D TOTAL        ACCESS:          0 HIT:          0 MISS:          0
cpu1_L1D LOAD         ACCESS:          0 HIT:          0 MISS:          0
cpu1_L1D RFO          ACCESS:          0 HIT:          0 MISS:          0
cpu1_L1D PREFETCH     ACCESS:          0 HIT:          0 MISS:          0
cpu1_L1D WRITE        ACCESS:          0 HIT:          0 MISS:          0
cpu1_L1D TRANSLATION  ACCESS:          0 HIT:          0 MISS:          0
cpu1_L1D PREFETCH REQUESTED:          0 ISSUED:          0 USEFUL:          0 USELESS:          0
cpu1_L1D AVERAGE MISS LATENCY: 57.81 cycles
cpu1_L1I TOTAL        ACCESS:          0 HIT:          0 MISS:          0
cpu1_L1I LOAD         ACCESS:          0 HIT:          0 MISS:          0
cpu1_L1I RFO          ACCESS:          0 HIT:          0 MISS:          0
cpu1_L1I PREFETCH     ACCESS:          0 HIT:          0 MISS:          0
cpu1_L1I WRITE        ACCESS:          0 HIT:          0 MISS:          0
cpu1_L1I TRANSLATION  ACCESS:          0 HIT:          0 MISS:          0
cpu1_L1I PREFETCH REQUESTED:          0 ISSUED:          0 USEFUL:          0 USELESS:          0
cpu1_L1I AVERAGE MISS LATENCY: -nan cycles
cpu1_L1I TOTAL        ACCESS:  100178059 HIT:  100178059 MISS:          0
cpu1_L1I LOAD         ACCESS:  100178059 HIT:  100178059 MISS:          0
cpu1_L1I RFO          ACCESS:          0 HIT:          0 MISS:          0
cpu1_L1I PREFETCH     ACCESS:          0 HIT:          0 MISS:          0
cpu1_L1I WRITE        ACCESS:          0 HIT:          0 MISS:          0
cpu1_L1I TRANSLATION  ACCESS:          0 HIT:          0 MISS:          0
cpu1_L1I PREFETCH REQUESTED:          0 ISSUED:          0 USEFUL:          0 USELESS:          0
cpu1_L1I AVERAGE MISS LATENCY: -nan cycles
cpu1_L1I TOTAL        ACCESS:          0 HIT:          0 MISS:          0
cpu1_L1I LOAD         ACCESS:          0 HIT:          0 MISS:          0
cpu1_L1I RFO          ACCESS:          0 HIT:          0 MISS:          0
cpu1_L1I PREFETCH     ACCESS:          0 HIT:          0 MISS:          0
cpu1_L1I WRITE        ACCESS:          0 HIT:          0 MISS:          0
cpu1_L1I TRANSLATION  ACCESS:          0 HIT:          0 MISS:          0
cpu1_L1I PREFETCH REQUESTED:          0 ISSUED:          0 USEFUL:          0 USELESS:          0
cpu1_L1I AVERAGE MISS LATENCY: -nan cycles
cpu1_L1I TOTAL        ACCESS:          0 HIT:          0 MISS:          0
cpu1_L1I LOAD         ACCESS:          0 HIT:          0 MISS:          0
cpu1_L1I RFO          ACCESS:          0 HIT:          0 MISS:          0
cpu1_L1I PREFETCH     ACCESS:          0 HIT:          0 MISS:          0
cpu1_L1I WRITE        ACCESS:          0 HIT:          0 MISS:          0
cpu1_L1I TRANSLATION  ACCESS:          0 HIT:          0 MISS:          0
cpu1_L1I PREFETCH REQUESTED:          0 ISSUED:          0 USEFUL:          0 USELESS:          0
cpu1_L1I AVERAGE MISS LATENCY: -nan cycles
cpu1_L2C TOTAL        ACCESS:          0 HIT:          0 MISS:          0
cpu1_L2C LOAD         ACCESS:          0 HIT:          0 MISS:          0
cpu1_L2C RFO          ACCESS:          0 HIT:          0 MISS:          0
cpu1_L2C PREFETCH     ACCESS:          0 HIT:          0 MISS:          0
cpu1_L2C WRITE        ACCESS:          0 HIT:          0 MISS:          0
cpu1_L2C TRANSLATION  ACCESS:          0 HIT:          0 MISS:          0
cpu1_L2C PREFETCH REQUESTED:   39119912 ISSUED:   39113940 USEFUL:      67316 USELESS:      17859
cpu1_L2C AVERAGE MISS LATENCY: 167.3 cycles
cpu1_L2C TOTAL        ACCESS:  110772059 HIT:   91187150 MISS:   19584909
cpu1_L2C LOAD         ACCESS:   63876918 HIT:   58123760 MISS:    5753158
cpu1_L2C RFO          ACCESS:    2616521 HIT:    2600918 MISS:      15603
cpu1_L2C PREFETCH     ACCESS:   39113940 HIT:   25387011 MISS:   13726929
cpu1_L2C WRITE        ACCESS:    5054508 HIT:    5054504 MISS:          4
cpu1_L2C TRANSLATION  ACCESS:     110172 HIT:      20957 MISS:      89215
cpu1_L2C PREFETCH REQUESTED:   39119912 ISSUED:   39113940 USEFUL:      67316 USELESS:      17859
cpu1_L2C AVERAGE MISS LATENCY: 167.3 cycles
cpu1_L2C TOTAL        ACCESS:          0 HIT:          0 MISS:          0
cpu1_L2C LOAD         ACCESS:          0 HIT:          0 MISS:          0
cpu1_L2C RFO          ACCESS:          0 HIT:          0 MISS:          0
cpu1_L2C PREFETCH     ACCESS:          0 HIT:          0 MISS:          0
cpu1_L2C WRITE        ACCESS:          0 HIT:          0 MISS:          0
cpu1_L2C TRANSLATION  ACCESS:          0 HIT:          0 MISS:          0
cpu1_L2C PREFETCH REQUESTED:   39119912 ISSUED:   39113940 USEFUL:      67316 USELESS:      17859
cpu1_L2C AVERAGE MISS LATENCY: 167.3 cycles
cpu1_L2C TOTAL        ACCESS:          0 HIT:          0 MISS:          0
cpu1_L2C LOAD         ACCESS:          0 HIT:          0 MISS:          0
cpu1_L2C RFO          ACCESS:          0 HIT:          0 MISS:          0
cpu1_L2C PREFETCH     ACCESS:          0 HIT:          0 MISS:          0
cpu1_L2C WRITE        ACCESS:          0 HIT:          0 MISS:          0
cpu1_L2C TRANSLATION  ACCESS:          0 HIT:          0 MISS:          0
cpu1_L2C PREFETCH REQUESTED:   39119912 ISSUED:   39113940 USEFUL:      67316 USELESS:      17859
cpu1_L2C AVERAGE MISS LATENCY: 167.3 cycles
cpu1_STLB TOTAL        ACCESS:          0 HIT:          0 MISS:          0
cpu1_STLB LOAD         ACCESS:          0 HIT:          0 MISS:          0
cpu1_STLB RFO          ACCESS:          0 HIT:          0 MISS:          0
cpu1_STLB PREFETCH     ACCESS:          0 HIT:          0 MISS:          0
cpu1_STLB WRITE        ACCESS:          0 HIT:          0 MISS:          0
cpu1_STLB TRANSLATION  ACCESS:          0 HIT:          0 MISS:          0
cpu1_STLB PREFETCH REQUESTED:          0 ISSUED:          0 USEFUL:          0 USELESS:          0
cpu1_STLB AVERAGE MISS LATENCY: 778.8 cycles
cpu1_STLB TOTAL        ACCESS:   44290014 HIT:   44218539 MISS:      71475
cpu1_STLB LOAD         ACCESS:   44290014 HIT:   44218539 MISS:      71475
cpu1_STLB RFO          ACCESS:          0 HIT:          0 MISS:          0
cpu1_STLB PREFETCH     ACCESS:          0 HIT:          0 MISS:          0
cpu1_STLB WRITE        ACCESS:          0 HIT:          0 MISS:          0
cpu1_STLB TRANSLATION  ACCESS:          0 HIT:          0 MISS:          0
cpu1_STLB PREFETCH REQUESTED:          0 ISSUED:          0 USEFUL:          0 USELESS:          0
cpu1_STLB AVERAGE MISS LATENCY: 778.8 cycles
cpu1_STLB TOTAL        ACCESS:          0 HIT:          0 MISS:          0
cpu1_STLB LOAD         ACCESS:          0 HIT:          0 MISS:          0
cpu1_STLB RFO          ACCESS:          0 HIT:          0 MISS:          0
cpu1_STLB PREFETCH     ACCESS:          0 HIT:          0 MISS:          0
cpu1_STLB WRITE        ACCESS:          0 HIT:          0 MISS:          0
cpu1_STLB TRANSLATION  ACCESS:          0 HIT:          0 MISS:          0
cpu1_STLB PREFETCH REQUESTED:          0 ISSUED:          0 USEFUL:          0 USELESS:          0
cpu1_STLB AVERAGE MISS LATENCY: 778.8 cycles
cpu1_STLB TOTAL        ACCESS:          0 HIT:          0 MISS:          0
cpu1_STLB LOAD         ACCESS:          0 HIT:          0 MISS:          0
cpu1_STLB RFO          ACCESS:          0 HIT:          0 MISS:          0
cpu1_STLB PREFETCH     ACCESS:          0 HIT:          0 MISS:          0
cpu1_STLB WRITE        ACCESS:          0 HIT:          0 MISS:          0
cpu1_STLB TRANSLATION  ACCESS:          0 HIT:          0 MISS:          0
cpu1_STLB PREFETCH REQUESTED:          0 ISSUED:          0 USEFUL:          0 USELESS:          0
cpu1_STLB AVERAGE MISS LATENCY: 778.8 cycles
cpu2_DTLB TOTAL        ACCESS:          0 HIT:          0 MISS:          0
cpu2_DTLB LOAD         ACCESS:          0 HIT:          0 MISS:          0
cpu2_DTLB RFO          ACCESS:          0 HIT:          0 MISS:          0
cpu2_DTLB PREFETCH     ACCESS:          0 HIT:          0 MISS:          0
cpu2_DTLB WRITE        ACCESS:          0 HIT:          0 MISS:          0
cpu2_DTLB TRANSLATION  ACCESS:          0 HIT:          0 MISS:          0
cpu2_DTLB PREFETCH REQUESTED:          0 ISSUED:          0 USEFUL:          0 USELESS:          0
cpu2_DTLB AVERAGE MISS LATENCY: 9.394 cycles
cpu2_DTLB TOTAL        ACCESS:          0 HIT:          0 MISS:          0
cpu2_DTLB LOAD         ACCESS:          0 HIT:          0 MISS:          0
cpu2_DTLB RFO          ACCESS:          0 HIT:          0 MISS:          0
cpu2_DTLB PREFETCH     ACCESS:          0 HIT:          0 MISS:          0
cpu2_DTLB WRITE        ACCESS:          0 HIT:          0 MISS:          0
cpu2_DTLB TRANSLATION  ACCESS:          0 HIT:          0 MISS:          0
cpu2_DTLB PREFETCH REQUESTED:          0 ISSUED:          0 USEFUL:          0 USELESS:          0
cpu2_DTLB AVERAGE MISS LATENCY: 9.394 cycles
cpu2_DTLB TOTAL        ACCESS:   43482632 HIT:   40767890 MISS:    2714742
cpu2_DTLB LOAD         ACCESS:   43482632 HIT:   40767890 MISS:    2714742
cpu2_DTLB RFO          ACCESS:          0 HIT:          0 MISS:          0
cpu2_DTLB PREFETCH     ACCESS:          0 HIT:          0 MISS:          0
cpu2_DTLB WRITE        ACCESS:          0 HIT:          0 MISS:          0
cpu2_DTLB TRANSLATION  ACCESS:          0 HIT:          0 MISS:          0
cpu2_DTLB PREFETCH REQUESTED:          0 ISSUED:          0 USEFUL:          0 USELESS:          0
cpu2_DTLB AVERAGE MISS LATENCY: 9.394 cycles
cpu2_DTLB TOTAL        ACCESS:          0 HIT:          0 MISS:          0
cpu2_DTLB LOAD         ACCESS:          0 HIT:          0 MISS:          0
cpu2_DTLB RFO          ACCESS:          0 HIT:          0 MISS:          0
cpu2_DTLB PREFETCH     ACCESS:          0 HIT:          0 MISS:          0
cpu2_DTLB WRITE        ACCESS:          0 HIT:          0 MISS:          0
cpu2_DTLB TRANSLATION  ACCESS:          0 HIT:          0 MISS:          0
cpu2_DTLB PREFETCH REQUESTED:          0 ISSUED:          0 USEFUL:          0 USELESS:          0
cpu2_DTLB AVERAGE MISS LATENCY: 9.394 cycles
cpu2_ITLB TOTAL        ACCESS:          0 HIT:          0 MISS:          0
cpu2_ITLB LOAD         ACCESS:          0 HIT:          0 MISS:          0
cpu2_ITLB RFO          ACCESS:          0 HIT:          0 MISS:          0
cpu2_ITLB PREFETCH     ACCESS:          0 HIT:          0 MISS:          0
cpu2_ITLB WRITE        ACCESS:          0 HIT:          0 MISS:          0
cpu2_ITLB TRANSLATION  ACCESS:          0 HIT:          0 MISS:          0
cpu2_ITLB PREFETCH REQUESTED:          0 ISSUED:          0 USEFUL:          0 USELESS:          0
cpu2_ITLB AVERAGE MISS LATENCY: -nan cycles
cpu2_ITLB TOTAL        ACCESS:          0 HIT:          0 MISS:          0
cpu2_ITLB LOAD         ACCESS:          0 HIT:          0 MISS:          0
cpu2_ITLB RFO          ACCESS:          0 HIT:          0 MISS:          0
cpu2_ITLB PREFETCH     ACCESS:          0 HIT:          0 MISS:          0
cpu2_ITLB WRITE        ACCESS:          0 HIT:          0 MISS:          0
cpu2_ITLB TRANSLATION  ACCESS:          0 HIT:          0 MISS:          0
cpu2_ITLB PREFETCH REQUESTED:          0 ISSUED:          0 USEFUL:          0 USELESS:          0
cpu2_ITLB AVERAGE MISS LATENCY: -nan cycles
cpu2_ITLB TOTAL        ACCESS:      50284 HIT:      50284 MISS:          0
cpu2_ITLB LOAD         ACCESS:      50284 HIT:      50284 MISS:          0
cpu2_ITLB RFO          ACCESS:          0 HIT:          0 MISS:          0
cpu2_ITLB PREFETCH     ACCESS:          0 HIT:          0 MISS:          0
cpu2_ITLB WRITE        ACCESS:          0 HIT:          0 MISS:          0
cpu2_ITLB TRANSLATION  ACCESS:          0 HIT:          0 MISS:          0
cpu2_ITLB PREFETCH REQUESTED:          0 ISSUED:          0 USEFUL:          0 USELESS:          0
cpu2_ITLB AVERAGE MISS LATENCY: -nan cycles
cpu2_ITLB TOTAL        ACCESS:          0 HIT:          0 MISS:          0
cpu2_ITLB LOAD         ACCESS:          0 HIT:          0 MISS:          0
cpu2_ITLB RFO          ACCESS:          0 HIT:          0 MISS:          0
cpu2_ITLB PREFETCH     ACCESS:          0 HIT:          0 MISS:          0
cpu2_ITLB WRITE        ACCESS:          0 HIT:          0 MISS:          0
cpu2_ITLB TRANSLATION  ACCESS:          0 HIT:          0 MISS:          0
cpu2_ITLB PREFETCH REQUESTED:          0 ISSUED:          0 USEFUL:          0 USELESS:          0
cpu2_ITLB AVERAGE MISS LATENCY: -nan cycles
cpu2_L1D TOTAL        ACCESS:          0 HIT:          0 MISS:          0
cpu2_L1D LOAD         ACCESS:          0 HIT:          0 MISS:          0
cpu2_L1D RFO          ACCESS:          0 HIT:          0 MISS:          0
cpu2_L1D PREFETCH     ACCESS:          0 HIT:          0 MISS:          0
cpu2_L1D WRITE        ACCESS:          0 HIT:          0 MISS:          0
cpu2_L1D TRANSLATION  ACCESS:          0 HIT:          0 MISS:          0
cpu2_L1D PREFETCH REQUESTED:          0 ISSUED:          0 USEFUL:          0 USELESS:          0
cpu2_L1D AVERAGE MISS LATENCY: 80.35 cycles
cpu2_L1D TOTAL        ACCESS:          0 HIT:          0 MISS:          0
cpu2_L1D LOAD         ACCESS:          0 HIT:          0 MISS:          0
cpu2_L1D RFO          ACCESS:          0 HIT:          0 MISS:          0
cpu2_L1D PREFETCH     ACCESS:          0 HIT:          0 MISS:          0
cpu2_L1D WRITE        ACCESS:          0 HIT:          0 MISS:          0
cpu2_L1D TRANSLATION  ACCESS:          0 HIT:          0 MISS:          0
cpu2_L1D PREFETCH REQUESTED:          0 ISSUED:          0 USEFUL:          0 USELESS:          0
cpu2_L1D AVERAGE MISS LATENCY: 80.35 cycles
cpu2_L1D TOTAL        ACCESS:   55234942 HIT:   47787804 MISS:    7447138
cpu2_L1D LOAD         ACCESS:   36573543 HIT:   30793139 MISS:    5780404
cpu2_L1D RFO          ACCESS:          0 HIT:          0 MISS:          0
cpu2_L1D PREFETCH     ACCESS:          0 HIT:          0 MISS:          0
cpu2_L1D WRITE        ACCESS:   18628684 HIT:   16979538 MISS:    1649146
cpu2_L1D TRANSLATION  ACCESS:      32715 HIT:      15127 MISS:      17588
cpu2_L1D PREFETCH REQUESTED:          0 ISSUED:          0 USEFUL:          0 USELESS:          0
cpu2_L1D AVERAGE MISS LATENCY: 80.35 cycles
cpu2_L1D TOTAL        ACCESS:          0 HIT:          0 MISS:          0
cpu2_L1D LOAD         ACCESS:          0 HIT:          0 MISS:          0
cpu2_L1D RFO          ACCESS:          0 HIT:          0 MISS:          0
cpu2_L1D PREFETCH     ACCESS:          0 HIT:          0 MISS:          0
cpu2_L1D WRITE        ACCESS:          0 HIT:          0 MISS:          0
cpu2_L1D TRANSLATION  ACCESS:          0 HIT:          0 MISS:          0
cpu2_L1D PREFETCH REQUESTED:          0 ISSUED:          0 USEFUL:          0 USELESS:          0
cpu2_L1D AVERAGE MISS LATENCY: 80.35 cycles
cpu2_L1I TOTAL        ACCESS:          0 HIT:          0 MISS:          0
cpu2_L1I LOAD         ACCESS:          0 HIT:          0 MISS:          0
cpu2_L1I RFO          ACCESS:          0 HIT:          0 MISS:          0
cpu2_L1I PREFETCH     ACCESS:          0 HIT:          0 MISS:          0
cpu2_L1I WRITE        ACCESS:          0 HIT:          0 MISS:          0
cpu2_L1I TRANSLATION  ACCESS:          0 HIT:          0 MISS:          0
cpu2_L1I PREFETCH REQUESTED:          0 ISSUED:          0 USEFUL:          0 USELESS:          0
cpu2_L1I AVERAGE MISS LATENCY: 834.5 cycles
cpu2_L1I TOTAL        ACCESS:          0 HIT:          0 MISS:          0
cpu2_L1I LOAD         ACCESS:          0 HIT:          0 MISS:          0
cpu2_L1I RFO          ACCESS:          0 HIT:          0 MISS:          0
cpu2_L1I PREFETCH     ACCESS:          0 HIT:          0 MISS:          0
cpu2_L1I WRITE        ACCESS:          0 HIT:          0 MISS:          0
cpu2_L1I TRANSLATION  ACCESS:          0 HIT:          0 MISS:          0
cpu2_L1I PREFETCH REQUESTED:          0 ISSUED:          0 USEFUL:          0 USELESS:          0
cpu2_L1I AVERAGE MISS LATENCY: 834.5 cycles
cpu2_L1I TOTAL        ACCESS:      56281 HIT:      56279 MISS:          2
cpu2_L1I LOAD         ACCESS:      56281 HIT:      56279 MISS:          2
cpu2_L1I RFO          ACCESS:          0 HIT:          0 MISS:          0
cpu2_L1I PREFETCH     ACCESS:          0 HIT:          0 MISS:          0
cpu2_L1I WRITE        ACCESS:          0 HIT:          0 MISS:          0
cpu2_L1I TRANSLATION  ACCESS:          0 HIT:          0 MISS:          0
cpu2_L1I PREFETCH REQUESTED:          0 ISSUED:          0 USEFUL:          0 USELESS:          0
cpu2_L1I AVERAGE MISS LATENCY: 834.5 cycles
cpu2_L1I TOTAL        ACCESS:          0 HIT:          0 MISS:          0
cpu2_L1I LOAD         ACCESS:          0 HIT:          0 MISS:          0
cpu2_L1I RFO          ACCESS:          0 HIT:          0 MISS:          0
cpu2_L1I PREFETCH     ACCESS:          0 HIT:          0 MISS:          0
cpu2_L1I WRITE        ACCESS:          0 HIT:          0 MISS:          0
cpu2_L1I TRANSLATION  ACCESS:          0 HIT:          0 MISS:          0
cpu2_L1I PREFETCH REQUESTED:          0 ISSUED:          0 USEFUL:          0 USELESS:          0
cpu2_L1I AVERAGE MISS LATENCY: 834.5 cycles
cpu2_L2C TOTAL        ACCESS:          0 HIT:          0 MISS:          0
cpu2_L2C LOAD         ACCESS:          0 HIT:          0 MISS:          0
cpu2_L2C RFO          ACCESS:          0 HIT:          0 MISS:          0
cpu2_L2C PREFETCH     ACCESS:          0 HIT:          0 MISS:          0
cpu2_L2C WRITE        ACCESS:          0 HIT:          0 MISS:          0
cpu2_L2C TRANSLATION  ACCESS:          0 HIT:          0 MISS:          0
cpu2_L2C PREFETCH REQUESTED:    5808811 ISSUED:    5807853 USEFUL:     302234 USELESS:       9720
cpu2_L2C AVERAGE MISS LATENCY: 75.27 cycles
cpu2_L2C TOTAL        ACCESS:          0 HIT:          0 MISS:          0
cpu2_L2C LOAD         ACCESS:          0 HIT:          0 MISS:          0
cpu2_L2C RFO          ACCESS:          0 HIT:          0 MISS:          0
cpu2_L2C PREFETCH     ACCESS:          0 HIT:          0 MISS:          0
cpu2_L2C WRITE        ACCESS:          0 HIT:          0 MISS:          0
cpu2_L2C TRANSLATION  ACCESS:          0 HIT:          0 MISS:          0
cpu2_L2C PREFETCH REQUESTED:    5808811 ISSUED:    5807853 USEFUL:     302234 USELESS:       9720
cpu2_L2C AVERAGE MISS LATENCY: 75.27 cycles
cpu2_L2C TOTAL        ACCESS:   12106165 HIT:    4413046 MISS:    7693119
cpu2_L2C LOAD         ACCESS:    4848527 HIT:    1943965 MISS:    2904562
cpu2_L2C RFO          ACCESS:     603039 HIT:     364854 MISS:     238185
cpu2_L2C PREFETCH     ACCESS:    5807853 HIT:    1272515 MISS:    4535338
cpu2_L2C WRITE        ACCESS:     829161 HIT:     828693 MISS:        468
cpu2_L2C TRANSLATION  ACCESS:      17585 HIT:       3019 MISS:      14566
cpu2_L2C PREFETCH REQUESTED:    5808811 ISSUED:    5807853 USEFUL:     302234 USELESS:       9720
cpu2_L2C AVERAGE MISS LATENCY: 75.27 cycles
cpu2_L2C TOTAL        ACCESS:          0 HIT:          0 MISS:          0
cpu2_L2C LOAD         ACCESS:          0 HIT:          0 MISS:          0
cpu2_L2C RFO          ACCESS:          0 HIT:          0 MISS:          0
cpu2_L2C PREFETCH     ACCESS:          0 HIT:          0 MISS:          0
cpu2_L2C WRITE        ACCESS:          0 HIT:          0 MISS:          0
cpu2_L2C TRANSLATION  ACCESS:          0 HIT:          0 MISS:          0
cpu2_L2C PREFETCH REQUESTED:    5808811 ISSUED:    5807853 USEFUL:     302234 USELESS:       9720
cpu2_L2C AVERAGE MISS LATENCY: 75.27 cycles
cpu2_STLB TOTAL        ACCESS:          0 HIT:          0 MISS:          0
cpu2_STLB LOAD         ACCESS:          0 HIT:          0 MISS:          0
cpu2_STLB RFO          ACCESS:          0 HIT:          0 MISS:          0
cpu2_STLB PREFETCH     ACCESS:          0 HIT:          0 MISS:          0
cpu2_STLB WRITE        ACCESS:          0 HIT:          0 MISS:          0
cpu2_STLB TRANSLATION  ACCESS:          0 HIT:          0 MISS:          0
cpu2_STLB PREFETCH REQUESTED:          0 ISSUED:          0 USEFUL:          0 USELESS:          0
cpu2_STLB AVERAGE MISS LATENCY: 264.1 cycles
cpu2_STLB TOTAL        ACCESS:          0 HIT:          0 MISS:          0
cpu2_STLB LOAD         ACCESS:          0 HIT:          0 MISS:          0
cpu2_STLB RFO          ACCESS:          0 HIT:          0 MISS:          0
cpu2_STLB PREFETCH     ACCESS:          0 HIT:          0 MISS:          0
cpu2_STLB WRITE        ACCESS:          0 HIT:          0 MISS:          0
cpu2_STLB TRANSLATION  ACCESS:          0 HIT:          0 MISS:          0
cpu2_STLB PREFETCH REQUESTED:          0 ISSUED:          0 USEFUL:          0 USELESS:          0
cpu2_STLB AVERAGE MISS LATENCY: 264.1 cycles
cpu2_STLB TOTAL        ACCESS:    2331990 HIT:    2299522 MISS:      32468
cpu2_STLB LOAD         ACCESS:    2331990 HIT:    2299522 MISS:      32468
cpu2_STLB RFO          ACCESS:          0 HIT:          0 MISS:          0
cpu2_STLB PREFETCH     ACCESS:          0 HIT:          0 MISS:          0
cpu2_STLB WRITE        ACCESS:          0 HIT:          0 MISS:          0
cpu2_STLB TRANSLATION  ACCESS:          0 HIT:          0 MISS:          0
cpu2_STLB PREFETCH REQUESTED:          0 ISSUED:          0 USEFUL:          0 USELESS:          0
cpu2_STLB AVERAGE MISS LATENCY: 264.1 cycles
cpu2_STLB TOTAL        ACCESS:          0 HIT:          0 MISS:          0
cpu2_STLB LOAD         ACCESS:          0 HIT:          0 MISS:          0
cpu2_STLB RFO          ACCESS:          0 HIT:          0 MISS:          0
cpu2_STLB PREFETCH     ACCESS:          0 HIT:          0 MISS:          0
cpu2_STLB WRITE        ACCESS:          0 HIT:          0 MISS:          0
cpu2_STLB TRANSLATION  ACCESS:          0 HIT:          0 MISS:          0
cpu2_STLB PREFETCH REQUESTED:          0 ISSUED:          0 USEFUL:          0 USELESS:          0
cpu2_STLB AVERAGE MISS LATENCY: 264.1 cycles
cpu3_DTLB TOTAL        ACCESS:          0 HIT:          0 MISS:          0
cpu3_DTLB LOAD         ACCESS:          0 HIT:          0 MISS:          0
cpu3_DTLB RFO          ACCESS:          0 HIT:          0 MISS:          0
cpu3_DTLB PREFETCH     ACCESS:          0 HIT:          0 MISS:          0
cpu3_DTLB WRITE        ACCESS:          0 HIT:          0 MISS:          0
cpu3_DTLB TRANSLATION  ACCESS:          0 HIT:          0 MISS:          0
cpu3_DTLB PREFETCH REQUESTED:          0 ISSUED:          0 USEFUL:          0 USELESS:          0
cpu3_DTLB AVERAGE MISS LATENCY: 14.15 cycles
cpu3_DTLB TOTAL        ACCESS:          0 HIT:          0 MISS:          0
cpu3_DTLB LOAD         ACCESS:          0 HIT:          0 MISS:          0
cpu3_DTLB RFO          ACCESS:          0 HIT:          0 MISS:          0
cpu3_DTLB PREFETCH     ACCESS:          0 HIT:          0 MISS:          0
cpu3_DTLB WRITE        ACCESS:          0 HIT:          0 MISS:          0
cpu3_DTLB TRANSLATION  ACCESS:          0 HIT:          0 MISS:          0
cpu3_DTLB PREFETCH REQUESTED:          0 ISSUED:          0 USEFUL:          0 USELESS:          0
cpu3_DTLB AVERAGE MISS LATENCY: 14.15 cycles
cpu3_DTLB TOTAL        ACCESS:          0 HIT:          0 MISS:          0
cpu3_DTLB LOAD         ACCESS:          0 HIT:          0 MISS:          0
cpu3_DTLB RFO          ACCESS:          0 HIT:          0 MISS:          0
[...]
cpu2_L1I PREFETCH REQUESTED:          0 ISSUED:          0 USEFUL:          0 USELESS:          0
cpu2_L1I AVERAGE MISS LATENCY: 834.5 cycles
cpu2_L1I TOTAL        ACCESS:          0 HIT:          0 MISS:          0
cpu2_L1I LOAD         ACCESS:          0 HIT:          0 MISS:          0
cpu2_L1I RFO          ACCESS:          0 HIT:          0 MISS:          0
cpu2_L1I PREFETCH     ACCESS:          0 HIT:          0 MISS:          0
cpu2_L1I WRITE        ACCESS:          0 HIT:          0 MISS:          0
cpu2_L1I TRANSLATION  ACCESS:          0 HIT:          0 MISS:          0
cpu2_L1I PREFETCH REQUESTED:          0 ISSUED:          0 USEFUL:          0 USELESS:          0
cpu2_L1I AVERAGE MISS LATENCY: 834.5 cycles
cpu2_L2C TOTAL        ACCESS:          0 HIT:          0 MISS:          0
cpu2_L2C LOAD         ACCESS:          0 HIT:          0 MISS:          0
cpu2_L2C RFO          ACCESS:          0 HIT:          0 MISS:          0
cpu2_L2C PREFETCH     ACCESS:          0 HIT:          0 MISS:          0
cpu2_L2C WRITE        ACCESS:          0 HIT:          0 MISS:          0
cpu2_L2C TRANSLATION  ACCESS:          0 HIT:          0 MISS:          0
cpu2_L2C PREFETCH REQUESTED:    5808811 ISSUED:    5807853 USEFUL:     302234 USELESS:       9720
cpu2_L2C AVERAGE MISS LATENCY: 75.27 cycles
cpu2_L2C TOTAL        ACCESS:          0 HIT:          0 MISS:          0
cpu2_L2C LOAD         ACCESS:          0 HIT:          0 MISS:          0
cpu2_L2C RFO          ACCESS:          0 HIT:          0 MISS:          0
cpu2_L2C PREFETCH     ACCESS:          0 HIT:          0 MISS:          0
cpu2_L2C WRITE        ACCESS:          0 HIT:          0 MISS:          0
cpu2_L2C TRANSLATION  ACCESS:          0 HIT:          0 MISS:          0
cpu2_L2C PREFETCH REQUESTED:    5808811 ISSUED:    5807853 USEFUL:     302234 USELESS:       9720
cpu2_L2C AVERAGE MISS LATENCY: 75.27 cycles
cpu2_L2C TOTAL        ACCESS:   11472426 HIT:    4183488 MISS:    7288938
cpu2_L2C LOAD         ACCESS:    4606813 HIT:    1844870 MISS:    2761943
cpu2_L2C RFO          ACCESS:     573076 HIT:     346734 MISS:     226342
cpu2_L2C PREFETCH     ACCESS:    5491228 HIT:    1204935 MISS:    4286293
cpu2_L2C WRITE        ACCESS:     784517 HIT:     784069 MISS:        448
cpu2_L2C TRANSLATION  ACCESS:      16792 HIT:       2880 MISS:      13912
cpu2_L2C PREFETCH REQUESTED:    5808811 ISSUED:    5807853 USEFUL:     302234 USELESS:       9720
cpu2_L2C AVERAGE MISS LATENCY: 75.27 cycles
cpu2_L2C TOTAL        ACCESS:          0 HIT:          0 MISS:          0
cpu2_L2C LOAD         ACCESS:          0 HIT:          0 MISS:          0
cpu2_L2C RFO          ACCESS:          0 HIT:          0 MISS:          0
cpu2_L2C PREFETCH     ACCESS:          0 HIT:          0 MISS:          0
cpu2_L2C WRITE        ACCESS:          0 HIT:          0 MISS:          0
cpu2_L2C TRANSLATION  ACCESS:          0 HIT:          0 MISS:          0
cpu2_L2C PREFETCH REQUESTED:    5808811 ISSUED:    5807853 USEFUL:     302234 USELESS:       9720
cpu2_L2C AVERAGE MISS LATENCY: 75.27 cycles
cpu2_STLB TOTAL        ACCESS:          0 HIT:          0 MISS:          0
cpu2_STLB LOAD         ACCESS:          0 HIT:          0 MISS:          0
cpu2_STLB RFO          ACCESS:          0 HIT:          0 MISS:          0
cpu2_STLB PREFETCH     ACCESS:          0 HIT:          0 MISS:          0
cpu2_STLB WRITE        ACCESS:          0 HIT:          0 MISS:          0
cpu2_STLB TRANSLATION  ACCESS:          0 HIT:          0 MISS:          0
cpu2_STLB PREFETCH REQUESTED:          0 ISSUED:          0 USEFUL:          0 USELESS:          0
cpu2_STLB AVERAGE MISS LATENCY: 264.1 cycles
cpu2_STLB TOTAL        ACCESS:          0 HIT:          0 MISS:          0
cpu2_STLB LOAD         ACCESS:          0 HIT:          0 MISS:          0
cpu2_STLB RFO          ACCESS:          0 HIT:          0 MISS:          0
cpu2_STLB PREFETCH     ACCESS:          0 HIT:          0 MISS:          0
cpu2_STLB WRITE        ACCESS:          0 HIT:          0 MISS:          0
cpu2_STLB TRANSLATION  ACCESS:          0 HIT:          0 MISS:          0
cpu2_STLB PREFETCH REQUESTED:          0 ISSUED:          0 USEFUL:          0 USELESS:          0
cpu2_STLB AVERAGE MISS LATENCY: 264.1 cycles
cpu2_STLB TOTAL        ACCESS:    2217329 HIT:    2186372 MISS:      30957
cpu2_STLB LOAD         ACCESS:    2217329 HIT:    2186372 MISS:      30957
cpu2_STLB RFO          ACCESS:          0 HIT:          0 MISS:          0
cpu2_STLB PREFETCH     ACCESS:          0 HIT:          0 MISS:          0
cpu2_STLB WRITE        ACCESS:          0 HIT:          0 MISS:          0
cpu2_STLB TRANSLATION  ACCESS:          0 HIT:          0 MISS:          0
cpu2_STLB PREFETCH REQUESTED:          0 ISSUED:          0 USEFUL:          0 USELESS:          0
cpu2_STLB AVERAGE MISS LATENCY: 264.1 cycles
cpu2_STLB TOTAL        ACCESS:          0 HIT:          0 MISS:          0
cpu2_STLB LOAD         ACCESS:          0 HIT:          0 MISS:          0
cpu2_STLB RFO          ACCESS:          0 HIT:          0 MISS:          0
cpu2_STLB PREFETCH     ACCESS:          0 HIT:          0 MISS:          0
cpu2_STLB WRITE        ACCESS:          0 HIT:          0 MISS:          0
cpu2_STLB TRANSLATION  ACCESS:          0 HIT:          0 MISS:          0
cpu2_STLB PREFETCH REQUESTED:          0 ISSUED:          0 USEFUL:          0 USELESS:          0
cpu2_STLB AVERAGE MISS LATENCY: 264.1 cycles
cpu3_DTLB TOTAL        ACCESS:          0 HIT:          0 MISS:          0
cpu3_DTLB LOAD         ACCESS:          0 HIT:          0 MISS:          0
cpu3_DTLB RFO          ACCESS:          0 HIT:          0 MISS:          0
cpu3_DTLB PREFETCH     ACCESS:          0 HIT:          0 MISS:          0
cpu3_DTLB WRITE        ACCESS:          0 HIT:          0 MISS:          0
cpu3_DTLB TRANSLATION  ACCESS:          0 HIT:          0 MISS:          0
cpu3_DTLB PREFETCH REQUESTED:          0 ISSUED:          0 USEFUL:          0 USELESS:          0
cpu3_DTLB AVERAGE MISS LATENCY: 14.15 cycles
cpu3_DTLB TOTAL        ACCESS:          0 HIT:          0 MISS:          0
cpu3_DTLB LOAD         ACCESS:          0 HIT:          0 MISS:          0
cpu3_DTLB RFO          ACCESS:          0 HIT:          0 MISS:          0
cpu3_DTLB PREFETCH     ACCESS:          0 HIT:          0 MISS:          0
cpu3_DTLB WRITE        ACCESS:          0 HIT:          0 MISS:          0
cpu3_DTLB TRANSLATION  ACCESS:          0 HIT:          0 MISS:          0
cpu3_DTLB PREFETCH REQUESTED:          0 ISSUED:          0 USEFUL:          0 USELESS:          0
cpu3_DTLB AVERAGE MISS LATENCY: 14.15 cycles
cpu3_DTLB TOTAL        ACCESS:          0 HIT:          0 MISS:          0
cpu3_DTLB LOAD         ACCESS:          0 HIT:          0 MISS:          0
cpu3_DTLB RFO          ACCESS:          0 HIT:          0 MISS:          0
cpu3_DTLB PREFETCH     ACCESS:          0 HIT:          0 MISS:          0
cpu3_DTLB WRITE        ACCESS:          0 HIT:          0 MISS:          0
cpu3_DTLB TRANSLATION  ACCESS:          0 HIT:          0 MISS:          0
cpu3_DTLB PREFETCH REQUESTED:          0 ISSUED:          0 USEFUL:          0 USELESS:          0
cpu3_DTLB AVERAGE MISS LATENCY: 14.15 cycles
cpu3_DTLB TOTAL        ACCESS:   20751138 HIT:   20573332 MISS:     177806
cpu3_DTLB LOAD         ACCESS:   20751138 HIT:   20573332 MISS:     177806
cpu3_DTLB RFO          ACCESS:          0 HIT:          0 MISS:          0
cpu3_DTLB PREFETCH     ACCESS:          0 HIT:          0 MISS:          0
cpu3_DTLB WRITE        ACCESS:          0 HIT:          0 MISS:          0
cpu3_DTLB TRANSLATION  ACCESS:          0 HIT:          0 MISS:          0
cpu3_DTLB PREFETCH REQUESTED:          0 ISSUED:          0 USEFUL:          0 USELESS:          0
cpu3_DTLB AVERAGE MISS LATENCY: 14.15 cycles
cpu3_ITLB TOTAL        ACCESS:          0 HIT:          0 MISS:          0
cpu3_ITLB LOAD         ACCESS:          0 HIT:          0 MISS:          0
cpu3_ITLB RFO          ACCESS:          0 HIT:          0 MISS:          0
cpu3_ITLB PREFETCH     ACCESS:          0 HIT:          0 MISS:          0
cpu3_ITLB WRITE        ACCESS:          0 HIT:          0 MISS:          0
cpu3_ITLB TRANSLATION  ACCESS:          0 HIT:          0 MISS:          0
cpu3_ITLB PREFETCH REQUESTED:          0 ISSUED:          0 USEFUL:          0 USELESS:          0
cpu3_ITLB AVERAGE MISS LATENCY: 8.271 cycles
cpu3_ITLB TOTAL        ACCESS:          0 HIT:          0 MISS:          0
cpu3_ITLB LOAD         ACCESS:          0 HIT:          0 MISS:          0
cpu3_ITLB RFO          ACCESS:          0 HIT:          0 MISS:          0
cpu3_ITLB PREFETCH     ACCESS:          0 HIT:          0 MISS:          0
cpu3_ITLB WRITE        ACCESS:          0 HIT:          0 MISS:          0
cpu3_ITLB TRANSLATION  ACCESS:          0 HIT:          0 MISS:          0
cpu3_ITLB PREFETCH REQUESTED:          0 ISSUED:          0 USEFUL:          0 USELESS:          0
cpu3_ITLB AVERAGE MISS LATENCY: 8.271 cycles
cpu3_ITLB TOTAL        ACCESS:          0 HIT:          0 MISS:          0
cpu3_ITLB LOAD         ACCESS:          0 HIT:          0 MISS:          0
cpu3_ITLB RFO          ACCESS:          0 HIT:          0 MISS:          0
cpu3_ITLB PREFETCH     ACCESS:          0 HIT:          0 MISS:          0
cpu3_ITLB WRITE        ACCESS:          0 HIT:          0 MISS:          0
cpu3_ITLB TRANSLATION  ACCESS:          0 HIT:          0 MISS:          0
cpu3_ITLB PREFETCH REQUESTED:          0 ISSUED:          0 USEFUL:          0 USELESS:          0
cpu3_ITLB AVERAGE MISS LATENCY: 8.271 cycles
cpu3_ITLB TOTAL        ACCESS:     298139 HIT:     291582 MISS:       6557
cpu3_ITLB LOAD         ACCESS:     298139 HIT:     291582 MISS:       6557
cpu3_ITLB RFO          ACCESS:          0 HIT:          0 MISS:          0
cpu3_ITLB PREFETCH     ACCESS:          0 HIT:          0 MISS:          0
cpu3_ITLB WRITE        ACCESS:          0 HIT:          0 MISS:          0
cpu3_ITLB TRANSLATION  ACCESS:          0 HIT:          0 MISS:          0
cpu3_ITLB PREFETCH REQUESTED:          0 ISSUED:          0 USEFUL:          0 USELESS:          0
cpu3_ITLB AVERAGE MISS LATENCY: 8.271 cycles
cpu3_L1D TOTAL        ACCESS:          0 HIT:          0 MISS:          0
cpu3_L1D LOAD         ACCESS:          0 HIT:          0 MISS:          0
cpu3_L1D RFO          ACCESS:          0 HIT:          0 MISS:          0
cpu3_L1D PREFETCH     ACCESS:          0 HIT:          0 MISS:          0
cpu3_L1D WRITE        ACCESS:          0 HIT:          0 MISS:          0
cpu3_L1D TRANSLATION  ACCESS:          0 HIT:          0 MISS:          0
cpu3_L1D PREFETCH REQUESTED:          0 ISSUED:          0 USEFUL:          0 USELESS:          0
cpu3_L1D AVERAGE MISS LATENCY: 54.55 cycles
cpu3_L1D TOTAL        ACCESS:          0 HIT:          0 MISS:          0
cpu3_L1D LOAD         ACCESS:          0 HIT:          0 MISS:          0
cpu3_L1D RFO          ACCESS:          0 HIT:          0 MISS:          0
cpu3_L1D PREFETCH     ACCESS:          0 HIT:          0 MISS:          0
cpu3_L1D WRITE        ACCESS:          0 HIT:          0 MISS:          0
cpu3_L1D TRANSLATION  ACCESS:          0 HIT:          0 MISS:          0
cpu3_L1D PREFETCH REQUESTED:          0 ISSUED:          0 USEFUL:          0 USELESS:          0
cpu3_L1D AVERAGE MISS LATENCY: 54.55 cycles
cpu3_L1D TOTAL        ACCESS:          0 HIT:          0 MISS:          0
cpu3_L1D LOAD         ACCESS:          0 HIT:          0 MISS:          0
cpu3_L1D RFO          ACCESS:          0 HIT:          0 MISS:          0
cpu3_L1D PREFETCH     ACCESS:          0 HIT:          0 MISS:          0
cpu3_L1D WRITE        ACCESS:          0 HIT:          0 MISS:          0
cpu3_L1D TRANSLATION  ACCESS:          0 HIT:          0 MISS:          0
cpu3_L1D PREFETCH REQUESTED:          0 ISSUED:          0 USEFUL:          0 USELESS:          0
cpu3_L1D AVERAGE MISS LATENCY: 54.55 cycles
cpu3_L1D TOTAL        ACCESS:   24871678 HIT:   19853122 MISS:    5018556
cpu3_L1D LOAD         ACCESS:   15267630 HIT:   13146733 MISS:    2120897
cpu3_L1D RFO          ACCESS:          0 HIT:          0 MISS:          0
cpu3_L1D PREFETCH     ACCESS:          0 HIT:          0 MISS:          0
cpu3_L1D WRITE        ACCESS:    9595780 HIT:    6704220 MISS:    2891560
cpu3_L1D TRANSLATION  ACCESS:       8268 HIT:       2169 MISS:       6099
cpu3_L1D PREFETCH REQUESTED:          0 ISSUED:          0 USEFUL:          0 USELESS:          0
cpu3_L1D AVERAGE MISS LATENCY: 54.55 cycles
cpu3_L1I TOTAL        ACCESS:          0 HIT:          0 MISS:          0
cpu3_L1I LOAD         ACCESS:          0 HIT:          0 MISS:          0
cpu3_L1I RFO          ACCESS:          0 HIT:          0 MISS:          0
cpu3_L1I PREFETCH     ACCESS:          0 HIT:          0 MISS:          0
cpu3_L1I WRITE        ACCESS:          0 HIT:          0 MISS:          0
cpu3_L1I TRANSLATION  ACCESS:          0 HIT:          0 MISS:          0
cpu3_L1I PREFETCH REQUESTED:          0 ISSUED:          0 USEFUL:          0 USELESS:          0
cpu3_L1I AVERAGE MISS LATENCY: 24.38 cycles
cpu3_L1I TOTAL        ACCESS:          0 HIT:          0 MISS:          0
cpu3_L1I LOAD         ACCESS:          0 HIT:          0 MISS:          0
cpu3_L1I RFO          ACCESS:          0 HIT:          0 MISS:          0
cpu3_L1I PREFETCH     ACCESS:          0 HIT:          0 MISS:          0
cpu3_L1I WRITE        ACCESS:          0 HIT:          0 MISS:          0
cpu3_L1I TRANSLATION  ACCESS:          0 HIT:          0 MISS:          0
cpu3_L1I PREFETCH REQUESTED:          0 ISSUED:          0 USEFUL:          0 USELESS:          0
cpu3_L1I AVERAGE MISS LATENCY: 24.38 cycles
cpu3_L1I TOTAL        ACCESS:          0 HIT:          0 MISS:          0
cpu3_L1I LOAD         ACCESS:          0 HIT:          0 MISS:          0
cpu3_L1I RFO          ACCESS:          0 HIT:          0 MISS:          0
cpu3_L1I PREFETCH     ACCESS:          0 HIT:          0 MISS:          0
cpu3_L1I WRITE        ACCESS:          0 HIT:          0 MISS:          0
cpu3_L1I TRANSLATION  ACCESS:          0 HIT:          0 MISS:          0
cpu3_L1I PREFETCH REQUESTED:          0 ISSUED:          0 USEFUL:          0 USELESS:          0
cpu3_L1I AVERAGE MISS LATENCY: 24.38 cycles
cpu3_L1I TOTAL        ACCESS:     370793 HIT:     260006 MISS:     110787
cpu3_L1I LOAD         ACCESS:     370793 HIT:     260006 MISS:     110787
cpu3_L1I RFO          ACCESS:          0 HIT:          0 MISS:          0
cpu3_L1I PREFETCH     ACCESS:          0 HIT:          0 MISS:          0
cpu3_L1I WRITE        ACCESS:          0 HIT:          0 MISS:          0
cpu3_L1I TRANSLATION  ACCESS:          0 HIT:          0 MISS:          0
cpu3_L1I PREFETCH REQUESTED:          0 ISSUED:          0 USEFUL:          0 USELESS:          0
cpu3_L1I AVERAGE MISS LATENCY: 24.38 cycles
cpu3_L2C TOTAL        ACCESS:          0 HIT:          0 MISS:          0
cpu3_L2C LOAD         ACCESS:          0 HIT:          0 MISS:          0
cpu3_L2C RFO          ACCESS:          0 HIT:          0 MISS:          0
cpu3_L2C PREFETCH     ACCESS:          0 HIT:          0 MISS:          0
cpu3_L2C WRITE        ACCESS:          0 HIT:          0 MISS:          0
cpu3_L2C TRANSLATION  ACCESS:          0 HIT:          0 MISS:          0
cpu3_L2C PREFETCH REQUESTED:   25945068 ISSUED:   25051617 USEFUL:    1109798 USELESS:      32104
cpu3_L2C AVERAGE MISS LATENCY: 112 cycles
cpu3_L2C TOTAL        ACCESS:          0 HIT:          0 MISS:          0
cpu3_L2C LOAD         ACCESS:          0 HIT:          0 MISS:          0
cpu3_L2C RFO          ACCESS:          0 HIT:          0 MISS:          0
cpu3_L2C PREFETCH     ACCESS:          0 HIT:          0 MISS:          0
cpu3_L2C WRITE        ACCESS:          0 HIT:          0 MISS:          0
cpu3_L2C TRANSLATION  ACCESS:          0 HIT:          0 MISS:          0
cpu3_L2C PREFETCH REQUESTED:   25945068 ISSUED:   25051617 USEFUL:    1109798 USELESS:      32104
cpu3_L2C AVERAGE MISS LATENCY: 112 cycles
cpu3_L2C TOTAL        ACCESS:          0 HIT:          0 MISS:          0
cpu3_L2C LOAD         ACCESS:          0 HIT:          0 MISS:          0
cpu3_L2C RFO          ACCESS:          0 HIT:          0 MISS:          0
cpu3_L2C PREFETCH     ACCESS:          0 HIT:          0 MISS:          0
cpu3_L2C WRITE        ACCESS:          0 HIT:          0 MISS:          0
cpu3_L2C TRANSLATION  ACCESS:          0 HIT:          0 MISS:          0
cpu3_L2C PREFETCH REQUESTED:   25945068 ISSUED:   25051617 USEFUL:    1109798 USELESS:      32104
cpu3_L2C AVERAGE MISS LATENCY: 112 cycles
cpu3_L2C TOTAL        ACCESS:    6983085 HIT:    4398903 MISS:    2584182
cpu3_L2C LOAD         ACCESS:    1380994 HIT:     868643 MISS:     512351
cpu3_L2C RFO          ACCESS:     724829 HIT:     412735 MISS:     312094
cpu3_L2C PREFETCH     ACCESS:    3915383 HIT:    2160107 MISS:    1755276
cpu3_L2C WRITE        ACCESS:     955889 HIT:     955447 MISS:        442
cpu3_L2C TRANSLATION  ACCESS:       5990 HIT:       1971 MISS:       4019
cpu3_L2C PREFETCH REQUESTED:   25945068 ISSUED:   25051617 USEFUL:    1109798 USELESS:      32104
cpu3_L2C AVERAGE MISS LATENCY: 112 cycles
cpu3_STLB TOTAL        ACCESS:          0 HIT:          0 MISS:          0
cpu3_STLB LOAD         ACCESS:          0 HIT:          0 MISS:          0
cpu3_STLB RFO          ACCESS:          0 HIT:          0 MISS:          0
cpu3_STLB PREFETCH     ACCESS:          0 HIT:          0 MISS:          0
cpu3_STLB WRITE        ACCESS:          0 HIT:          0 MISS:          0
cpu3_STLB TRANSLATION  ACCESS:          0 HIT:          0 MISS:          0
cpu3_STLB PREFETCH REQUESTED:          0 ISSUED:          0 USEFUL:          0 USELESS:          0
cpu3_STLB AVERAGE MISS LATENCY: 419.3 cycles
cpu3_STLB TOTAL        ACCESS:          0 HIT:          0 MISS:          0
cpu3_STLB LOAD         ACCESS:          0 HIT:          0 MISS:          0
cpu3_STLB RFO          ACCESS:          0 HIT:          0 MISS:          0
cpu3_STLB PREFETCH     ACCESS:          0 HIT:          0 MISS:          0
cpu3_STLB WRITE        ACCESS:          0 HIT:          0 MISS:          0
cpu3_STLB TRANSLATION  ACCESS:          0 HIT:          0 MISS:          0
cpu3_STLB PREFETCH REQUESTED:          0 ISSUED:          0 USEFUL:          0 USELESS:          0
cpu3_STLB AVERAGE MISS LATENCY: 419.3 cycles
cpu3_STLB TOTAL        ACCESS:          0 HIT:          0 MISS:          0
cpu3_STLB LOAD         ACCESS:          0 HIT:          0 MISS:          0
cpu3_STLB RFO          ACCESS:          0 HIT:          0 MISS:          0
cpu3_STLB PREFETCH     ACCESS:          0 HIT:          0 MISS:          0
cpu3_STLB WRITE        ACCESS:          0 HIT:          0 MISS:          0
cpu3_STLB TRANSLATION  ACCESS:          0 HIT:          0 MISS:          0
cpu3_STLB PREFETCH REQUESTED:          0 ISSUED:          0 USEFUL:          0 USELESS:          0
cpu3_STLB AVERAGE MISS LATENCY: 419.3 cycles
cpu3_STLB TOTAL        ACCESS:      68356 HIT:      61214 MISS:       7142
cpu3_STLB LOAD         ACCESS:      68356 HIT:      61214 MISS:       7142
cpu3_STLB RFO          ACCESS:          0 HIT:          0 MISS:          0
cpu3_STLB PREFETCH     ACCESS:          0 HIT:          0 MISS:          0
cpu3_STLB WRITE        ACCESS:          0 HIT:          0 MISS:          0
cpu3_STLB TRANSLATION  ACCESS:          0 HIT:          0 MISS:          0
cpu3_STLB PREFETCH REQUESTED:          0 ISSUED:          0 USEFUL:          0 USELESS:          0
cpu3_STLB AVERAGE MISS LATENCY: 419.3 cycles

DRAM Statistics

Channel 0 RQ ROW_BUFFER_HIT:    1909789
  ROW_BUFFER_MISS:    4528822
 AVG DBUS CONGESTED CYCLE: 3.943
WQ ROW_BUFFER_HIT: Channel 0 
  ROW_BUFFER_MISS:      73559
  FULL:    1447175

Channel 1 RQ ROW_BUFFER_HIT:    1919531
  ROW_BUFFER_MISS:    4503855
 AVG DBUS CONGESTED CYCLE: 3.943
WQ ROW_BUFFER_HIT: Channel 1 
  ROW_BUFFER_MISS:      74646
  FULL:    1444727
