Original cmd-> /home/grads/r/rdas40/ECEN676/ChampSim/bin/multi_core/spp_2ch --warmup_instructions=50000000 --simulation_instructions=150000000  /home/grads/r/rdas40/dpc3_traces/619.lbm_s-4268B.champsimtrace.xz /home/grads/r/rdas40/dpc3_traces/607.cactuBSSN_s-2421B.champsimtrace.xz /home/grads/r/rdas40/dpc3_traces/627.cam4_s-573B.champsimtrace.xz /home/grads/r/rdas40/dpc3_traces/621.wrf_s-575B.champsimtrace.xz
WARNING: physical memory size is smaller than virtual memory size.
WARNING: option --warmup_instructions is deprecated. Use --warmup-instructions instead.
WARNING: option --simulation_instructions is deprecated. Use --simulation-instructions instead.

*** ChampSim Multicore Out-of-Order Simulator ***
Warmup Instructions: 50000000
Simulation Instructions: 150000000
Number of CPUs: 4
Page size: 4096

Initialize SIGNATURE TABLE
ST_SET: 1
ST_WAY: 256
ST_TAG_BIT: 16
ST_TAG_MASK: ffff

Initialize PATTERN TABLE
PT_SET: 512
PT_WAY: 4
SIG_DELTA_BIT: 7
C_SIG_BIT: 4
C_DELTA_BIT: 4

Initialize PREFETCH FILTER
FILTER_SET: 1024
Initialize SIGNATURE TABLE
ST_SET: 1
ST_WAY: 256
ST_TAG_BIT: 16
ST_TAG_MASK: ffff

Initialize PATTERN TABLE
PT_SET: 512
PT_WAY: 4
SIG_DELTA_BIT: 7
C_SIG_BIT: 4
C_DELTA_BIT: 4

Initialize PREFETCH FILTER
FILTER_SET: 1024
Initialize SIGNATURE TABLE
ST_SET: 1
ST_WAY: 256
ST_TAG_BIT: 16
ST_TAG_MASK: ffff

Initialize PATTERN TABLE
PT_SET: 512
PT_WAY: 4
SIG_DELTA_BIT: 7
C_SIG_BIT: 4
C_DELTA_BIT: 4

Initialize PREFETCH FILTER
FILTER_SET: 1024
Initialize SIGNATURE TABLE
ST_SET: 1
ST_WAY: 256
ST_TAG_BIT: 16
ST_TAG_MASK: ffff

Initialize PATTERN TABLE
PT_SET: 512
PT_WAY: 4
SIG_DELTA_BIT: 7
C_SIG_BIT: 4
C_DELTA_BIT: 4

Initialize PREFETCH FILTER
FILTER_SET: 1024
Off-chip DRAM Size: 8 GiB Channels: 2 Width: 64-bit Data Race: 3200 MT/s
Heartbeat CPU 3 instructions: 10000001 cycles: 2502820 heartbeat IPC: 3.995 cumulative IPC: 3.995 (Simulation time: 00 hr 03 min 02 sec)
Heartbeat CPU 2 instructions: 10000003 cycles: 2724938 heartbeat IPC: 3.67 cumulative IPC: 3.67 (Simulation time: 00 hr 03 min 18 sec)
Heartbeat CPU 0 instructions: 10000002 cycles: 3390074 heartbeat IPC: 2.95 cumulative IPC: 2.95 (Simulation time: 00 hr 04 min 07 sec)
Heartbeat CPU 1 instructions: 10000001 cycles: 3682513 heartbeat IPC: 2.716 cumulative IPC: 2.716 (Simulation time: 00 hr 04 min 28 sec)
Heartbeat CPU 3 instructions: 20000002 cycles: 5005477 heartbeat IPC: 3.996 cumulative IPC: 3.996 (Simulation time: 00 hr 06 min 06 sec)
Heartbeat CPU 2 instructions: 20000003 cycles: 5241593 heartbeat IPC: 3.974 cumulative IPC: 3.816 (Simulation time: 00 hr 06 min 23 sec)
Heartbeat CPU 0 instructions: 20000001 cycles: 6774006 heartbeat IPC: 2.955 cumulative IPC: 2.952 (Simulation time: 00 hr 08 min 16 sec)
Heartbeat CPU 1 instructions: 20000004 cycles: 7364221 heartbeat IPC: 2.716 cumulative IPC: 2.716 (Simulation time: 00 hr 09 min 00 sec)
Heartbeat CPU 3 instructions: 30000001 cycles: 7507768 heartbeat IPC: 3.996 cumulative IPC: 3.996 (Simulation time: 00 hr 09 min 10 sec)
Heartbeat CPU 2 instructions: 30000000 cycles: 7757831 heartbeat IPC: 3.974 cumulative IPC: 3.867 (Simulation time: 00 hr 09 min 29 sec)
Heartbeat CPU 3 instructions: 40000000 cycles: 10010456 heartbeat IPC: 3.996 cumulative IPC: 3.996 (Simulation time: 00 hr 12 min 14 sec)
Heartbeat CPU 0 instructions: 30000002 cycles: 10141071 heartbeat IPC: 2.97 cumulative IPC: 2.958 (Simulation time: 00 hr 12 min 24 sec)
Heartbeat CPU 2 instructions: 40000002 cycles: 10280578 heartbeat IPC: 3.964 cumulative IPC: 3.891 (Simulation time: 00 hr 12 min 34 sec)
Heartbeat CPU 1 instructions: 30000002 cycles: 11044419 heartbeat IPC: 2.717 cumulative IPC: 2.716 (Simulation time: 00 hr 13 min 31 sec)
Heartbeat CPU 3 instructions: 50000002 cycles: 12513096 heartbeat IPC: 3.996 cumulative IPC: 3.996 (Simulation time: 00 hr 15 min 21 sec)
Warmup finished CPU 3 instructions: 50000002 cycles: 12513097 cumulative IPC: 3.996 (Simulation time: 00 hr 15 min 21 sec)
Heartbeat CPU 2 instructions: 50000001 cycles: 12834505 heartbeat IPC: 3.916 cumulative IPC: 3.896 (Simulation time: 00 hr 15 min 46 sec)
Warmup finished CPU 2 instructions: 50000001 cycles: 12834506 cumulative IPC: 3.896 (Simulation time: 00 hr 15 min 46 sec)
Heartbeat CPU 0 instructions: 40000003 cycles: 13543459 heartbeat IPC: 2.939 cumulative IPC: 2.953 (Simulation time: 00 hr 16 min 39 sec)
Heartbeat CPU 1 instructions: 40000003 cycles: 14725648 heartbeat IPC: 2.716 cumulative IPC: 2.716 (Simulation time: 00 hr 18 min 08 sec)
Heartbeat CPU 3 instructions: 60000000 cycles: 15015670 heartbeat IPC: 3.996 cumulative IPC: 3.996 (Simulation time: 00 hr 18 min 30 sec)
Heartbeat CPU 2 instructions: 60000000 cycles: 15394419 heartbeat IPC: 3.906 cumulative IPC: 3.898 (Simulation time: 00 hr 18 min 58 sec)
Heartbeat CPU 0 instructions: 50000002 cycles: 16950488 heartbeat IPC: 2.935 cumulative IPC: 2.95 (Simulation time: 00 hr 20 min 55 sec)
Warmup finished CPU 0 instructions: 50000002 cycles: 16950489 cumulative IPC: 2.95 (Simulation time: 00 hr 20 min 55 sec)
Heartbeat CPU 3 instructions: 70000003 cycles: 17520631 heartbeat IPC: 3.992 cumulative IPC: 3.995 (Simulation time: 00 hr 21 min 37 sec)
Heartbeat CPU 2 instructions: 70000001 cycles: 17935280 heartbeat IPC: 3.936 cumulative IPC: 3.903 (Simulation time: 00 hr 22 min 08 sec)
Heartbeat CPU 1 instructions: 50000001 cycles: 18405874 heartbeat IPC: 2.717 cumulative IPC: 2.717 (Simulation time: 00 hr 22 min 42 sec)
Warmup finished CPU 1 instructions: 50000001 cycles: 18405875 cumulative IPC: 2.717 (Simulation time: 00 hr 22 min 42 sec)
Warmup complete CPU 0 instructions: 54248492 cycles: 18405875 cumulative IPC: 2.947 (Simulation time: 00 hr 22 min 42 sec)
Warmup complete CPU 1 instructions: 50000001 cycles: 18405875 cumulative IPC: 2.717 (Simulation time: 00 hr 22 min 42 sec)
Warmup complete CPU 2 instructions: 71872853 cycles: 18405875 cumulative IPC: 3.905 (Simulation time: 00 hr 22 min 42 sec)
Warmup complete CPU 3 instructions: 73540975 cycles: 18405875 cumulative IPC: 3.996 (Simulation time: 00 hr 22 min 42 sec)
Heartbeat CPU 3 instructions: 80000001 cycles: 21585328 heartbeat IPC: 2.46 cumulative IPC: 2.031 (Simulation time: 00 hr 25 min 06 sec)
Heartbeat CPU 2 instructions: 80000003 cycles: 24595926 heartbeat IPC: 1.501 cumulative IPC: 1.313 (Simulation time: 00 hr 27 min 31 sec)
Heartbeat CPU 3 instructions: 90000002 cycles: 26368483 heartbeat IPC: 2.091 cumulative IPC: 2.067 (Simulation time: 00 hr 28 min 59 sec)
Heartbeat CPU 2 instructions: 90000003 cycles: 29017181 heartbeat IPC: 2.262 cumulative IPC: 1.708 (Simulation time: 00 hr 31 min 15 sec)
Heartbeat CPU 1 instructions: 60000004 cycles: 30061405 heartbeat IPC: 0.858 cumulative IPC: 0.858 (Simulation time: 00 hr 32 min 08 sec)
Heartbeat CPU 3 instructions: 100000000 cycles: 31126630 heartbeat IPC: 2.102 cumulative IPC: 2.08 (Simulation time: 00 hr 32 min 56 sec)
Heartbeat CPU 3 instructions: 110000001 cycles: 35869483 heartbeat IPC: 2.108 cumulative IPC: 2.088 (Simulation time: 00 hr 36 min 29 sec)
Heartbeat CPU 3 instructions: 120000000 cycles: 40564021 heartbeat IPC: 2.13 cumulative IPC: 2.097 (Simulation time: 00 hr 40 min 04 sec)
Heartbeat CPU 1 instructions: 70000000 cycles: 41184715 heartbeat IPC: 0.899 cumulative IPC: 0.878 (Simulation time: 00 hr 40 min 33 sec)
Heartbeat CPU 0 instructions: 60000004 cycles: 41803638 heartbeat IPC: 0.4024 cumulative IPC: 0.2458 (Simulation time: 00 hr 41 min 04 sec)
Heartbeat CPU 3 instructions: 130000002 cycles: 45280354 heartbeat IPC: 2.12 cumulative IPC: 2.101 (Simulation time: 00 hr 43 min 44 sec)
Heartbeat CPU 2 instructions: 100000000 cycles: 46042180 heartbeat IPC: 0.5874 cumulative IPC: 1.018 (Simulation time: 00 hr 44 min 17 sec)
Heartbeat CPU 3 instructions: 140000000 cycles: 50193194 heartbeat IPC: 2.035 cumulative IPC: 2.091 (Simulation time: 00 hr 47 min 11 sec)
Heartbeat CPU 1 instructions: 80000000 cycles: 52603151 heartbeat IPC: 0.8758 cumulative IPC: 0.8773 (Simulation time: 00 hr 48 min 52 sec)
Heartbeat CPU 3 instructions: 150000004 cycles: 54896590 heartbeat IPC: 2.126 cumulative IPC: 2.095 (Simulation time: 00 hr 50 min 26 sec)
Heartbeat CPU 3 instructions: 160000003 cycles: 59624540 heartbeat IPC: 2.115 cumulative IPC: 2.098 (Simulation time: 00 hr 53 min 44 sec)
Heartbeat CPU 3 instructions: 170000003 cycles: 64339748 heartbeat IPC: 2.121 cumulative IPC: 2.1 (Simulation time: 00 hr 57 min 02 sec)
Heartbeat CPU 1 instructions: 90000001 cycles: 65345955 heartbeat IPC: 0.7848 cumulative IPC: 0.8522 (Simulation time: 00 hr 57 min 45 sec)
Heartbeat CPU 3 instructions: 180000004 cycles: 69069770 heartbeat IPC: 2.114 cumulative IPC: 2.101 (Simulation time: 01 hr 00 min 20 sec)
Heartbeat CPU 3 instructions: 190000002 cycles: 73816844 heartbeat IPC: 2.107 cumulative IPC: 2.102 (Simulation time: 01 hr 03 min 39 sec)
Heartbeat CPU 1 instructions: 100000000 cycles: 78204642 heartbeat IPC: 0.7777 cumulative IPC: 0.8361 (Simulation time: 01 hr 06 min 43 sec)
Heartbeat CPU 3 instructions: 200000000 cycles: 78708850 heartbeat IPC: 2.044 cumulative IPC: 2.097 (Simulation time: 01 hr 07 min 04 sec)
Heartbeat CPU 3 instructions: 210000000 cycles: 83381210 heartbeat IPC: 2.14 cumulative IPC: 2.1 (Simulation time: 01 hr 10 min 20 sec)
Heartbeat CPU 2 instructions: 110000001 cycles: 86784341 heartbeat IPC: 0.2454 cumulative IPC: 0.5576 (Simulation time: 01 hr 13 min 05 sec)
Heartbeat CPU 3 instructions: 220000000 cycles: 88006338 heartbeat IPC: 2.162 cumulative IPC: 2.104 (Simulation time: 01 hr 14 min 04 sec)
Simulation finished CPU 3 instructions: 150000000 cycles: 71233647 cumulative IPC: 2.106 (Simulation time: 01 hr 15 min 24 sec)
Heartbeat CPU 1 instructions: 110000003 cycles: 90225422 heartbeat IPC: 0.8319 cumulative IPC: 0.8354 (Simulation time: 01 hr 15 min 55 sec)
Heartbeat CPU 2 instructions: 120000003 cycles: 91619019 heartbeat IPC: 2.068 cumulative IPC: 0.6574 (Simulation time: 01 hr 17 min 09 sec)
Heartbeat CPU 3 instructions: 230000001 cycles: 92673006 heartbeat IPC: 2.143 cumulative IPC: 2.107 (Simulation time: 01 hr 18 min 06 sec)
Heartbeat CPU 2 instructions: 130000001 cycles: 95333590 heartbeat IPC: 2.692 cumulative IPC: 0.7556 (Simulation time: 01 hr 20 min 25 sec)
Heartbeat CPU 3 instructions: 240000000 cycles: 97335155 heartbeat IPC: 2.145 cumulative IPC: 2.109 (Simulation time: 01 hr 22 min 10 sec)
Heartbeat CPU 2 instructions: 140000000 cycles: 99079468 heartbeat IPC: 2.67 cumulative IPC: 0.8445 (Simulation time: 01 hr 23 min 42 sec)
Heartbeat CPU 3 instructions: 250000002 cycles: 102001745 heartbeat IPC: 2.143 cumulative IPC: 2.111 (Simulation time: 01 hr 26 min 08 sec)
Heartbeat CPU 1 instructions: 120000004 cycles: 102130209 heartbeat IPC: 0.84 cumulative IPC: 0.8361 (Simulation time: 01 hr 26 min 15 sec)
Heartbeat CPU 2 instructions: 150000001 cycles: 104473783 heartbeat IPC: 1.854 cumulative IPC: 0.9077 (Simulation time: 01 hr 28 min 10 sec)
Heartbeat CPU 0 instructions: 70000000 cycles: 104722359 heartbeat IPC: 0.1589 cumulative IPC: 0.1825 (Simulation time: 01 hr 28 min 22 sec)
Heartbeat CPU 3 instructions: 260000000 cycles: 106767819 heartbeat IPC: 2.098 cumulative IPC: 2.11 (Simulation time: 01 hr 30 min 02 sec)
Heartbeat CPU 2 instructions: 160000000 cycles: 110039588 heartbeat IPC: 1.797 cumulative IPC: 0.9617 (Simulation time: 01 hr 32 min 47 sec)
Heartbeat CPU 3 instructions: 270000000 cycles: 111453607 heartbeat IPC: 2.134 cumulative IPC: 2.111 (Simulation time: 01 hr 33 min 54 sec)
Heartbeat CPU 1 instructions: 130000001 cycles: 114236462 heartbeat IPC: 0.826 cumulative IPC: 0.8348 (Simulation time: 01 hr 36 min 13 sec)
Heartbeat CPU 2 instructions: 170000000 cycles: 116148387 heartbeat IPC: 1.637 cumulative IPC: 1.004 (Simulation time: 01 hr 37 min 45 sec)
Heartbeat CPU 3 instructions: 280000001 cycles: 116149798 heartbeat IPC: 2.129 cumulative IPC: 2.112 (Simulation time: 01 hr 37 min 45 sec)
Heartbeat CPU 3 instructions: 290000004 cycles: 120844296 heartbeat IPC: 2.13 cumulative IPC: 2.113 (Simulation time: 01 hr 41 min 36 sec)
Heartbeat CPU 2 instructions: 180000004 cycles: 122210988 heartbeat IPC: 1.649 cumulative IPC: 1.042 (Simulation time: 01 hr 42 min 45 sec)
Heartbeat CPU 3 instructions: 300000000 cycles: 125513141 heartbeat IPC: 2.142 cumulative IPC: 2.114 (Simulation time: 01 hr 45 min 29 sec)
Heartbeat CPU 1 instructions: 140000002 cycles: 125740007 heartbeat IPC: 0.8693 cumulative IPC: 0.8385 (Simulation time: 01 hr 45 min 41 sec)
Heartbeat CPU 2 instructions: 190000002 cycles: 127089687 heartbeat IPC: 2.05 cumulative IPC: 1.087 (Simulation time: 01 hr 46 min 50 sec)
Heartbeat CPU 3 instructions: 310000001 cycles: 130186879 heartbeat IPC: 2.14 cumulative IPC: 2.115 (Simulation time: 01 hr 49 min 24 sec)
Heartbeat CPU 3 instructions: 320000001 cycles: 134868687 heartbeat IPC: 2.136 cumulative IPC: 2.116 (Simulation time: 01 hr 52 min 50 sec)
Heartbeat CPU 1 instructions: 150000004 cycles: 137227029 heartbeat IPC: 0.8705 cumulative IPC: 0.8416 (Simulation time: 01 hr 54 min 35 sec)
Heartbeat CPU 3 instructions: 330000001 cycles: 139538705 heartbeat IPC: 2.141 cumulative IPC: 2.117 (Simulation time: 01 hr 56 min 26 sec)
Heartbeat CPU 2 instructions: 200000004 cycles: 140492301 heartbeat IPC: 0.7461 cumulative IPC: 1.049 (Simulation time: 01 hr 57 min 08 sec)
Heartbeat CPU 0 instructions: 80000000 cycles: 142757359 heartbeat IPC: 0.2629 cumulative IPC: 0.2071 (Simulation time: 01 hr 58 min 46 sec)
Heartbeat CPU 3 instructions: 340000000 cycles: 147849759 heartbeat IPC: 1.203 cumulative IPC: 2.058 (Simulation time: 02 hr 02 min 21 sec)
Heartbeat CPU 1 instructions: 160000003 cycles: 150043639 heartbeat IPC: 0.7802 cumulative IPC: 0.8356 (Simulation time: 02 hr 03 min 51 sec)
Heartbeat CPU 3 instructions: 350000002 cycles: 155115148 heartbeat IPC: 1.376 cumulative IPC: 2.022 (Simulation time: 02 hr 07 min 16 sec)
Heartbeat CPU 3 instructions: 360000002 cycles: 161667814 heartbeat IPC: 1.526 cumulative IPC: 2 (Simulation time: 02 hr 11 min 45 sec)
Heartbeat CPU 1 instructions: 170000000 cycles: 167286415 heartbeat IPC: 0.58 cumulative IPC: 0.806 (Simulation time: 02 hr 15 min 29 sec)
Heartbeat CPU 3 instructions: 370000000 cycles: 168664798 heartbeat IPC: 1.429 cumulative IPC: 1.973 (Simulation time: 02 hr 16 min 24 sec)
Heartbeat CPU 3 instructions: 380000002 cycles: 175634191 heartbeat IPC: 1.435 cumulative IPC: 1.949 (Simulation time: 02 hr 21 min 01 sec)
Heartbeat CPU 2 instructions: 210000003 cycles: 186020617 heartbeat IPC: 0.2196 cumulative IPC: 0.8241 (Simulation time: 02 hr 27 min 35 sec)
Heartbeat CPU 1 instructions: 180000003 cycles: 188879118 heartbeat IPC: 0.4631 cumulative IPC: 0.7626 (Simulation time: 02 hr 29 min 38 sec)
Heartbeat CPU 2 instructions: 220000001 cycles: 192957740 heartbeat IPC: 1.442 cumulative IPC: 0.8486 (Simulation time: 02 hr 32 min 30 sec)
Simulation finished CPU 2 instructions: 150000003 cycles: 175245011 cumulative IPC: 0.8559 (Simulation time: 02 hr 33 min 02 sec)
Heartbeat CPU 3 instructions: 390000001 cycles: 196634958 heartbeat IPC: 0.4762 cumulative IPC: 1.776 (Simulation time: 02 hr 35 min 27 sec)
Heartbeat CPU 2 instructions: 230000001 cycles: 196799694 heartbeat IPC: 2.603 cumulative IPC: 0.8864 (Simulation time: 02 hr 35 min 35 sec)
Heartbeat CPU 2 instructions: 240000000 cycles: 200640598 heartbeat IPC: 2.604 cumulative IPC: 0.9226 (Simulation time: 02 hr 39 min 00 sec)
Heartbeat CPU 3 instructions: 400000003 cycles: 202287563 heartbeat IPC: 1.769 cumulative IPC: 1.775 (Simulation time: 02 hr 40 min 26 sec)
Heartbeat CPU 1 instructions: 190000002 cycles: 204387586 heartbeat IPC: 0.6448 cumulative IPC: 0.7528 (Simulation time: 02 hr 42 min 15 sec)
Heartbeat CPU 2 instructions: 250000004 cycles: 205577467 heartbeat IPC: 2.026 cumulative IPC: 0.9517 (Simulation time: 02 hr 43 min 14 sec)
Heartbeat CPU 3 instructions: 410000000 cycles: 208069384 heartbeat IPC: 1.73 cumulative IPC: 1.774 (Simulation time: 02 hr 45 min 20 sec)
Heartbeat CPU 0 instructions: 90000003 cycles: 210529341 heartbeat IPC: 0.1476 cumulative IPC: 0.1861 (Simulation time: 02 hr 47 min 22 sec)
Heartbeat CPU 2 instructions: 260000001 cycles: 211297897 heartbeat IPC: 1.748 cumulative IPC: 0.9753 (Simulation time: 02 hr 48 min 02 sec)
Heartbeat CPU 3 instructions: 420000001 cycles: 214049754 heartbeat IPC: 1.672 cumulative IPC: 1.771 (Simulation time: 02 hr 50 min 20 sec)
Heartbeat CPU 1 instructions: 200000002 cycles: 217164130 heartbeat IPC: 0.7827 cumulative IPC: 0.7547 (Simulation time: 02 hr 52 min 57 sec)
Simulation finished CPU 1 instructions: 150000001 cycles: 198758256 cumulative IPC: 0.7547 (Simulation time: 02 hr 52 min 57 sec)
Heartbeat CPU 2 instructions: 270000000 cycles: 217172344 heartbeat IPC: 1.702 cumulative IPC: 0.9968 (Simulation time: 02 hr 52 min 57 sec)
Heartbeat CPU 3 instructions: 430000004 cycles: 220139559 heartbeat IPC: 1.642 cumulative IPC: 1.767 (Simulation time: 02 hr 55 min 29 sec)
Heartbeat CPU 2 instructions: 280000001 cycles: 222769297 heartbeat IPC: 1.787 cumulative IPC: 1.018 (Simulation time: 02 hr 57 min 42 sec)
Heartbeat CPU 3 instructions: 440000003 cycles: 225907984 heartbeat IPC: 1.734 cumulative IPC: 1.766 (Simulation time: 03 hr 00 min 19 sec)
Heartbeat CPU 2 instructions: 290000003 cycles: 228737564 heartbeat IPC: 1.676 cumulative IPC: 1.037 (Simulation time: 03 hr 02 min 42 sec)
Heartbeat CPU 1 instructions: 210000002 cycles: 229661952 heartbeat IPC: 0.8001 cumulative IPC: 0.7574 (Simulation time: 03 hr 03 min 30 sec)
Heartbeat CPU 3 instructions: 450000000 cycles: 232087385 heartbeat IPC: 1.618 cumulative IPC: 1.762 (Simulation time: 03 hr 05 min 34 sec)
Heartbeat CPU 2 instructions: 300000001 cycles: 237666538 heartbeat IPC: 1.12 cumulative IPC: 1.04 (Simulation time: 03 hr 09 min 50 sec)
Heartbeat CPU 3 instructions: 460000000 cycles: 238201219 heartbeat IPC: 1.636 cumulative IPC: 1.758 (Simulation time: 03 hr 10 min 15 sec)
Heartbeat CPU 1 instructions: 220000000 cycles: 241909668 heartbeat IPC: 0.8165 cumulative IPC: 0.7606 (Simulation time: 03 hr 13 min 10 sec)
Heartbeat CPU 3 instructions: 470000003 cycles: 244064538 heartbeat IPC: 1.706 cumulative IPC: 1.757 (Simulation time: 03 hr 14 min 54 sec)
Heartbeat CPU 3 instructions: 480000000 cycles: 251041305 heartbeat IPC: 1.433 cumulative IPC: 1.747 (Simulation time: 03 hr 19 min 57 sec)
Heartbeat CPU 0 instructions: 100000001 cycles: 254871664 heartbeat IPC: 0.2255 cumulative IPC: 0.1935 (Simulation time: 03 hr 22 min 30 sec)
Heartbeat CPU 1 instructions: 230000002 cycles: 256858267 heartbeat IPC: 0.669 cumulative IPC: 0.7549 (Simulation time: 03 hr 23 min 40 sec)
Heartbeat CPU 3 instructions: 490000002 cycles: 268219805 heartbeat IPC: 0.5821 cumulative IPC: 1.667 (Simulation time: 03 hr 30 min 40 sec)
Heartbeat CPU 1 instructions: 240000003 cycles: 275226407 heartbeat IPC: 0.5444 cumulative IPC: 0.7398 (Simulation time: 03 hr 35 min 00 sec)
Heartbeat CPU 3 instructions: 500000000 cycles: 276952203 heartbeat IPC: 1.145 cumulative IPC: 1.649 (Simulation time: 03 hr 36 min 07 sec)
Heartbeat CPU 3 instructions: 510000002 cycles: 284971846 heartbeat IPC: 1.247 cumulative IPC: 1.637 (Simulation time: 03 hr 41 min 11 sec)
Heartbeat CPU 2 instructions: 310000000 cycles: 288635474 heartbeat IPC: 0.1962 cumulative IPC: 0.8812 (Simulation time: 03 hr 43 min 38 sec)
Heartbeat CPU 3 instructions: 520000000 cycles: 292294358 heartbeat IPC: 1.366 cumulative IPC: 1.63 (Simulation time: 03 hr 46 min 24 sec)
Heartbeat CPU 2 instructions: 320000004 cycles: 295414023 heartbeat IPC: 1.475 cumulative IPC: 0.8957 (Simulation time: 03 hr 48 min 50 sec)
Heartbeat CPU 1 instructions: 250000004 cycles: 296086133 heartbeat IPC: 0.4794 cumulative IPC: 0.7203 (Simulation time: 03 hr 49 min 24 sec)
Heartbeat CPU 3 instructions: 530000003 cycles: 298732988 heartbeat IPC: 1.553 cumulative IPC: 1.628 (Simulation time: 03 hr 51 min 44 sec)
Heartbeat CPU 2 instructions: 330000002 cycles: 299182966 heartbeat IPC: 2.653 cumulative IPC: 0.9193 (Simulation time: 03 hr 52 min 08 sec)
Heartbeat CPU 2 instructions: 340000004 cycles: 302923582 heartbeat IPC: 2.673 cumulative IPC: 0.9424 (Simulation time: 03 hr 55 min 22 sec)
Heartbeat CPU 3 instructions: 540000000 cycles: 305269491 heartbeat IPC: 1.53 cumulative IPC: 1.626 (Simulation time: 03 hr 57 min 19 sec)
Heartbeat CPU 2 instructions: 350000004 cycles: 307377750 heartbeat IPC: 2.245 cumulative IPC: 0.9625 (Simulation time: 03 hr 59 min 04 sec)
Heartbeat CPU 1 instructions: 260000001 cycles: 309331582 heartbeat IPC: 0.755 cumulative IPC: 0.7218 (Simulation time: 04 hr 00 min 39 sec)
Heartbeat CPU 3 instructions: 550000002 cycles: 311753841 heartbeat IPC: 1.542 cumulative IPC: 1.624 (Simulation time: 04 hr 02 min 38 sec)
Heartbeat CPU 2 instructions: 360000000 cycles: 312487188 heartbeat IPC: 1.957 cumulative IPC: 0.9798 (Simulation time: 04 hr 03 min 14 sec)
Heartbeat CPU 3 instructions: 560000002 cycles: 318010582 heartbeat IPC: 1.598 cumulative IPC: 1.624 (Simulation time: 04 hr 07 min 42 sec)
Heartbeat CPU 2 instructions: 370000001 cycles: 318305200 heartbeat IPC: 1.719 cumulative IPC: 0.9941 (Simulation time: 04 hr 07 min 55 sec)
Heartbeat CPU 0 instructions: 110000002 cycles: 319059791 heartbeat IPC: 0.1558 cumulative IPC: 0.1854 (Simulation time: 04 hr 08 min 33 sec)
Heartbeat CPU 1 instructions: 270000004 cycles: 322303005 heartbeat IPC: 0.7709 cumulative IPC: 0.7239 (Simulation time: 04 hr 11 min 05 sec)
Heartbeat CPU 2 instructions: 380000002 cycles: 324169128 heartbeat IPC: 1.705 cumulative IPC: 1.008 (Simulation time: 04 hr 12 min 37 sec)
Heartbeat CPU 3 instructions: 570000004 cycles: 324448321 heartbeat IPC: 1.553 cumulative IPC: 1.622 (Simulation time: 04 hr 12 min 50 sec)
Heartbeat CPU 2 instructions: 390000000 cycles: 330644649 heartbeat IPC: 1.544 cumulative IPC: 1.019 (Simulation time: 04 hr 17 min 43 sec)
Heartbeat CPU 3 instructions: 580000000 cycles: 330779680 heartbeat IPC: 1.579 cumulative IPC: 1.621 (Simulation time: 04 hr 17 min 49 sec)
Heartbeat CPU 2 instructions: 400000001 cycles: 335385609 heartbeat IPC: 2.109 cumulative IPC: 1.035 (Simulation time: 04 hr 21 min 37 sec)
Heartbeat CPU 1 instructions: 280000000 cycles: 335662708 heartbeat IPC: 0.7485 cumulative IPC: 0.725 (Simulation time: 04 hr 21 min 50 sec)
Heartbeat CPU 3 instructions: 590000001 cycles: 337082485 heartbeat IPC: 1.587 cumulative IPC: 1.621 (Simulation time: 04 hr 22 min 55 sec)
Heartbeat CPU 3 instructions: 600000000 cycles: 343316649 heartbeat IPC: 1.604 cumulative IPC: 1.62 (Simulation time: 04 hr 27 min 29 sec)
Heartbeat CPU 1 instructions: 290000001 cycles: 349167085 heartbeat IPC: 0.7405 cumulative IPC: 0.7256 (Simulation time: 04 hr 31 min 59 sec)
Heartbeat CPU 3 instructions: 610000000 cycles: 349702126 heartbeat IPC: 1.566 cumulative IPC: 1.619 (Simulation time: 04 hr 32 min 22 sec)
Heartbeat CPU 2 instructions: 410000000 cycles: 358379542 heartbeat IPC: 0.4349 cumulative IPC: 0.9946 (Simulation time: 04 hr 38 min 01 sec)
Heartbeat CPU 1 instructions: 300000001 cycles: 365726278 heartbeat IPC: 0.6039 cumulative IPC: 0.7198 (Simulation time: 04 hr 42 min 20 sec)
Heartbeat CPU 0 instructions: 120000003 cycles: 379777205 heartbeat IPC: 0.1647 cumulative IPC: 0.1819 (Simulation time: 04 hr 50 min 42 sec)
Heartbeat CPU 1 instructions: 310000001 cycles: 384990319 heartbeat IPC: 0.5191 cumulative IPC: 0.7092 (Simulation time: 04 hr 53 min 53 sec)
Heartbeat CPU 2 instructions: 420000002 cycles: 399199914 heartbeat IPC: 0.245 cumulative IPC: 0.9142 (Simulation time: 05 hr 02 min 59 sec)
Heartbeat CPU 1 instructions: 320000002 cycles: 400576283 heartbeat IPC: 0.6416 cumulative IPC: 0.7065 (Simulation time: 05 hr 03 min 58 sec)
Heartbeat CPU 2 instructions: 430000000 cycles: 403995939 heartbeat IPC: 2.085 cumulative IPC: 0.9288 (Simulation time: 05 hr 06 min 41 sec)
Heartbeat CPU 2 instructions: 440000003 cycles: 407865835 heartbeat IPC: 2.584 cumulative IPC: 0.9452 (Simulation time: 05 hr 09 min 48 sec)
Heartbeat CPU 2 instructions: 450000002 cycles: 411870781 heartbeat IPC: 2.497 cumulative IPC: 0.961 (Simulation time: 05 hr 12 min 57 sec)
Heartbeat CPU 1 instructions: 330000001 cycles: 412036260 heartbeat IPC: 0.8726 cumulative IPC: 0.7113 (Simulation time: 05 hr 13 min 05 sec)
Heartbeat CPU 2 instructions: 460000001 cycles: 416986909 heartbeat IPC: 1.955 cumulative IPC: 0.9738 (Simulation time: 05 hr 16 min 43 sec)
Heartbeat CPU 2 instructions: 470000000 cycles: 422457555 heartbeat IPC: 1.828 cumulative IPC: 0.9853 (Simulation time: 05 hr 20 min 47 sec)
Heartbeat CPU 1 instructions: 340000003 cycles: 424532177 heartbeat IPC: 0.8003 cumulative IPC: 0.7141 (Simulation time: 05 hr 22 min 20 sec)
Heartbeat CPU 0 instructions: 130000000 cycles: 427437114 heartbeat IPC: 0.2098 cumulative IPC: 0.1852 (Simulation time: 05 hr 24 min 30 sec)
Heartbeat CPU 2 instructions: 480000000 cycles: 428107194 heartbeat IPC: 1.77 cumulative IPC: 0.9962 (Simulation time: 05 hr 25 min 01 sec)
Heartbeat CPU 2 instructions: 490000001 cycles: 434217842 heartbeat IPC: 1.636 cumulative IPC: 1.006 (Simulation time: 05 hr 29 min 39 sec)
Heartbeat CPU 1 instructions: 350000000 cycles: 435056498 heartbeat IPC: 0.9502 cumulative IPC: 0.72 (Simulation time: 05 hr 30 min 17 sec)
Heartbeat CPU 2 instructions: 500000000 cycles: 438630858 heartbeat IPC: 2.266 cumulative IPC: 1.019 (Simulation time: 05 hr 33 min 09 sec)
Heartbeat CPU 1 instructions: 360000000 cycles: 445294469 heartbeat IPC: 0.9768 cumulative IPC: 0.7262 (Simulation time: 05 hr 37 min 50 sec)
Heartbeat CPU 2 instructions: 510000000 cycles: 454329567 heartbeat IPC: 0.637 cumulative IPC: 1.005 (Simulation time: 05 hr 44 min 05 sec)
Heartbeat CPU 1 instructions: 370000001 cycles: 456467701 heartbeat IPC: 0.895 cumulative IPC: 0.7305 (Simulation time: 05 hr 45 min 30 sec)
Heartbeat CPU 1 instructions: 380000001 cycles: 468690504 heartbeat IPC: 0.8181 cumulative IPC: 0.7329 (Simulation time: 05 hr 53 min 10 sec)
Heartbeat CPU 1 instructions: 390000004 cycles: 481196462 heartbeat IPC: 0.7996 cumulative IPC: 0.7347 (Simulation time: 06 hr 01 min 07 sec)
Heartbeat CPU 0 instructions: 140000002 cycles: 487202516 heartbeat IPC: 0.1673 cumulative IPC: 0.1829 (Simulation time: 06 hr 04 min 57 sec)
Heartbeat CPU 1 instructions: 400000003 cycles: 493824491 heartbeat IPC: 0.7919 cumulative IPC: 0.7362 (Simulation time: 06 hr 09 min 13 sec)
Heartbeat CPU 2 instructions: 520000003 cycles: 496695113 heartbeat IPC: 0.236 cumulative IPC: 0.9369 (Simulation time: 06 hr 11 min 19 sec)
Heartbeat CPU 2 instructions: 530000001 cycles: 501556558 heartbeat IPC: 2.057 cumulative IPC: 0.9482 (Simulation time: 06 hr 15 min 09 sec)
Heartbeat CPU 2 instructions: 540000001 cycles: 505287997 heartbeat IPC: 2.68 cumulative IPC: 0.9615 (Simulation time: 06 hr 18 min 13 sec)
Heartbeat CPU 1 instructions: 410000002 cycles: 505512903 heartbeat IPC: 0.8555 cumulative IPC: 0.7391 (Simulation time: 06 hr 18 min 25 sec)
Heartbeat CPU 2 instructions: 550000001 cycles: 509319768 heartbeat IPC: 2.48 cumulative IPC: 0.974 (Simulation time: 06 hr 21 min 31 sec)
Heartbeat CPU 2 instructions: 560000000 cycles: 514086763 heartbeat IPC: 2.098 cumulative IPC: 0.9848 (Simulation time: 06 hr 25 min 17 sec)
Heartbeat CPU 1 instructions: 420000000 cycles: 517301923 heartbeat IPC: 0.8482 cumulative IPC: 0.7416 (Simulation time: 06 hr 27 min 47 sec)
Heartbeat CPU 2 instructions: 570000002 cycles: 519639465 heartbeat IPC: 1.801 cumulative IPC: 0.9938 (Simulation time: 06 hr 29 min 34 sec)
Heartbeat CPU 2 instructions: 580000003 cycles: 525572484 heartbeat IPC: 1.685 cumulative IPC: 1.002 (Simulation time: 06 hr 34 min 04 sec)
Heartbeat CPU 0 instructions: 150000001 cycles: 528938178 heartbeat IPC: 0.2396 cumulative IPC: 0.1876 (Simulation time: 06 hr 36 min 45 sec)
Heartbeat CPU 1 instructions: 430000000 cycles: 529267927 heartbeat IPC: 0.8357 cumulative IPC: 0.7438 (Simulation time: 06 hr 36 min 59 sec)
Heartbeat CPU 2 instructions: 590000000 cycles: 531518546 heartbeat IPC: 1.682 cumulative IPC: 1.01 (Simulation time: 06 hr 38 min 43 sec)
Heartbeat CPU 2 instructions: 600000000 cycles: 536272166 heartbeat IPC: 2.104 cumulative IPC: 1.02 (Simulation time: 06 hr 42 min 31 sec)
Heartbeat CPU 1 instructions: 440000003 cycles: 539423482 heartbeat IPC: 0.9847 cumulative IPC: 0.7485 (Simulation time: 06 hr 44 min 50 sec)
Heartbeat CPU 1 instructions: 450000000 cycles: 550647336 heartbeat IPC: 0.891 cumulative IPC: 0.7515 (Simulation time: 06 hr 52 min 47 sec)
Heartbeat CPU 2 instructions: 610000003 cycles: 551058627 heartbeat IPC: 0.6763 cumulative IPC: 1.01 (Simulation time: 06 hr 53 min 05 sec)
Heartbeat CPU 1 instructions: 460000001 cycles: 562308776 heartbeat IPC: 0.8575 cumulative IPC: 0.7538 (Simulation time: 07 hr 00 min 21 sec)
Heartbeat CPU 1 instructions: 470000001 cycles: 574929056 heartbeat IPC: 0.7924 cumulative IPC: 0.7547 (Simulation time: 07 hr 08 min 24 sec)
Heartbeat CPU 1 instructions: 480000002 cycles: 587551063 heartbeat IPC: 0.7923 cumulative IPC: 0.7555 (Simulation time: 07 hr 16 min 28 sec)
Heartbeat CPU 0 instructions: 160000001 cycles: 594568589 heartbeat IPC: 0.1524 cumulative IPC: 0.1835 (Simulation time: 07 hr 21 min 18 sec)
Heartbeat CPU 2 instructions: 620000003 cycles: 594643524 heartbeat IPC: 0.2294 cumulative IPC: 0.9512 (Simulation time: 07 hr 21 min 21 sec)
Heartbeat CPU 1 instructions: 490000003 cycles: 599263650 heartbeat IPC: 0.8538 cumulative IPC: 0.7575 (Simulation time: 07 hr 24 min 58 sec)
Heartbeat CPU 2 instructions: 630000002 cycles: 599519889 heartbeat IPC: 2.051 cumulative IPC: 0.9604 (Simulation time: 07 hr 25 min 11 sec)
Heartbeat CPU 2 instructions: 640000004 cycles: 603263883 heartbeat IPC: 2.671 cumulative IPC: 0.9714 (Simulation time: 07 hr 28 min 14 sec)
Heartbeat CPU 2 instructions: 650000000 cycles: 607654521 heartbeat IPC: 2.278 cumulative IPC: 0.9811 (Simulation time: 07 hr 31 min 45 sec)
Heartbeat CPU 1 instructions: 500000001 cycles: 611273374 heartbeat IPC: 0.8327 cumulative IPC: 0.759 (Simulation time: 07 hr 34 min 31 sec)
Heartbeat CPU 2 instructions: 660000002 cycles: 613206769 heartbeat IPC: 1.801 cumulative IPC: 0.9888 (Simulation time: 07 hr 36 min 00 sec)
Heartbeat CPU 2 instructions: 670000000 cycles: 618994257 heartbeat IPC: 1.728 cumulative IPC: 0.9959 (Simulation time: 07 hr 40 min 27 sec)
Heartbeat CPU 1 instructions: 510000004 cycles: 622638251 heartbeat IPC: 0.8799 cumulative IPC: 0.7613 (Simulation time: 07 hr 43 min 20 sec)
Heartbeat CPU 2 instructions: 680000000 cycles: 624519332 heartbeat IPC: 1.81 cumulative IPC: 1.003 (Simulation time: 07 hr 44 min 44 sec)
Heartbeat CPU 2 instructions: 690000001 cycles: 629475047 heartbeat IPC: 2.018 cumulative IPC: 1.012 (Simulation time: 07 hr 48 min 38 sec)
Heartbeat CPU 0 instructions: 170000000 cycles: 631005583 heartbeat IPC: 0.2744 cumulative IPC: 0.189 (Simulation time: 07 hr 49 min 55 sec)
Heartbeat CPU 1 instructions: 520000000 cycles: 633593121 heartbeat IPC: 0.9128 cumulative IPC: 0.764 (Simulation time: 07 hr 51 min 43 sec)
Heartbeat CPU 2 instructions: 700000000 cycles: 642699003 heartbeat IPC: 0.7562 cumulative IPC: 1.006 (Simulation time: 07 hr 58 min 19 sec)
Heartbeat CPU 1 instructions: 530000003 cycles: 644544346 heartbeat IPC: 0.9131 cumulative IPC: 0.7666 (Simulation time: 07 hr 59 min 40 sec)
Heartbeat CPU 1 instructions: 540000000 cycles: 656089806 heartbeat IPC: 0.8661 cumulative IPC: 0.7684 (Simulation time: 08 hr 07 min 26 sec)
Heartbeat CPU 1 instructions: 550000000 cycles: 668788235 heartbeat IPC: 0.7875 cumulative IPC: 0.7688 (Simulation time: 08 hr 15 min 45 sec)
Heartbeat CPU 1 instructions: 560000004 cycles: 681516174 heartbeat IPC: 0.7857 cumulative IPC: 0.7691 (Simulation time: 08 hr 24 min 07 sec)
Heartbeat CPU 2 instructions: 710000000 cycles: 687473724 heartbeat IPC: 0.2233 cumulative IPC: 0.9538 (Simulation time: 08 hr 28 min 14 sec)
Heartbeat CPU 2 instructions: 720000002 cycles: 692775657 heartbeat IPC: 1.886 cumulative IPC: 0.9611 (Simulation time: 08 hr 32 min 27 sec)
Heartbeat CPU 1 instructions: 570000001 cycles: 693226131 heartbeat IPC: 0.854 cumulative IPC: 0.7706 (Simulation time: 08 hr 32 min 48 sec)
Heartbeat CPU 2 instructions: 730000003 cycles: 696613199 heartbeat IPC: 2.606 cumulative IPC: 0.9704 (Simulation time: 08 hr 35 min 43 sec)
Heartbeat CPU 0 instructions: 180000002 cycles: 697108953 heartbeat IPC: 0.1513 cumulative IPC: 0.1853 (Simulation time: 08 hr 36 min 07 sec)
Heartbeat CPU 2 instructions: 740000002 cycles: 701299866 heartbeat IPC: 2.134 cumulative IPC: 0.9784 (Simulation time: 08 hr 39 min 31 sec)
Heartbeat CPU 1 instructions: 580000000 cycles: 704150182 heartbeat IPC: 0.9154 cumulative IPC: 0.7729 (Simulation time: 08 hr 41 min 47 sec)
Heartbeat CPU 2 instructions: 750000003 cycles: 706723650 heartbeat IPC: 1.844 cumulative IPC: 0.9852 (Simulation time: 08 hr 43 min 49 sec)
Heartbeat CPU 2 instructions: 760000000 cycles: 712276151 heartbeat IPC: 1.801 cumulative IPC: 0.9917 (Simulation time: 08 hr 48 min 13 sec)
Heartbeat CPU 1 instructions: 590000003 cycles: 715715651 heartbeat IPC: 0.8646 cumulative IPC: 0.7744 (Simulation time: 08 hr 51 min 00 sec)
Heartbeat CPU 2 instructions: 770000003 cycles: 718341351 heartbeat IPC: 1.649 cumulative IPC: 0.9974 (Simulation time: 08 hr 53 min 02 sec)
Heartbeat CPU 2 instructions: 780000002 cycles: 723465552 heartbeat IPC: 1.952 cumulative IPC: 1.004 (Simulation time: 08 hr 57 min 11 sec)
Heartbeat CPU 1 instructions: 600000001 cycles: 725942941 heartbeat IPC: 0.9778 cumulative IPC: 0.7773 (Simulation time: 08 hr 59 min 13 sec)
Heartbeat CPU 2 instructions: 790000004 cycles: 734286714 heartbeat IPC: 0.9241 cumulative IPC: 1.003 (Simulation time: 09 hr 05 min 15 sec)
Heartbeat CPU 0 instructions: 190000003 cycles: 735066062 heartbeat IPC: 0.2635 cumulative IPC: 0.1894 (Simulation time: 09 hr 05 min 48 sec)
Heartbeat CPU 1 instructions: 610000004 cycles: 737028651 heartbeat IPC: 0.9021 cumulative IPC: 0.7793 (Simulation time: 09 hr 07 min 17 sec)
Heartbeat CPU 1 instructions: 620000001 cycles: 749119329 heartbeat IPC: 0.8271 cumulative IPC: 0.7801 (Simulation time: 09 hr 15 min 26 sec)
Heartbeat CPU 1 instructions: 630000004 cycles: 761870103 heartbeat IPC: 0.7843 cumulative IPC: 0.7801 (Simulation time: 09 hr 23 min 48 sec)
Heartbeat CPU 1 instructions: 640000004 cycles: 774522261 heartbeat IPC: 0.7904 cumulative IPC: 0.7803 (Simulation time: 09 hr 32 min 10 sec)
Heartbeat CPU 2 instructions: 800000000 cycles: 780652231 heartbeat IPC: 0.2157 cumulative IPC: 0.9552 (Simulation time: 09 hr 36 min 22 sec)
Heartbeat CPU 2 instructions: 810000001 cycles: 785787422 heartbeat IPC: 1.947 cumulative IPC: 0.9619 (Simulation time: 09 hr 40 min 31 sec)
Heartbeat CPU 1 instructions: 650000000 cycles: 786368800 heartbeat IPC: 0.8441 cumulative IPC: 0.7813 (Simulation time: 09 hr 41 min 02 sec)
Heartbeat CPU 2 instructions: 820000003 cycles: 789500512 heartbeat IPC: 2.693 cumulative IPC: 0.9702 (Simulation time: 09 hr 43 min 41 sec)
Heartbeat CPU 2 instructions: 830000001 cycles: 794511802 heartbeat IPC: 1.995 cumulative IPC: 0.9768 (Simulation time: 09 hr 47 min 44 sec)
Heartbeat CPU 1 instructions: 660000000 cycles: 797948713 heartbeat IPC: 0.8636 cumulative IPC: 0.7825 (Simulation time: 09 hr 50 min 32 sec)
Heartbeat CPU 0 instructions: 200000000 cycles: 799073737 heartbeat IPC: 0.1562 cumulative IPC: 0.1867 (Simulation time: 09 hr 51 min 26 sec)
Heartbeat CPU 2 instructions: 840000001 cycles: 799539927 heartbeat IPC: 1.989 cumulative IPC: 0.9833 (Simulation time: 09 hr 51 min 48 sec)
Heartbeat CPU 2 instructions: 850000003 cycles: 804940553 heartbeat IPC: 1.852 cumulative IPC: 0.9893 (Simulation time: 09 hr 56 min 07 sec)
Heartbeat CPU 1 instructions: 670000004 cycles: 809994712 heartbeat IPC: 0.8302 cumulative IPC: 0.7832 (Simulation time: 10 hr 00 min 08 sec)
Heartbeat CPU 2 instructions: 860000001 cycles: 810645929 heartbeat IPC: 1.753 cumulative IPC: 0.9948 (Simulation time: 10 hr 00 min 38 sec)
Simulation finished CPU 0 instructions: 150000001 cycles: 796798583 cumulative IPC: 0.1883 (Simulation time: 10 hr 04 min 15 sec)
Simulation complete CPU 0 instructions: 150000001 cycles: 796798583 cumulative IPC: 0.1883 (Simulation time: 10 hr 04 min 15 sec)
Simulation complete CPU 1 instructions: 624969229 cycles: 796798583 cumulative IPC: 0.7844 (Simulation time: 10 hr 04 min 15 sec)
Simulation complete CPU 2 instructions: 795850457 cycles: 796798583 cumulative IPC: 0.9988 (Simulation time: 10 hr 04 min 15 sec)
Simulation complete CPU 3 instructions: 545206697 cycles: 796798583 cumulative IPC: 0.6842 (Simulation time: 10 hr 04 min 15 sec)

ChampSim completed all CPUs

=== Simulation ===
CPU 0 runs /home/grads/r/rdas40/dpc3_traces/619.lbm_s-4268B.champsimtrace.xzCPU 1 runs /home/grads/r/rdas40/dpc3_traces/607.cactuBSSN_s-2421B.champsimtrace.xzCPU 2 runs /home/grads/r/rdas40/dpc3_traces/627.cam4_s-573B.champsimtrace.xzCPU 3 runs /home/grads/r/rdas40/dpc3_traces/621.wrf_s-575B.champsimtrace.xz
Total Simulation Statistics (not including warmup)

CPU 0 cumulative IPC: 0.1883 instructions: 150000001 cycles: 796798583
CPU 0 Branch Prediction Accuracy: 97.11% MPKI: 0.5212 Average ROB Occupancy at Mispredict: 246.2
Branch type MPKI
BRANCH_DIRECT_JUMP: 0
BRANCH_INDIRECT: 0
BRANCH_CONDITIONAL: 0.521
BRANCH_DIRECT_CALL: 0
BRANCH_INDIRECT_CALL: 0
BRANCH_RETURN: 0


CPU 1 cumulative IPC: 0.7844 instructions: 624969229 cycles: 796798583
CPU 1 Branch Prediction Accuracy: 99.3% MPKI: 0.008744 Average ROB Occupancy at Mispredict: 166.4
Branch type MPKI
BRANCH_DIRECT_JUMP: 4.8e-05
BRANCH_INDIRECT: 0.000136
BRANCH_CONDITIONAL: 0.00571
BRANCH_DIRECT_CALL: 0.000992
BRANCH_INDIRECT_CALL: 4.8e-06
BRANCH_RETURN: 0.00186


CPU 2 cumulative IPC: 0.9988 instructions: 795850457 cycles: 796798583
CPU 2 Branch Prediction Accuracy: 94.7% MPKI: 7.129 Average ROB Occupancy at Mispredict: 66.84
Branch type MPKI
BRANCH_DIRECT_JUMP: 0.0053
BRANCH_INDIRECT: 0.00146
BRANCH_CONDITIONAL: 6.47
BRANCH_DIRECT_CALL: 0.0182
BRANCH_INDIRECT_CALL: 0
BRANCH_RETURN: 0.639


CPU 3 cumulative IPC: 0.6842 instructions: 545206697 cycles: 796798583
CPU 3 Branch Prediction Accuracy: 95.51% MPKI: 6.277 Average ROB Occupancy at Mispredict: 93.69
Branch type MPKI
BRANCH_DIRECT_JUMP: 0.000405
BRANCH_INDIRECT: 1.1e-05
BRANCH_CONDITIONAL: 5.96
BRANCH_DIRECT_CALL: 0.00273
BRANCH_INDIRECT_CALL: 0
BRANCH_RETURN: 0.31

LLC TOTAL        ACCESS:   15359308 HIT:    6456276 MISS:    8903032
LLC LOAD         ACCESS:    1613513 HIT:     443509 MISS:    1170004
LLC RFO          ACCESS:    5493173 HIT:     105046 MISS:    5388127
LLC PREFETCH     ACCESS:    2759784 HIT:     416798 MISS:    2342986
LLC WRITE        ACCESS:    5492005 HIT:    5490909 MISS:       1096
LLC TRANSLATION  ACCESS:        833 HIT:         14 MISS:        819
LLC PREFETCH REQUESTED:          0 ISSUED:          0 USEFUL:          0 USELESS:          0
LLC AVERAGE MISS LATENCY: 2371 cycles
LLC TOTAL        ACCESS:   28286191 HIT:   22946565 MISS:    5339626
LLC LOAD         ACCESS:    5204306 HIT:    3455101 MISS:    1749205
LLC RFO          ACCESS:      11426 HIT:      10323 MISS:       1103
LLC PREFETCH     ACCESS:   22362489 HIT:   18832053 MISS:    3530436
LLC WRITE        ACCESS:     612631 HIT:     612361 MISS:        270
LLC TRANSLATION  ACCESS:      95339 HIT:      36727 MISS:      58612
LLC PREFETCH REQUESTED:          0 ISSUED:          0 USEFUL:          0 USELESS:          0
LLC AVERAGE MISS LATENCY: 2371 cycles
LLC TOTAL        ACCESS:    9372172 HIT:    4613940 MISS:    4758232
LLC LOAD         ACCESS:     521614 HIT:     196747 MISS:     324867
LLC RFO          ACCESS:    3904202 HIT:      64484 MISS:    3839718
LLC PREFETCH     ACCESS:     967072 HIT:     498239 MISS:     468833
LLC WRITE        ACCESS:    3966330 HIT:    3853725 MISS:     112605
LLC TRANSLATION  ACCESS:      12954 HIT:        745 MISS:      12209
LLC PREFETCH REQUESTED:          0 ISSUED:          0 USEFUL:          0 USELESS:          0
LLC AVERAGE MISS LATENCY: 2371 cycles
LLC TOTAL        ACCESS:    1889543 HIT:     966276 MISS:     923267
LLC LOAD         ACCESS:     300376 HIT:     144152 MISS:     156224
LLC RFO          ACCESS:     308764 HIT:      71454 MISS:     237310
LLC PREFETCH     ACCESS:     859595 HIT:     383865 MISS:     475730
LLC WRITE        ACCESS:     418129 HIT:     365929 MISS:      52200
LLC TRANSLATION  ACCESS:       2679 HIT:        876 MISS:       1803
LLC PREFETCH REQUESTED:          0 ISSUED:          0 USEFUL:          0 USELESS:          0
LLC AVERAGE MISS LATENCY: 2371 cycles
cpu0_DTLB TOTAL        ACCESS:   24163999 HIT:   23840517 MISS:     323482
cpu0_DTLB LOAD         ACCESS:   24163999 HIT:   23840517 MISS:     323482
cpu0_DTLB RFO          ACCESS:          0 HIT:          0 MISS:          0
cpu0_DTLB PREFETCH     ACCESS:          0 HIT:          0 MISS:          0
cpu0_DTLB WRITE        ACCESS:          0 HIT:          0 MISS:          0
cpu0_DTLB TRANSLATION  ACCESS:          0 HIT:          0 MISS:          0
cpu0_DTLB PREFETCH REQUESTED:          0 ISSUED:          0 USEFUL:          0 USELESS:          0
cpu0_DTLB AVERAGE MISS LATENCY: 55.36 cycles
cpu0_DTLB TOTAL        ACCESS:          0 HIT:          0 MISS:          0
cpu0_DTLB LOAD         ACCESS:          0 HIT:          0 MISS:          0
cpu0_DTLB RFO          ACCESS:          0 HIT:          0 MISS:          0
cpu0_DTLB PREFETCH     ACCESS:          0 HIT:          0 MISS:          0
cpu0_DTLB WRITE        ACCESS:          0 HIT:          0 MISS:          0
cpu0_DTLB TRANSLATION  ACCESS:          0 HIT:          0 MISS:          0
cpu0_DTLB PREFETCH REQUESTED:          0 ISSUED:          0 USEFUL:          0 USELESS:          0
cpu0_DTLB AVERAGE MISS LATENCY: 55.36 cycles
cpu0_DTLB TOTAL        ACCESS:          0 HIT:          0 MISS:          0
cpu0_DTLB LOAD         ACCESS:          0 HIT:          0 MISS:          0
cpu0_DTLB RFO          ACCESS:          0 HIT:          0 MISS:          0
cpu0_DTLB PREFETCH     ACCESS:          0 HIT:          0 MISS:          0
cpu0_DTLB WRITE        ACCESS:          0 HIT:          0 MISS:          0
cpu0_DTLB TRANSLATION  ACCESS:          0 HIT:          0 MISS:          0
cpu0_DTLB PREFETCH REQUESTED:          0 ISSUED:          0 USEFUL:          0 USELESS:          0
cpu0_DTLB AVERAGE MISS LATENCY: 55.36 cycles
cpu0_DTLB TOTAL        ACCESS:          0 HIT:          0 MISS:          0
cpu0_DTLB LOAD         ACCESS:          0 HIT:          0 MISS:          0
cpu0_DTLB RFO          ACCESS:          0 HIT:          0 MISS:          0
cpu0_DTLB PREFETCH     ACCESS:          0 HIT:          0 MISS:          0
cpu0_DTLB WRITE        ACCESS:          0 HIT:          0 MISS:          0
cpu0_DTLB TRANSLATION  ACCESS:          0 HIT:          0 MISS:          0
cpu0_DTLB PREFETCH REQUESTED:          0 ISSUED:          0 USEFUL:          0 USELESS:          0
cpu0_DTLB AVERAGE MISS LATENCY: 55.36 cycles
cpu0_ITLB TOTAL        ACCESS:          0 HIT:          0 MISS:          0
cpu0_ITLB LOAD         ACCESS:          0 HIT:          0 MISS:          0
cpu0_ITLB RFO          ACCESS:          0 HIT:          0 MISS:          0
cpu0_ITLB PREFETCH     ACCESS:          0 HIT:          0 MISS:          0
cpu0_ITLB WRITE        ACCESS:          0 HIT:          0 MISS:          0
cpu0_ITLB TRANSLATION  ACCESS:          0 HIT:          0 MISS:          0
cpu0_ITLB PREFETCH REQUESTED:          0 ISSUED:          0 USEFUL:          0 USELESS:          0
cpu0_ITLB AVERAGE MISS LATENCY: -nan cycles
cpu0_ITLB TOTAL        ACCESS:          0 HIT:          0 MISS:          0
cpu0_ITLB LOAD         ACCESS:          0 HIT:          0 MISS:          0
cpu0_ITLB RFO          ACCESS:          0 HIT:          0 MISS:          0
cpu0_ITLB PREFETCH     ACCESS:          0 HIT:          0 MISS:          0
cpu0_ITLB WRITE        ACCESS:          0 HIT:          0 MISS:          0
cpu0_ITLB TRANSLATION  ACCESS:          0 HIT:          0 MISS:          0
cpu0_ITLB PREFETCH REQUESTED:          0 ISSUED:          0 USEFUL:          0 USELESS:          0
cpu0_ITLB AVERAGE MISS LATENCY: -nan cycles
cpu0_ITLB TOTAL        ACCESS:          0 HIT:          0 MISS:          0
cpu0_ITLB LOAD         ACCESS:          0 HIT:          0 MISS:          0
cpu0_ITLB RFO          ACCESS:          0 HIT:          0 MISS:          0
cpu0_ITLB PREFETCH     ACCESS:          0 HIT:          0 MISS:          0
cpu0_ITLB WRITE        ACCESS:          0 HIT:          0 MISS:          0
cpu0_ITLB TRANSLATION  ACCESS:          0 HIT:          0 MISS:          0
cpu0_ITLB PREFETCH REQUESTED:          0 ISSUED:          0 USEFUL:          0 USELESS:          0
cpu0_ITLB AVERAGE MISS LATENCY: -nan cycles
cpu0_ITLB TOTAL        ACCESS:          0 HIT:          0 MISS:          0
cpu0_ITLB LOAD         ACCESS:          0 HIT:          0 MISS:          0
cpu0_ITLB RFO          ACCESS:          0 HIT:          0 MISS:          0
cpu0_ITLB PREFETCH     ACCESS:          0 HIT:          0 MISS:          0
cpu0_ITLB WRITE        ACCESS:          0 HIT:          0 MISS:          0
cpu0_ITLB TRANSLATION  ACCESS:          0 HIT:          0 MISS:          0
cpu0_ITLB PREFETCH REQUESTED:          0 ISSUED:          0 USEFUL:          0 USELESS:          0
cpu0_ITLB AVERAGE MISS LATENCY: -nan cycles
cpu0_L1D TOTAL        ACCESS:   33564537 HIT:   19497875 MISS:   14066662
cpu0_L1D LOAD         ACCESS:    5831068 HIT:    2918445 MISS:    2912623
cpu0_L1D RFO          ACCESS:          0 HIT:          0 MISS:          0
cpu0_L1D PREFETCH     ACCESS:          0 HIT:          0 MISS:          0
cpu0_L1D WRITE        ACCESS:   27621071 HIT:   16579233 MISS:   11041838
cpu0_L1D TRANSLATION  ACCESS:     112398 HIT:        197 MISS:     112201
cpu0_L1D PREFETCH REQUESTED:          0 ISSUED:          0 USEFUL:          0 USELESS:          0
cpu0_L1D AVERAGE MISS LATENCY: 802.4 cycles
cpu0_L1D TOTAL        ACCESS:          0 HIT:          0 MISS:          0
cpu0_L1D LOAD         ACCESS:          0 HIT:          0 MISS:          0
cpu0_L1D RFO          ACCESS:          0 HIT:          0 MISS:          0
cpu0_L1D PREFETCH     ACCESS:          0 HIT:          0 MISS:          0
cpu0_L1D WRITE        ACCESS:          0 HIT:          0 MISS:          0
cpu0_L1D TRANSLATION  ACCESS:          0 HIT:          0 MISS:          0
cpu0_L1D PREFETCH REQUESTED:          0 ISSUED:          0 USEFUL:          0 USELESS:          0
cpu0_L1D AVERAGE MISS LATENCY: 802.4 cycles
cpu0_L1D TOTAL        ACCESS:          0 HIT:          0 MISS:          0
cpu0_L1D LOAD         ACCESS:          0 HIT:          0 MISS:          0
cpu0_L1D RFO          ACCESS:          0 HIT:          0 MISS:          0
cpu0_L1D PREFETCH     ACCESS:          0 HIT:          0 MISS:          0
cpu0_L1D WRITE        ACCESS:          0 HIT:          0 MISS:          0
cpu0_L1D TRANSLATION  ACCESS:          0 HIT:          0 MISS:          0
cpu0_L1D PREFETCH REQUESTED:          0 ISSUED:          0 USEFUL:          0 USELESS:          0
cpu0_L1D AVERAGE MISS LATENCY: 802.4 cycles
cpu0_L1D TOTAL        ACCESS:          0 HIT:          0 MISS:          0
cpu0_L1D LOAD         ACCESS:          0 HIT:          0 MISS:          0
cpu0_L1D RFO          ACCESS:          0 HIT:          0 MISS:          0
cpu0_L1D PREFETCH     ACCESS:          0 HIT:          0 MISS:          0
cpu0_L1D WRITE        ACCESS:          0 HIT:          0 MISS:          0
cpu0_L1D TRANSLATION  ACCESS:          0 HIT:          0 MISS:          0
cpu0_L1D PREFETCH REQUESTED:          0 ISSUED:          0 USEFUL:          0 USELESS:          0
cpu0_L1D AVERAGE MISS LATENCY: 802.4 cycles
cpu0_L1I TOTAL        ACCESS:          0 HIT:          0 MISS:          0
cpu0_L1I LOAD         ACCESS:          0 HIT:          0 MISS:          0
cpu0_L1I RFO          ACCESS:          0 HIT:          0 MISS:          0
cpu0_L1I PREFETCH     ACCESS:          0 HIT:          0 MISS:          0
cpu0_L1I WRITE        ACCESS:          0 HIT:          0 MISS:          0
cpu0_L1I TRANSLATION  ACCESS:          0 HIT:          0 MISS:          0
cpu0_L1I PREFETCH REQUESTED:          0 ISSUED:          0 USEFUL:          0 USELESS:          0
cpu0_L1I AVERAGE MISS LATENCY: -nan cycles
cpu0_L1I TOTAL        ACCESS:          0 HIT:          0 MISS:          0
cpu0_L1I LOAD         ACCESS:          0 HIT:          0 MISS:          0
cpu0_L1I RFO          ACCESS:          0 HIT:          0 MISS:          0
cpu0_L1I PREFETCH     ACCESS:          0 HIT:          0 MISS:          0
cpu0_L1I WRITE        ACCESS:          0 HIT:          0 MISS:          0
cpu0_L1I TRANSLATION  ACCESS:          0 HIT:          0 MISS:          0
cpu0_L1I PREFETCH REQUESTED:          0 ISSUED:          0 USEFUL:          0 USELESS:          0
cpu0_L1I AVERAGE MISS LATENCY: -nan cycles
cpu0_L1I TOTAL        ACCESS:          0 HIT:          0 MISS:          0
cpu0_L1I LOAD         ACCESS:          0 HIT:          0 MISS:          0
cpu0_L1I RFO          ACCESS:          0 HIT:          0 MISS:          0
cpu0_L1I PREFETCH     ACCESS:          0 HIT:          0 MISS:          0
cpu0_L1I WRITE        ACCESS:          0 HIT:          0 MISS:          0
cpu0_L1I TRANSLATION  ACCESS:          0 HIT:          0 MISS:          0
cpu0_L1I PREFETCH REQUESTED:          0 ISSUED:          0 USEFUL:          0 USELESS:          0
cpu0_L1I AVERAGE MISS LATENCY: -nan cycles
cpu0_L1I TOTAL        ACCESS:          0 HIT:          0 MISS:          0
cpu0_L1I LOAD         ACCESS:          0 HIT:          0 MISS:          0
cpu0_L1I RFO          ACCESS:          0 HIT:          0 MISS:          0
cpu0_L1I PREFETCH     ACCESS:          0 HIT:          0 MISS:          0
cpu0_L1I WRITE        ACCESS:          0 HIT:          0 MISS:          0
cpu0_L1I TRANSLATION  ACCESS:          0 HIT:          0 MISS:          0
cpu0_L1I PREFETCH REQUESTED:          0 ISSUED:          0 USEFUL:          0 USELESS:          0
cpu0_L1I AVERAGE MISS LATENCY: -nan cycles
cpu0_L2C TOTAL        ACCESS:   26832204 HIT:   15172958 MISS:   11659246
cpu0_L2C LOAD         ACCESS:    1796260 HIT:      53174 MISS:    1743086
cpu0_L2C RFO          ACCESS:   10145354 HIT:    4652176 MISS:    5493178
cpu0_L2C PREFETCH     ACCESS:    4632585 HIT:     210436 MISS:    4422149
cpu0_L2C WRITE        ACCESS:   10145804 HIT:   10145804 MISS:          0
cpu0_L2C TRANSLATION  ACCESS:     112201 HIT:     111368 MISS:        833
cpu0_L2C PREFETCH REQUESTED:    4649738 ISSUED:    4632585 USEFUL:     182687 USELESS:         10
cpu0_L2C AVERAGE MISS LATENCY: 1036 cycles
cpu0_L2C TOTAL        ACCESS:          0 HIT:          0 MISS:          0
cpu0_L2C LOAD         ACCESS:          0 HIT:          0 MISS:          0
cpu0_L2C RFO          ACCESS:          0 HIT:          0 MISS:          0
cpu0_L2C PREFETCH     ACCESS:          0 HIT:          0 MISS:          0
cpu0_L2C WRITE        ACCESS:          0 HIT:          0 MISS:          0
cpu0_L2C TRANSLATION  ACCESS:          0 HIT:          0 MISS:          0
cpu0_L2C PREFETCH REQUESTED:    4649738 ISSUED:    4632585 USEFUL:     182687 USELESS:         10
cpu0_L2C AVERAGE MISS LATENCY: 1036 cycles
cpu0_L2C TOTAL        ACCESS:          0 HIT:          0 MISS:          0
cpu0_L2C LOAD         ACCESS:          0 HIT:          0 MISS:          0
cpu0_L2C RFO          ACCESS:          0 HIT:          0 MISS:          0
cpu0_L2C PREFETCH     ACCESS:          0 HIT:          0 MISS:          0
cpu0_L2C WRITE        ACCESS:          0 HIT:          0 MISS:          0
cpu0_L2C TRANSLATION  ACCESS:          0 HIT:          0 MISS:          0
cpu0_L2C PREFETCH REQUESTED:    4649738 ISSUED:    4632585 USEFUL:     182687 USELESS:         10
cpu0_L2C AVERAGE MISS LATENCY: 1036 cycles
cpu0_L2C TOTAL        ACCESS:          0 HIT:          0 MISS:          0
cpu0_L2C LOAD         ACCESS:          0 HIT:          0 MISS:          0
cpu0_L2C RFO          ACCESS:          0 HIT:          0 MISS:          0
cpu0_L2C PREFETCH     ACCESS:          0 HIT:          0 MISS:          0
cpu0_L2C WRITE        ACCESS:          0 HIT:          0 MISS:          0
cpu0_L2C TRANSLATION  ACCESS:          0 HIT:          0 MISS:          0
cpu0_L2C PREFETCH REQUESTED:    4649738 ISSUED:    4632585 USEFUL:     182687 USELESS:         10
cpu0_L2C AVERAGE MISS LATENCY: 1036 cycles
cpu0_STLB TOTAL        ACCESS:     206940 HIT:      94652 MISS:     112288
cpu0_STLB LOAD         ACCESS:     206940 HIT:      94652 MISS:     112288
cpu0_STLB RFO          ACCESS:          0 HIT:          0 MISS:          0
cpu0_STLB PREFETCH     ACCESS:          0 HIT:          0 MISS:          0
cpu0_STLB WRITE        ACCESS:          0 HIT:          0 MISS:          0
cpu0_STLB TRANSLATION  ACCESS:          0 HIT:          0 MISS:          0
cpu0_STLB PREFETCH REQUESTED:          0 ISSUED:          0 USEFUL:          0 USELESS:          0
cpu0_STLB AVERAGE MISS LATENCY: 181.1 cycles
cpu0_STLB TOTAL        ACCESS:          0 HIT:          0 MISS:          0
cpu0_STLB LOAD         ACCESS:          0 HIT:          0 MISS:          0
cpu0_STLB RFO          ACCESS:          0 HIT:          0 MISS:          0
cpu0_STLB PREFETCH     ACCESS:          0 HIT:          0 MISS:          0
cpu0_STLB WRITE        ACCESS:          0 HIT:          0 MISS:          0
cpu0_STLB TRANSLATION  ACCESS:          0 HIT:          0 MISS:          0
cpu0_STLB PREFETCH REQUESTED:          0 ISSUED:          0 USEFUL:          0 USELESS:          0
cpu0_STLB AVERAGE MISS LATENCY: 181.1 cycles
cpu0_STLB TOTAL        ACCESS:          0 HIT:          0 MISS:          0
cpu0_STLB LOAD         ACCESS:          0 HIT:          0 MISS:          0
cpu0_STLB RFO          ACCESS:          0 HIT:          0 MISS:          0
cpu0_STLB PREFETCH     ACCESS:          0 HIT:          0 MISS:          0
cpu0_STLB WRITE        ACCESS:          0 HIT:          0 MISS:          0
cpu0_STLB TRANSLATION  ACCESS:          0 HIT:          0 MISS:          0
cpu0_STLB PREFETCH REQUESTED:          0 ISSUED:          0 USEFUL:          0 USELESS:          0
cpu0_STLB AVERAGE MISS LATENCY: 181.1 cycles
cpu0_STLB TOTAL        ACCESS:          0 HIT:          0 MISS:          0
cpu0_STLB LOAD         ACCESS:          0 HIT:          0 MISS:          0
cpu0_STLB RFO          ACCESS:          0 HIT:          0 MISS:          0
cpu0_STLB PREFETCH     ACCESS:          0 HIT:          0 MISS:          0
cpu0_STLB WRITE        ACCESS:          0 HIT:          0 MISS:          0
cpu0_STLB TRANSLATION  ACCESS:          0 HIT:          0 MISS:          0
cpu0_STLB PREFETCH REQUESTED:          0 ISSUED:          0 USEFUL:          0 USELESS:          0
cpu0_STLB AVERAGE MISS LATENCY: 181.1 cycles
cpu1_DTLB TOTAL        ACCESS:          0 HIT:          0 MISS:          0
cpu1_DTLB LOAD         ACCESS:          0 HIT:          0 MISS:          0
cpu1_DTLB RFO          ACCESS:          0 HIT:          0 MISS:          0
cpu1_DTLB PREFETCH     ACCESS:          0 HIT:          0 MISS:          0
cpu1_DTLB WRITE        ACCESS:          0 HIT:          0 MISS:          0
cpu1_DTLB TRANSLATION  ACCESS:          0 HIT:          0 MISS:          0
cpu1_DTLB PREFETCH REQUESTED:          0 ISSUED:          0 USEFUL:          0 USELESS:          0
cpu1_DTLB AVERAGE MISS LATENCY: 8.912 cycles
cpu1_DTLB TOTAL        ACCESS:  131809914 HIT:   77163653 MISS:   54646261
cpu1_DTLB LOAD         ACCESS:  131809914 HIT:   77163653 MISS:   54646261
cpu1_DTLB RFO          ACCESS:          0 HIT:          0 MISS:          0
cpu1_DTLB PREFETCH     ACCESS:          0 HIT:          0 MISS:          0
cpu1_DTLB WRITE        ACCESS:          0 HIT:          0 MISS:          0
cpu1_DTLB TRANSLATION  ACCESS:          0 HIT:          0 MISS:          0
cpu1_DTLB PREFETCH REQUESTED:          0 ISSUED:          0 USEFUL:          0 USELESS:          0
cpu1_DTLB AVERAGE MISS LATENCY: 8.912 cycles
cpu1_DTLB TOTAL        ACCESS:          0 HIT:          0 MISS:          0
cpu1_DTLB LOAD         ACCESS:          0 HIT:          0 MISS:          0
cpu1_DTLB RFO          ACCESS:          0 HIT:          0 MISS:          0
cpu1_DTLB PREFETCH     ACCESS:          0 HIT:          0 MISS:          0
cpu1_DTLB WRITE        ACCESS:          0 HIT:          0 MISS:          0
cpu1_DTLB TRANSLATION  ACCESS:          0 HIT:          0 MISS:          0
cpu1_DTLB PREFETCH REQUESTED:          0 ISSUED:          0 USEFUL:          0 USELESS:          0
cpu1_DTLB AVERAGE MISS LATENCY: 8.912 cycles
cpu1_DTLB TOTAL        ACCESS:          0 HIT:          0 MISS:          0
cpu1_DTLB LOAD         ACCESS:          0 HIT:          0 MISS:          0
cpu1_DTLB RFO          ACCESS:          0 HIT:          0 MISS:          0
cpu1_DTLB PREFETCH     ACCESS:          0 HIT:          0 MISS:          0
cpu1_DTLB WRITE        ACCESS:          0 HIT:          0 MISS:          0
cpu1_DTLB TRANSLATION  ACCESS:          0 HIT:          0 MISS:          0
cpu1_DTLB PREFETCH REQUESTED:          0 ISSUED:          0 USEFUL:          0 USELESS:          0
cpu1_DTLB AVERAGE MISS LATENCY: 8.912 cycles
cpu1_ITLB TOTAL        ACCESS:          0 HIT:          0 MISS:          0
cpu1_ITLB LOAD         ACCESS:          0 HIT:          0 MISS:          0
cpu1_ITLB RFO          ACCESS:          0 HIT:          0 MISS:          0
cpu1_ITLB PREFETCH     ACCESS:          0 HIT:          0 MISS:          0
cpu1_ITLB WRITE        ACCESS:          0 HIT:          0 MISS:          0
cpu1_ITLB TRANSLATION  ACCESS:          0 HIT:          0 MISS:          0
cpu1_ITLB PREFETCH REQUESTED:          0 ISSUED:          0 USEFUL:          0 USELESS:          0
cpu1_ITLB AVERAGE MISS LATENCY: 829.6 cycles
cpu1_ITLB TOTAL        ACCESS:   80930722 HIT:   80930633 MISS:         89
cpu1_ITLB LOAD         ACCESS:   80930722 HIT:   80930633 MISS:         89
cpu1_ITLB RFO          ACCESS:          0 HIT:          0 MISS:          0
cpu1_ITLB PREFETCH     ACCESS:          0 HIT:          0 MISS:          0
cpu1_ITLB WRITE        ACCESS:          0 HIT:          0 MISS:          0
cpu1_ITLB TRANSLATION  ACCESS:          0 HIT:          0 MISS:          0
cpu1_ITLB PREFETCH REQUESTED:          0 ISSUED:          0 USEFUL:          0 USELESS:          0
cpu1_ITLB AVERAGE MISS LATENCY: 829.6 cycles
cpu1_ITLB TOTAL        ACCESS:          0 HIT:          0 MISS:          0
cpu1_ITLB LOAD         ACCESS:          0 HIT:          0 MISS:          0
cpu1_ITLB RFO          ACCESS:          0 HIT:          0 MISS:          0
cpu1_ITLB PREFETCH     ACCESS:          0 HIT:          0 MISS:          0
cpu1_ITLB WRITE        ACCESS:          0 HIT:          0 MISS:          0
cpu1_ITLB TRANSLATION  ACCESS:          0 HIT:          0 MISS:          0
cpu1_ITLB PREFETCH REQUESTED:          0 ISSUED:          0 USEFUL:          0 USELESS:          0
cpu1_ITLB AVERAGE MISS LATENCY: 829.6 cycles
cpu1_ITLB TOTAL        ACCESS:          0 HIT:          0 MISS:          0
cpu1_ITLB LOAD         ACCESS:          0 HIT:          0 MISS:          0
cpu1_ITLB RFO          ACCESS:          0 HIT:          0 MISS:          0
cpu1_ITLB PREFETCH     ACCESS:          0 HIT:          0 MISS:          0
cpu1_ITLB WRITE        ACCESS:          0 HIT:          0 MISS:          0
cpu1_ITLB TRANSLATION  ACCESS:          0 HIT:          0 MISS:          0
cpu1_ITLB PREFETCH REQUESTED:          0 ISSUED:          0 USEFUL:          0 USELESS:          0
cpu1_ITLB AVERAGE MISS LATENCY: 829.6 cycles
cpu1_L1D TOTAL        ACCESS:          0 HIT:          0 MISS:          0
cpu1_L1D LOAD         ACCESS:          0 HIT:          0 MISS:          0
cpu1_L1D RFO          ACCESS:          0 HIT:          0 MISS:          0
cpu1_L1D PREFETCH     ACCESS:          0 HIT:          0 MISS:          0
cpu1_L1D WRITE        ACCESS:          0 HIT:          0 MISS:          0
cpu1_L1D TRANSLATION  ACCESS:          0 HIT:          0 MISS:          0
cpu1_L1D PREFETCH REQUESTED:          0 ISSUED:          0 USEFUL:          0 USELESS:          0
cpu1_L1D AVERAGE MISS LATENCY: 73.11 cycles
cpu1_L1D TOTAL        ACCESS:  162374595 HIT:   89890141 MISS:   72484454
cpu1_L1D LOAD         ACCESS:   90920705 HIT:   22286009 MISS:   68634696
cpu1_L1D RFO          ACCESS:          0 HIT:          0 MISS:          0
cpu1_L1D PREFETCH     ACCESS:          0 HIT:          0 MISS:          0
cpu1_L1D WRITE        ACCESS:   71335521 HIT:   67603063 MISS:    3732458
cpu1_L1D TRANSLATION  ACCESS:     118369 HIT:       1069 MISS:     117300
cpu1_L1D PREFETCH REQUESTED:          0 ISSUED:          0 USEFUL:          0 USELESS:          0
cpu1_L1D AVERAGE MISS LATENCY: 73.11 cycles
cpu1_L1D TOTAL        ACCESS:          0 HIT:          0 MISS:          0
cpu1_L1D LOAD         ACCESS:          0 HIT:          0 MISS:          0
cpu1_L1D RFO          ACCESS:          0 HIT:          0 MISS:          0
cpu1_L1D PREFETCH     ACCESS:          0 HIT:          0 MISS:          0
cpu1_L1D WRITE        ACCESS:          0 HIT:          0 MISS:          0
cpu1_L1D TRANSLATION  ACCESS:          0 HIT:          0 MISS:          0
cpu1_L1D PREFETCH REQUESTED:          0 ISSUED:          0 USEFUL:          0 USELESS:          0
cpu1_L1D AVERAGE MISS LATENCY: 73.11 cycles
cpu1_L1D TOTAL        ACCESS:          0 HIT:          0 MISS:          0
cpu1_L1D LOAD         ACCESS:          0 HIT:          0 MISS:          0
cpu1_L1D RFO          ACCESS:          0 HIT:          0 MISS:          0
cpu1_L1D PREFETCH     ACCESS:          0 HIT:          0 MISS:          0
cpu1_L1D WRITE        ACCESS:          0 HIT:          0 MISS:          0
cpu1_L1D TRANSLATION  ACCESS:          0 HIT:          0 MISS:          0
cpu1_L1D PREFETCH REQUESTED:          0 ISSUED:          0 USEFUL:          0 USELESS:          0
cpu1_L1D AVERAGE MISS LATENCY: 73.11 cycles
cpu1_L1I TOTAL        ACCESS:          0 HIT:          0 MISS:          0
cpu1_L1I LOAD         ACCESS:          0 HIT:          0 MISS:          0
cpu1_L1I RFO          ACCESS:          0 HIT:          0 MISS:          0
cpu1_L1I PREFETCH     ACCESS:          0 HIT:          0 MISS:          0
cpu1_L1I WRITE        ACCESS:          0 HIT:          0 MISS:          0
cpu1_L1I TRANSLATION  ACCESS:          0 HIT:          0 MISS:          0
cpu1_L1I PREFETCH REQUESTED:          0 ISSUED:          0 USEFUL:          0 USELESS:          0
cpu1_L1I AVERAGE MISS LATENCY: 13.34 cycles
cpu1_L1I TOTAL        ACCESS:  106576256 HIT:  106499329 MISS:      76927
cpu1_L1I LOAD         ACCESS:  106576256 HIT:  106499329 MISS:      76927
cpu1_L1I RFO          ACCESS:          0 HIT:          0 MISS:          0
cpu1_L1I PREFETCH     ACCESS:          0 HIT:          0 MISS:          0
cpu1_L1I WRITE        ACCESS:          0 HIT:          0 MISS:          0
cpu1_L1I TRANSLATION  ACCESS:          0 HIT:          0 MISS:          0
cpu1_L1I PREFETCH REQUESTED:          0 ISSUED:          0 USEFUL:          0 USELESS:          0
cpu1_L1I AVERAGE MISS LATENCY: 13.34 cycles
cpu1_L1I TOTAL        ACCESS:          0 HIT:          0 MISS:          0
cpu1_L1I LOAD         ACCESS:          0 HIT:          0 MISS:          0
cpu1_L1I RFO          ACCESS:          0 HIT:          0 MISS:          0
cpu1_L1I PREFETCH     ACCESS:          0 HIT:          0 MISS:          0
cpu1_L1I WRITE        ACCESS:          0 HIT:          0 MISS:          0
cpu1_L1I TRANSLATION  ACCESS:          0 HIT:          0 MISS:          0
cpu1_L1I PREFETCH REQUESTED:          0 ISSUED:          0 USEFUL:          0 USELESS:          0
cpu1_L1I AVERAGE MISS LATENCY: 13.34 cycles
cpu1_L1I TOTAL        ACCESS:          0 HIT:          0 MISS:          0
cpu1_L1I LOAD         ACCESS:          0 HIT:          0 MISS:          0
cpu1_L1I RFO          ACCESS:          0 HIT:          0 MISS:          0
cpu1_L1I PREFETCH     ACCESS:          0 HIT:          0 MISS:          0
cpu1_L1I WRITE        ACCESS:          0 HIT:          0 MISS:          0
cpu1_L1I TRANSLATION  ACCESS:          0 HIT:          0 MISS:          0
cpu1_L1I PREFETCH REQUESTED:          0 ISSUED:          0 USEFUL:          0 USELESS:          0
cpu1_L1I AVERAGE MISS LATENCY: 13.34 cycles
cpu1_L2C TOTAL        ACCESS:          0 HIT:          0 MISS:          0
cpu1_L2C LOAD         ACCESS:          0 HIT:          0 MISS:          0
cpu1_L2C RFO          ACCESS:          0 HIT:          0 MISS:          0
cpu1_L2C PREFETCH     ACCESS:          0 HIT:          0 MISS:          0
cpu1_L2C WRITE        ACCESS:          0 HIT:          0 MISS:          0
cpu1_L2C TRANSLATION  ACCESS:          0 HIT:          0 MISS:          0
cpu1_L2C PREFETCH REQUESTED:   61872604 ISSUED:   61360661 USEFUL:     882530 USELESS:      14449
cpu1_L2C AVERAGE MISS LATENCY: 178.9 cycles
cpu1_L2C TOTAL        ACCESS:  137734718 HIT:  108607616 MISS:   29127102
cpu1_L2C LOAD         ACCESS:   68044362 HIT:   62835451 MISS:    5208911
cpu1_L2C RFO          ACCESS:    2787736 HIT:    2776215 MISS:      11521
cpu1_L2C PREFETCH     ACCESS:   61360661 HIT:   37549356 MISS:   23811305
cpu1_L2C WRITE        ACCESS:    5424748 HIT:    5424722 MISS:         26
cpu1_L2C TRANSLATION  ACCESS:     117211 HIT:      21872 MISS:      95339
cpu1_L2C PREFETCH REQUESTED:   61872604 ISSUED:   61360661 USEFUL:     882530 USELESS:      14449
cpu1_L2C AVERAGE MISS LATENCY: 178.9 cycles
cpu1_L2C TOTAL        ACCESS:          0 HIT:          0 MISS:          0
cpu1_L2C LOAD         ACCESS:          0 HIT:          0 MISS:          0
cpu1_L2C RFO          ACCESS:          0 HIT:          0 MISS:          0
cpu1_L2C PREFETCH     ACCESS:          0 HIT:          0 MISS:          0
cpu1_L2C WRITE        ACCESS:          0 HIT:          0 MISS:          0
cpu1_L2C TRANSLATION  ACCESS:          0 HIT:          0 MISS:          0
cpu1_L2C PREFETCH REQUESTED:   61872604 ISSUED:   61360661 USEFUL:     882530 USELESS:      14449
cpu1_L2C AVERAGE MISS LATENCY: 178.9 cycles
cpu1_L2C TOTAL        ACCESS:          0 HIT:          0 MISS:          0
cpu1_L2C LOAD         ACCESS:          0 HIT:          0 MISS:          0
cpu1_L2C RFO          ACCESS:          0 HIT:          0 MISS:          0
cpu1_L2C PREFETCH     ACCESS:          0 HIT:          0 MISS:          0
cpu1_L2C WRITE        ACCESS:          0 HIT:          0 MISS:          0
cpu1_L2C TRANSLATION  ACCESS:          0 HIT:          0 MISS:          0
cpu1_L2C PREFETCH REQUESTED:   61872604 ISSUED:   61360661 USEFUL:     882530 USELESS:      14449
cpu1_L2C AVERAGE MISS LATENCY: 178.9 cycles
cpu1_STLB TOTAL        ACCESS:          0 HIT:          0 MISS:          0
cpu1_STLB LOAD         ACCESS:          0 HIT:          0 MISS:          0
cpu1_STLB RFO          ACCESS:          0 HIT:          0 MISS:          0
cpu1_STLB PREFETCH     ACCESS:          0 HIT:          0 MISS:          0
cpu1_STLB WRITE        ACCESS:          0 HIT:          0 MISS:          0
cpu1_STLB TRANSLATION  ACCESS:          0 HIT:          0 MISS:          0
cpu1_STLB PREFETCH REQUESTED:          0 ISSUED:          0 USEFUL:          0 USELESS:          0
cpu1_STLB AVERAGE MISS LATENCY: 1973 cycles
cpu1_STLB TOTAL        ACCESS:   47076857 HIT:   47000637 MISS:      76220
cpu1_STLB LOAD         ACCESS:   47076857 HIT:   47000637 MISS:      76220
cpu1_STLB RFO          ACCESS:          0 HIT:          0 MISS:          0
cpu1_STLB PREFETCH     ACCESS:          0 HIT:          0 MISS:          0
cpu1_STLB WRITE        ACCESS:          0 HIT:          0 MISS:          0
cpu1_STLB TRANSLATION  ACCESS:          0 HIT:          0 MISS:          0
cpu1_STLB PREFETCH REQUESTED:          0 ISSUED:          0 USEFUL:          0 USELESS:          0
cpu1_STLB AVERAGE MISS LATENCY: 1973 cycles
cpu1_STLB TOTAL        ACCESS:          0 HIT:          0 MISS:          0
cpu1_STLB LOAD         ACCESS:          0 HIT:          0 MISS:          0
cpu1_STLB RFO          ACCESS:          0 HIT:          0 MISS:          0
cpu1_STLB PREFETCH     ACCESS:          0 HIT:          0 MISS:          0
cpu1_STLB WRITE        ACCESS:          0 HIT:          0 MISS:          0
cpu1_STLB TRANSLATION  ACCESS:          0 HIT:          0 MISS:          0
cpu1_STLB PREFETCH REQUESTED:          0 ISSUED:          0 USEFUL:          0 USELESS:          0
cpu1_STLB AVERAGE MISS LATENCY: 1973 cycles
cpu1_STLB TOTAL        ACCESS:          0 HIT:          0 MISS:          0
cpu1_STLB LOAD         ACCESS:          0 HIT:          0 MISS:          0
cpu1_STLB RFO          ACCESS:          0 HIT:          0 MISS:          0
cpu1_STLB PREFETCH     ACCESS:          0 HIT:          0 MISS:          0
cpu1_STLB WRITE        ACCESS:          0 HIT:          0 MISS:          0
cpu1_STLB TRANSLATION  ACCESS:          0 HIT:          0 MISS:          0
cpu1_STLB PREFETCH REQUESTED:          0 ISSUED:          0 USEFUL:          0 USELESS:          0
cpu1_STLB AVERAGE MISS LATENCY: 1973 cycles
cpu2_DTLB TOTAL        ACCESS:          0 HIT:          0 MISS:          0
cpu2_DTLB LOAD         ACCESS:          0 HIT:          0 MISS:          0
cpu2_DTLB RFO          ACCESS:          0 HIT:          0 MISS:          0
cpu2_DTLB PREFETCH     ACCESS:          0 HIT:          0 MISS:          0
cpu2_DTLB WRITE        ACCESS:          0 HIT:          0 MISS:          0
cpu2_DTLB TRANSLATION  ACCESS:          0 HIT:          0 MISS:          0
cpu2_DTLB PREFETCH REQUESTED:          0 ISSUED:          0 USEFUL:          0 USELESS:          0
cpu2_DTLB AVERAGE MISS LATENCY: 16.83 cycles
cpu2_DTLB TOTAL        ACCESS:          0 HIT:          0 MISS:          0
cpu2_DTLB LOAD         ACCESS:          0 HIT:          0 MISS:          0
cpu2_DTLB RFO          ACCESS:          0 HIT:          0 MISS:          0
cpu2_DTLB PREFETCH     ACCESS:          0 HIT:          0 MISS:          0
cpu2_DTLB WRITE        ACCESS:          0 HIT:          0 MISS:          0
cpu2_DTLB TRANSLATION  ACCESS:          0 HIT:          0 MISS:          0
cpu2_DTLB PREFETCH REQUESTED:          0 ISSUED:          0 USEFUL:          0 USELESS:          0
cpu2_DTLB AVERAGE MISS LATENCY: 16.83 cycles
cpu2_DTLB TOTAL        ACCESS:  117180335 HIT:  115998394 MISS:    1181941
cpu2_DTLB LOAD         ACCESS:  117180335 HIT:  115998394 MISS:    1181941
cpu2_DTLB RFO          ACCESS:          0 HIT:          0 MISS:          0
cpu2_DTLB PREFETCH     ACCESS:          0 HIT:          0 MISS:          0
cpu2_DTLB WRITE        ACCESS:          0 HIT:          0 MISS:          0
cpu2_DTLB TRANSLATION  ACCESS:          0 HIT:          0 MISS:          0
cpu2_DTLB PREFETCH REQUESTED:          0 ISSUED:          0 USEFUL:          0 USELESS:          0
cpu2_DTLB AVERAGE MISS LATENCY: 16.83 cycles
cpu2_DTLB TOTAL        ACCESS:          0 HIT:          0 MISS:          0
cpu2_DTLB LOAD         ACCESS:          0 HIT:          0 MISS:          0
cpu2_DTLB RFO          ACCESS:          0 HIT:          0 MISS:          0
cpu2_DTLB PREFETCH     ACCESS:          0 HIT:          0 MISS:          0
cpu2_DTLB WRITE        ACCESS:          0 HIT:          0 MISS:          0
cpu2_DTLB TRANSLATION  ACCESS:          0 HIT:          0 MISS:          0
cpu2_DTLB PREFETCH REQUESTED:          0 ISSUED:          0 USEFUL:          0 USELESS:          0
cpu2_DTLB AVERAGE MISS LATENCY: 16.83 cycles
cpu2_ITLB TOTAL        ACCESS:          0 HIT:          0 MISS:          0
cpu2_ITLB LOAD         ACCESS:          0 HIT:          0 MISS:          0
cpu2_ITLB RFO          ACCESS:          0 HIT:          0 MISS:          0
cpu2_ITLB PREFETCH     ACCESS:          0 HIT:          0 MISS:          0
cpu2_ITLB WRITE        ACCESS:          0 HIT:          0 MISS:          0
cpu2_ITLB TRANSLATION  ACCESS:          0 HIT:          0 MISS:          0
cpu2_ITLB PREFETCH REQUESTED:          0 ISSUED:          0 USEFUL:          0 USELESS:          0
cpu2_ITLB AVERAGE MISS LATENCY: 128.6 cycles
cpu2_ITLB TOTAL        ACCESS:          0 HIT:          0 MISS:          0
cpu2_ITLB LOAD         ACCESS:          0 HIT:          0 MISS:          0
cpu2_ITLB RFO          ACCESS:          0 HIT:          0 MISS:          0
cpu2_ITLB PREFETCH     ACCESS:          0 HIT:          0 MISS:          0
cpu2_ITLB WRITE        ACCESS:          0 HIT:          0 MISS:          0
cpu2_ITLB TRANSLATION  ACCESS:          0 HIT:          0 MISS:          0
cpu2_ITLB PREFETCH REQUESTED:          0 ISSUED:          0 USEFUL:          0 USELESS:          0
cpu2_ITLB AVERAGE MISS LATENCY: 128.6 cycles
cpu2_ITLB TOTAL        ACCESS:   16556572 HIT:   16538014 MISS:      18558
cpu2_ITLB LOAD         ACCESS:   16556572 HIT:   16538014 MISS:      18558
cpu2_ITLB RFO          ACCESS:          0 HIT:          0 MISS:          0
cpu2_ITLB PREFETCH     ACCESS:          0 HIT:          0 MISS:          0
cpu2_ITLB WRITE        ACCESS:          0 HIT:          0 MISS:          0
cpu2_ITLB TRANSLATION  ACCESS:          0 HIT:          0 MISS:          0
cpu2_ITLB PREFETCH REQUESTED:          0 ISSUED:          0 USEFUL:          0 USELESS:          0
cpu2_ITLB AVERAGE MISS LATENCY: 128.6 cycles
cpu2_ITLB TOTAL        ACCESS:          0 HIT:          0 MISS:          0
cpu2_ITLB LOAD         ACCESS:          0 HIT:          0 MISS:          0
cpu2_ITLB RFO          ACCESS:          0 HIT:          0 MISS:          0
cpu2_ITLB PREFETCH     ACCESS:          0 HIT:          0 MISS:          0
cpu2_ITLB WRITE        ACCESS:          0 HIT:          0 MISS:          0
cpu2_ITLB TRANSLATION  ACCESS:          0 HIT:          0 MISS:          0
cpu2_ITLB PREFETCH REQUESTED:          0 ISSUED:          0 USEFUL:          0 USELESS:          0
cpu2_ITLB AVERAGE MISS LATENCY: 128.6 cycles
cpu2_L1D TOTAL        ACCESS:          0 HIT:          0 MISS:          0
cpu2_L1D LOAD         ACCESS:          0 HIT:          0 MISS:          0
cpu2_L1D RFO          ACCESS:          0 HIT:          0 MISS:          0
cpu2_L1D PREFETCH     ACCESS:          0 HIT:          0 MISS:          0
cpu2_L1D WRITE        ACCESS:          0 HIT:          0 MISS:          0
cpu2_L1D TRANSLATION  ACCESS:          0 HIT:          0 MISS:          0
cpu2_L1D PREFETCH REQUESTED:          0 ISSUED:          0 USEFUL:          0 USELESS:          0
cpu2_L1D AVERAGE MISS LATENCY: 480.3 cycles
cpu2_L1D TOTAL        ACCESS:          0 HIT:          0 MISS:          0
cpu2_L1D LOAD         ACCESS:          0 HIT:          0 MISS:          0
cpu2_L1D RFO          ACCESS:          0 HIT:          0 MISS:          0
cpu2_L1D PREFETCH     ACCESS:          0 HIT:          0 MISS:          0
cpu2_L1D WRITE        ACCESS:          0 HIT:          0 MISS:          0
cpu2_L1D TRANSLATION  ACCESS:          0 HIT:          0 MISS:          0
cpu2_L1D PREFETCH REQUESTED:          0 ISSUED:          0 USEFUL:          0 USELESS:          0
cpu2_L1D AVERAGE MISS LATENCY: 480.3 cycles
cpu2_L1D TOTAL        ACCESS:  154570804 HIT:  131171578 MISS:   23399226
cpu2_L1D LOAD         ACCESS:   74700820 HIT:   70939093 MISS:    3761727
cpu2_L1D RFO          ACCESS:          0 HIT:          0 MISS:          0
cpu2_L1D PREFETCH     ACCESS:          0 HIT:          0 MISS:          0
cpu2_L1D WRITE        ACCESS:   79790574 HIT:   60171675 MISS:   19618899
cpu2_L1D TRANSLATION  ACCESS:      79410 HIT:      60810 MISS:      18600
cpu2_L1D PREFETCH REQUESTED:          0 ISSUED:          0 USEFUL:          0 USELESS:          0
cpu2_L1D AVERAGE MISS LATENCY: 480.3 cycles
cpu2_L1D TOTAL        ACCESS:          0 HIT:          0 MISS:          0
cpu2_L1D LOAD         ACCESS:          0 HIT:          0 MISS:          0
cpu2_L1D RFO          ACCESS:          0 HIT:          0 MISS:          0
cpu2_L1D PREFETCH     ACCESS:          0 HIT:          0 MISS:          0
cpu2_L1D WRITE        ACCESS:          0 HIT:          0 MISS:          0
cpu2_L1D TRANSLATION  ACCESS:          0 HIT:          0 MISS:          0
cpu2_L1D PREFETCH REQUESTED:          0 ISSUED:          0 USEFUL:          0 USELESS:          0
cpu2_L1D AVERAGE MISS LATENCY: 480.3 cycles
cpu2_L1I TOTAL        ACCESS:          0 HIT:          0 MISS:          0
cpu2_L1I LOAD         ACCESS:          0 HIT:          0 MISS:          0
cpu2_L1I RFO          ACCESS:          0 HIT:          0 MISS:          0
cpu2_L1I PREFETCH     ACCESS:          0 HIT:          0 MISS:          0
cpu2_L1I WRITE        ACCESS:          0 HIT:          0 MISS:          0
cpu2_L1I TRANSLATION  ACCESS:          0 HIT:          0 MISS:          0
cpu2_L1I PREFETCH REQUESTED:          0 ISSUED:          0 USEFUL:          0 USELESS:          0
cpu2_L1I AVERAGE MISS LATENCY: 176.7 cycles
cpu2_L1I TOTAL        ACCESS:          0 HIT:          0 MISS:          0
cpu2_L1I LOAD         ACCESS:          0 HIT:          0 MISS:          0
cpu2_L1I RFO          ACCESS:          0 HIT:          0 MISS:          0
cpu2_L1I PREFETCH     ACCESS:          0 HIT:          0 MISS:          0
cpu2_L1I WRITE        ACCESS:          0 HIT:          0 MISS:          0
cpu2_L1I TRANSLATION  ACCESS:          0 HIT:          0 MISS:          0
cpu2_L1I PREFETCH REQUESTED:          0 ISSUED:          0 USEFUL:          0 USELESS:          0
cpu2_L1I AVERAGE MISS LATENCY: 176.7 cycles
cpu2_L1I TOTAL        ACCESS:   20875374 HIT:   20424104 MISS:     451270
cpu2_L1I LOAD         ACCESS:   20875374 HIT:   20424104 MISS:     451270
cpu2_L1I RFO          ACCESS:          0 HIT:          0 MISS:          0
cpu2_L1I PREFETCH     ACCESS:          0 HIT:          0 MISS:          0
cpu2_L1I WRITE        ACCESS:          0 HIT:          0 MISS:          0
cpu2_L1I TRANSLATION  ACCESS:          0 HIT:          0 MISS:          0
cpu2_L1I PREFETCH REQUESTED:          0 ISSUED:          0 USEFUL:          0 USELESS:          0
cpu2_L1I AVERAGE MISS LATENCY: 176.7 cycles
cpu2_L1I TOTAL        ACCESS:          0 HIT:          0 MISS:          0
cpu2_L1I LOAD         ACCESS:          0 HIT:          0 MISS:          0
cpu2_L1I RFO          ACCESS:          0 HIT:          0 MISS:          0
cpu2_L1I PREFETCH     ACCESS:          0 HIT:          0 MISS:          0
cpu2_L1I WRITE        ACCESS:          0 HIT:          0 MISS:          0
cpu2_L1I TRANSLATION  ACCESS:          0 HIT:          0 MISS:          0
cpu2_L1I PREFETCH REQUESTED:          0 ISSUED:          0 USEFUL:          0 USELESS:          0
cpu2_L1I AVERAGE MISS LATENCY: 176.7 cycles
cpu2_L2C TOTAL        ACCESS:          0 HIT:          0 MISS:          0
cpu2_L2C LOAD         ACCESS:          0 HIT:          0 MISS:          0
cpu2_L2C RFO          ACCESS:          0 HIT:          0 MISS:          0
cpu2_L2C PREFETCH     ACCESS:          0 HIT:          0 MISS:          0
cpu2_L2C WRITE        ACCESS:          0 HIT:          0 MISS:          0
cpu2_L2C TRANSLATION  ACCESS:          0 HIT:          0 MISS:          0
cpu2_L2C PREFETCH REQUESTED:   10199135 ISSUED:    6843466 USEFUL:      40911 USELESS:       3475
cpu2_L2C AVERAGE MISS LATENCY: 1985 cycles
cpu2_L2C TOTAL        ACCESS:          0 HIT:          0 MISS:          0
cpu2_L2C LOAD         ACCESS:          0 HIT:          0 MISS:          0
cpu2_L2C RFO          ACCESS:          0 HIT:          0 MISS:          0
cpu2_L2C PREFETCH     ACCESS:          0 HIT:          0 MISS:          0
cpu2_L2C WRITE        ACCESS:          0 HIT:          0 MISS:          0
cpu2_L2C TRANSLATION  ACCESS:          0 HIT:          0 MISS:          0
cpu2_L2C PREFETCH REQUESTED:   10199135 ISSUED:    6843466 USEFUL:      40911 USELESS:       3475
cpu2_L2C AVERAGE MISS LATENCY: 1985 cycles
cpu2_L2C TOTAL        ACCESS:   20062976 HIT:   14351271 MISS:    5711705
cpu2_L2C LOAD         ACCESS:    2871033 HIT:    2328574 MISS:     542459
cpu2_L2C RFO          ACCESS:    4990060 HIT:    1085858 MISS:    3904202
cpu2_L2C PREFETCH     ACCESS:    6843466 HIT:    5591832 MISS:    1251634
cpu2_L2C WRITE        ACCESS:    5339996 HIT:    5339540 MISS:        456
cpu2_L2C TRANSLATION  ACCESS:      18421 HIT:       5467 MISS:      12954
cpu2_L2C PREFETCH REQUESTED:   10199135 ISSUED:    6843466 USEFUL:      40911 USELESS:       3475
[...]
cpu2_L1I PREFETCH REQUESTED:          0 ISSUED:          0 USEFUL:          0 USELESS:          0
cpu2_L1I AVERAGE MISS LATENCY: 176.7 cycles
cpu2_L1I TOTAL        ACCESS:          0 HIT:          0 MISS:          0
cpu2_L1I LOAD         ACCESS:          0 HIT:          0 MISS:          0
cpu2_L1I RFO          ACCESS:          0 HIT:          0 MISS:          0
cpu2_L1I PREFETCH     ACCESS:          0 HIT:          0 MISS:          0
cpu2_L1I WRITE        ACCESS:          0 HIT:          0 MISS:          0
cpu2_L1I TRANSLATION  ACCESS:          0 HIT:          0 MISS:          0
cpu2_L1I PREFETCH REQUESTED:          0 ISSUED:          0 USEFUL:          0 USELESS:          0
cpu2_L1I AVERAGE MISS LATENCY: 176.7 cycles
cpu2_L2C TOTAL        ACCESS:          0 HIT:          0 MISS:          0
cpu2_L2C LOAD         ACCESS:          0 HIT:          0 MISS:          0
cpu2_L2C RFO          ACCESS:          0 HIT:          0 MISS:          0
cpu2_L2C PREFETCH     ACCESS:          0 HIT:          0 MISS:          0
cpu2_L2C WRITE        ACCESS:          0 HIT:          0 MISS:          0
cpu2_L2C TRANSLATION  ACCESS:          0 HIT:          0 MISS:          0
cpu2_L2C PREFETCH REQUESTED:   10199135 ISSUED:    6843466 USEFUL:      40911 USELESS:       3475
cpu2_L2C AVERAGE MISS LATENCY: 1985 cycles
cpu2_L2C TOTAL        ACCESS:          0 HIT:          0 MISS:          0
cpu2_L2C LOAD         ACCESS:          0 HIT:          0 MISS:          0
cpu2_L2C RFO          ACCESS:          0 HIT:          0 MISS:          0
cpu2_L2C PREFETCH     ACCESS:          0 HIT:          0 MISS:          0
cpu2_L2C WRITE        ACCESS:          0 HIT:          0 MISS:          0
cpu2_L2C TRANSLATION  ACCESS:          0 HIT:          0 MISS:          0
cpu2_L2C PREFETCH REQUESTED:   10199135 ISSUED:    6843466 USEFUL:      40911 USELESS:       3475
cpu2_L2C AVERAGE MISS LATENCY: 1985 cycles
cpu2_L2C TOTAL        ACCESS:    4582645 HIT:    3230222 MISS:    1352423
cpu2_L2C LOAD         ACCESS:     590051 HIT:     475314 MISS:     114737
cpu2_L2C RFO          ACCESS:    1187203 HIT:     216286 MISS:     970917
cpu2_L2C PREFETCH     ACCESS:    1537030 HIT:    1273435 MISS:     263595
cpu2_L2C WRITE        ACCESS:    1264145 HIT:    1264034 MISS:        111
cpu2_L2C TRANSLATION  ACCESS:       4216 HIT:       1153 MISS:       3063
cpu2_L2C PREFETCH REQUESTED:   10199135 ISSUED:    6843466 USEFUL:      40911 USELESS:       3475
cpu2_L2C AVERAGE MISS LATENCY: 1985 cycles
cpu2_L2C TOTAL        ACCESS:          0 HIT:          0 MISS:          0
cpu2_L2C LOAD         ACCESS:          0 HIT:          0 MISS:          0
cpu2_L2C RFO          ACCESS:          0 HIT:          0 MISS:          0
cpu2_L2C PREFETCH     ACCESS:          0 HIT:          0 MISS:          0
cpu2_L2C WRITE        ACCESS:          0 HIT:          0 MISS:          0
cpu2_L2C TRANSLATION  ACCESS:          0 HIT:          0 MISS:          0
cpu2_L2C PREFETCH REQUESTED:   10199135 ISSUED:    6843466 USEFUL:      40911 USELESS:       3475
cpu2_L2C AVERAGE MISS LATENCY: 1985 cycles
cpu2_STLB TOTAL        ACCESS:          0 HIT:          0 MISS:          0
cpu2_STLB LOAD         ACCESS:          0 HIT:          0 MISS:          0
cpu2_STLB RFO          ACCESS:          0 HIT:          0 MISS:          0
cpu2_STLB PREFETCH     ACCESS:          0 HIT:          0 MISS:          0
cpu2_STLB WRITE        ACCESS:          0 HIT:          0 MISS:          0
cpu2_STLB TRANSLATION  ACCESS:          0 HIT:          0 MISS:          0
cpu2_STLB PREFETCH REQUESTED:          0 ISSUED:          0 USEFUL:          0 USELESS:          0
cpu2_STLB AVERAGE MISS LATENCY: 287.8 cycles
cpu2_STLB TOTAL        ACCESS:          0 HIT:          0 MISS:          0
cpu2_STLB LOAD         ACCESS:          0 HIT:          0 MISS:          0
cpu2_STLB RFO          ACCESS:          0 HIT:          0 MISS:          0
cpu2_STLB PREFETCH     ACCESS:          0 HIT:          0 MISS:          0
cpu2_STLB WRITE        ACCESS:          0 HIT:          0 MISS:          0
cpu2_STLB TRANSLATION  ACCESS:          0 HIT:          0 MISS:          0
cpu2_STLB PREFETCH REQUESTED:          0 ISSUED:          0 USEFUL:          0 USELESS:          0
cpu2_STLB AVERAGE MISS LATENCY: 287.8 cycles
cpu2_STLB TOTAL        ACCESS:     100584 HIT:      81500 MISS:      19084
cpu2_STLB LOAD         ACCESS:     100584 HIT:      81500 MISS:      19084
cpu2_STLB RFO          ACCESS:          0 HIT:          0 MISS:          0
cpu2_STLB PREFETCH     ACCESS:          0 HIT:          0 MISS:          0
cpu2_STLB WRITE        ACCESS:          0 HIT:          0 MISS:          0
cpu2_STLB TRANSLATION  ACCESS:          0 HIT:          0 MISS:          0
cpu2_STLB PREFETCH REQUESTED:          0 ISSUED:          0 USEFUL:          0 USELESS:          0
cpu2_STLB AVERAGE MISS LATENCY: 287.8 cycles
cpu2_STLB TOTAL        ACCESS:          0 HIT:          0 MISS:          0
cpu2_STLB LOAD         ACCESS:          0 HIT:          0 MISS:          0
cpu2_STLB RFO          ACCESS:          0 HIT:          0 MISS:          0
cpu2_STLB PREFETCH     ACCESS:          0 HIT:          0 MISS:          0
cpu2_STLB WRITE        ACCESS:          0 HIT:          0 MISS:          0
cpu2_STLB TRANSLATION  ACCESS:          0 HIT:          0 MISS:          0
cpu2_STLB PREFETCH REQUESTED:          0 ISSUED:          0 USEFUL:          0 USELESS:          0
cpu2_STLB AVERAGE MISS LATENCY: 287.8 cycles
cpu3_DTLB TOTAL        ACCESS:          0 HIT:          0 MISS:          0
cpu3_DTLB LOAD         ACCESS:          0 HIT:          0 MISS:          0
cpu3_DTLB RFO          ACCESS:          0 HIT:          0 MISS:          0
cpu3_DTLB PREFETCH     ACCESS:          0 HIT:          0 MISS:          0
cpu3_DTLB WRITE        ACCESS:          0 HIT:          0 MISS:          0
cpu3_DTLB TRANSLATION  ACCESS:          0 HIT:          0 MISS:          0
cpu3_DTLB PREFETCH REQUESTED:          0 ISSUED:          0 USEFUL:          0 USELESS:          0
cpu3_DTLB AVERAGE MISS LATENCY: 10.43 cycles
cpu3_DTLB TOTAL        ACCESS:          0 HIT:          0 MISS:          0
cpu3_DTLB LOAD         ACCESS:          0 HIT:          0 MISS:          0
cpu3_DTLB RFO          ACCESS:          0 HIT:          0 MISS:          0
cpu3_DTLB PREFETCH     ACCESS:          0 HIT:          0 MISS:          0
cpu3_DTLB WRITE        ACCESS:          0 HIT:          0 MISS:          0
cpu3_DTLB TRANSLATION  ACCESS:          0 HIT:          0 MISS:          0
cpu3_DTLB PREFETCH REQUESTED:          0 ISSUED:          0 USEFUL:          0 USELESS:          0
cpu3_DTLB AVERAGE MISS LATENCY: 10.43 cycles
cpu3_DTLB TOTAL        ACCESS:          0 HIT:          0 MISS:          0
cpu3_DTLB LOAD         ACCESS:          0 HIT:          0 MISS:          0
cpu3_DTLB RFO          ACCESS:          0 HIT:          0 MISS:          0
cpu3_DTLB PREFETCH     ACCESS:          0 HIT:          0 MISS:          0
cpu3_DTLB WRITE        ACCESS:          0 HIT:          0 MISS:          0
cpu3_DTLB TRANSLATION  ACCESS:          0 HIT:          0 MISS:          0
cpu3_DTLB PREFETCH REQUESTED:          0 ISSUED:          0 USEFUL:          0 USELESS:          0
cpu3_DTLB AVERAGE MISS LATENCY: 10.43 cycles
cpu3_DTLB TOTAL        ACCESS:   17931981 HIT:   17920885 MISS:      11096
cpu3_DTLB LOAD         ACCESS:   17931981 HIT:   17920885 MISS:      11096
cpu3_DTLB RFO          ACCESS:          0 HIT:          0 MISS:          0
cpu3_DTLB PREFETCH     ACCESS:          0 HIT:          0 MISS:          0
cpu3_DTLB WRITE        ACCESS:          0 HIT:          0 MISS:          0
cpu3_DTLB TRANSLATION  ACCESS:          0 HIT:          0 MISS:          0
cpu3_DTLB PREFETCH REQUESTED:          0 ISSUED:          0 USEFUL:          0 USELESS:          0
cpu3_DTLB AVERAGE MISS LATENCY: 10.43 cycles
cpu3_ITLB TOTAL        ACCESS:          0 HIT:          0 MISS:          0
cpu3_ITLB LOAD         ACCESS:          0 HIT:          0 MISS:          0
cpu3_ITLB RFO          ACCESS:          0 HIT:          0 MISS:          0
cpu3_ITLB PREFETCH     ACCESS:          0 HIT:          0 MISS:          0
cpu3_ITLB WRITE        ACCESS:          0 HIT:          0 MISS:          0
cpu3_ITLB TRANSLATION  ACCESS:          0 HIT:          0 MISS:          0
cpu3_ITLB PREFETCH REQUESTED:          0 ISSUED:          0 USEFUL:          0 USELESS:          0
cpu3_ITLB AVERAGE MISS LATENCY: 1042 cycles
cpu3_ITLB TOTAL        ACCESS:          0 HIT:          0 MISS:          0
cpu3_ITLB LOAD         ACCESS:          0 HIT:          0 MISS:          0
cpu3_ITLB RFO          ACCESS:          0 HIT:          0 MISS:          0
cpu3_ITLB PREFETCH     ACCESS:          0 HIT:          0 MISS:          0
cpu3_ITLB WRITE        ACCESS:          0 HIT:          0 MISS:          0
cpu3_ITLB TRANSLATION  ACCESS:          0 HIT:          0 MISS:          0
cpu3_ITLB PREFETCH REQUESTED:          0 ISSUED:          0 USEFUL:          0 USELESS:          0
cpu3_ITLB AVERAGE MISS LATENCY: 1042 cycles
cpu3_ITLB TOTAL        ACCESS:          0 HIT:          0 MISS:          0
cpu3_ITLB LOAD         ACCESS:          0 HIT:          0 MISS:          0
cpu3_ITLB RFO          ACCESS:          0 HIT:          0 MISS:          0
cpu3_ITLB PREFETCH     ACCESS:          0 HIT:          0 MISS:          0
cpu3_ITLB WRITE        ACCESS:          0 HIT:          0 MISS:          0
cpu3_ITLB TRANSLATION  ACCESS:          0 HIT:          0 MISS:          0
cpu3_ITLB PREFETCH REQUESTED:          0 ISSUED:          0 USEFUL:          0 USELESS:          0
cpu3_ITLB AVERAGE MISS LATENCY: 1042 cycles
cpu3_ITLB TOTAL        ACCESS:     512343 HIT:     512343 MISS:          0
cpu3_ITLB LOAD         ACCESS:     512343 HIT:     512343 MISS:          0
cpu3_ITLB RFO          ACCESS:          0 HIT:          0 MISS:          0
cpu3_ITLB PREFETCH     ACCESS:          0 HIT:          0 MISS:          0
cpu3_ITLB WRITE        ACCESS:          0 HIT:          0 MISS:          0
cpu3_ITLB TRANSLATION  ACCESS:          0 HIT:          0 MISS:          0
cpu3_ITLB PREFETCH REQUESTED:          0 ISSUED:          0 USEFUL:          0 USELESS:          0
cpu3_ITLB AVERAGE MISS LATENCY: 1042 cycles
cpu3_L1D TOTAL        ACCESS:          0 HIT:          0 MISS:          0
cpu3_L1D LOAD         ACCESS:          0 HIT:          0 MISS:          0
cpu3_L1D RFO          ACCESS:          0 HIT:          0 MISS:          0
cpu3_L1D PREFETCH     ACCESS:          0 HIT:          0 MISS:          0
cpu3_L1D WRITE        ACCESS:          0 HIT:          0 MISS:          0
cpu3_L1D TRANSLATION  ACCESS:          0 HIT:          0 MISS:          0
cpu3_L1D PREFETCH REQUESTED:          0 ISSUED:          0 USEFUL:          0 USELESS:          0
cpu3_L1D AVERAGE MISS LATENCY: 171.4 cycles
cpu3_L1D TOTAL        ACCESS:          0 HIT:          0 MISS:          0
cpu3_L1D LOAD         ACCESS:          0 HIT:          0 MISS:          0
cpu3_L1D RFO          ACCESS:          0 HIT:          0 MISS:          0
cpu3_L1D PREFETCH     ACCESS:          0 HIT:          0 MISS:          0
cpu3_L1D WRITE        ACCESS:          0 HIT:          0 MISS:          0
cpu3_L1D TRANSLATION  ACCESS:          0 HIT:          0 MISS:          0
cpu3_L1D PREFETCH REQUESTED:          0 ISSUED:          0 USEFUL:          0 USELESS:          0
cpu3_L1D AVERAGE MISS LATENCY: 171.4 cycles
cpu3_L1D TOTAL        ACCESS:          0 HIT:          0 MISS:          0
cpu3_L1D LOAD         ACCESS:          0 HIT:          0 MISS:          0
cpu3_L1D RFO          ACCESS:          0 HIT:          0 MISS:          0
cpu3_L1D PREFETCH     ACCESS:          0 HIT:          0 MISS:          0
cpu3_L1D WRITE        ACCESS:          0 HIT:          0 MISS:          0
cpu3_L1D TRANSLATION  ACCESS:          0 HIT:          0 MISS:          0
cpu3_L1D PREFETCH REQUESTED:          0 ISSUED:          0 USEFUL:          0 USELESS:          0
cpu3_L1D AVERAGE MISS LATENCY: 171.4 cycles
cpu3_L1D TOTAL        ACCESS:   22021372 HIT:   22006088 MISS:      15284
cpu3_L1D LOAD         ACCESS:   16439251 HIT:   16436506 MISS:       2745
cpu3_L1D RFO          ACCESS:          0 HIT:          0 MISS:          0
cpu3_L1D PREFETCH     ACCESS:          0 HIT:          0 MISS:          0
cpu3_L1D WRITE        ACCESS:    5581953 HIT:    5569564 MISS:      12389
cpu3_L1D TRANSLATION  ACCESS:        168 HIT:         18 MISS:        150
cpu3_L1D PREFETCH REQUESTED:          0 ISSUED:          0 USEFUL:          0 USELESS:          0
cpu3_L1D AVERAGE MISS LATENCY: 171.4 cycles
cpu3_L1I TOTAL        ACCESS:          0 HIT:          0 MISS:          0
cpu3_L1I LOAD         ACCESS:          0 HIT:          0 MISS:          0
cpu3_L1I RFO          ACCESS:          0 HIT:          0 MISS:          0
cpu3_L1I PREFETCH     ACCESS:          0 HIT:          0 MISS:          0
cpu3_L1I WRITE        ACCESS:          0 HIT:          0 MISS:          0
cpu3_L1I TRANSLATION  ACCESS:          0 HIT:          0 MISS:          0
cpu3_L1I PREFETCH REQUESTED:          0 ISSUED:          0 USEFUL:          0 USELESS:          0
cpu3_L1I AVERAGE MISS LATENCY: 17.02 cycles
cpu3_L1I TOTAL        ACCESS:          0 HIT:          0 MISS:          0
cpu3_L1I LOAD         ACCESS:          0 HIT:          0 MISS:          0
cpu3_L1I RFO          ACCESS:          0 HIT:          0 MISS:          0
cpu3_L1I PREFETCH     ACCESS:          0 HIT:          0 MISS:          0
cpu3_L1I WRITE        ACCESS:          0 HIT:          0 MISS:          0
cpu3_L1I TRANSLATION  ACCESS:          0 HIT:          0 MISS:          0
cpu3_L1I PREFETCH REQUESTED:          0 ISSUED:          0 USEFUL:          0 USELESS:          0
cpu3_L1I AVERAGE MISS LATENCY: 17.02 cycles
cpu3_L1I TOTAL        ACCESS:          0 HIT:          0 MISS:          0
cpu3_L1I LOAD         ACCESS:          0 HIT:          0 MISS:          0
cpu3_L1I RFO          ACCESS:          0 HIT:          0 MISS:          0
cpu3_L1I PREFETCH     ACCESS:          0 HIT:          0 MISS:          0
cpu3_L1I WRITE        ACCESS:          0 HIT:          0 MISS:          0
cpu3_L1I TRANSLATION  ACCESS:          0 HIT:          0 MISS:          0
cpu3_L1I PREFETCH REQUESTED:          0 ISSUED:          0 USEFUL:          0 USELESS:          0
cpu3_L1I AVERAGE MISS LATENCY: 17.02 cycles
cpu3_L1I TOTAL        ACCESS:     570353 HIT:     568938 MISS:       1415
cpu3_L1I LOAD         ACCESS:     570353 HIT:     568938 MISS:       1415
cpu3_L1I RFO          ACCESS:          0 HIT:          0 MISS:          0
cpu3_L1I PREFETCH     ACCESS:          0 HIT:          0 MISS:          0
cpu3_L1I WRITE        ACCESS:          0 HIT:          0 MISS:          0
cpu3_L1I TRANSLATION  ACCESS:          0 HIT:          0 MISS:          0
cpu3_L1I PREFETCH REQUESTED:          0 ISSUED:          0 USEFUL:          0 USELESS:          0
cpu3_L1I AVERAGE MISS LATENCY: 17.02 cycles
cpu3_L2C TOTAL        ACCESS:          0 HIT:          0 MISS:          0
cpu3_L2C LOAD         ACCESS:          0 HIT:          0 MISS:          0
cpu3_L2C RFO          ACCESS:          0 HIT:          0 MISS:          0
cpu3_L2C PREFETCH     ACCESS:          0 HIT:          0 MISS:          0
cpu3_L2C WRITE        ACCESS:          0 HIT:          0 MISS:          0
cpu3_L2C TRANSLATION  ACCESS:          0 HIT:          0 MISS:          0
cpu3_L2C PREFETCH REQUESTED:    6276682 ISSUED:    6023101 USEFUL:      47747 USELESS:       1853
cpu3_L2C AVERAGE MISS LATENCY: 720 cycles
cpu3_L2C TOTAL        ACCESS:          0 HIT:          0 MISS:          0
cpu3_L2C LOAD         ACCESS:          0 HIT:          0 MISS:          0
cpu3_L2C RFO          ACCESS:          0 HIT:          0 MISS:          0
cpu3_L2C PREFETCH     ACCESS:          0 HIT:          0 MISS:          0
cpu3_L2C WRITE        ACCESS:          0 HIT:          0 MISS:          0
cpu3_L2C TRANSLATION  ACCESS:          0 HIT:          0 MISS:          0
cpu3_L2C PREFETCH REQUESTED:    6276682 ISSUED:    6023101 USEFUL:      47747 USELESS:       1853
cpu3_L2C AVERAGE MISS LATENCY: 720 cycles
cpu3_L2C TOTAL        ACCESS:          0 HIT:          0 MISS:          0
cpu3_L2C LOAD         ACCESS:          0 HIT:          0 MISS:          0
cpu3_L2C RFO          ACCESS:          0 HIT:          0 MISS:          0
cpu3_L2C PREFETCH     ACCESS:          0 HIT:          0 MISS:          0
cpu3_L2C WRITE        ACCESS:          0 HIT:          0 MISS:          0
cpu3_L2C TRANSLATION  ACCESS:          0 HIT:          0 MISS:          0
cpu3_L2C PREFETCH REQUESTED:    6276682 ISSUED:    6023101 USEFUL:      47747 USELESS:       1853
cpu3_L2C AVERAGE MISS LATENCY: 720 cycles
cpu3_L2C TOTAL        ACCESS:      11596 HIT:       5333 MISS:       6263
cpu3_L2C LOAD         ACCESS:       2777 HIT:       1257 MISS:       1520
cpu3_L2C RFO          ACCESS:       2556 HIT:         68 MISS:       2488
cpu3_L2C PREFETCH     ACCESS:       3079 HIT:        922 MISS:       2157
cpu3_L2C WRITE        ACCESS:       3034 HIT:       3034 MISS:          0
cpu3_L2C TRANSLATION  ACCESS:        150 HIT:         52 MISS:         98
cpu3_L2C PREFETCH REQUESTED:    6276682 ISSUED:    6023101 USEFUL:      47747 USELESS:       1853
cpu3_L2C AVERAGE MISS LATENCY: 720 cycles
cpu3_STLB TOTAL        ACCESS:          0 HIT:          0 MISS:          0
cpu3_STLB LOAD         ACCESS:          0 HIT:          0 MISS:          0
cpu3_STLB RFO          ACCESS:          0 HIT:          0 MISS:          0
cpu3_STLB PREFETCH     ACCESS:          0 HIT:          0 MISS:          0
cpu3_STLB WRITE        ACCESS:          0 HIT:          0 MISS:          0
cpu3_STLB TRANSLATION  ACCESS:          0 HIT:          0 MISS:          0
cpu3_STLB PREFETCH REQUESTED:          0 ISSUED:          0 USEFUL:          0 USELESS:          0
cpu3_STLB AVERAGE MISS LATENCY: 916.7 cycles
cpu3_STLB TOTAL        ACCESS:          0 HIT:          0 MISS:          0
cpu3_STLB LOAD         ACCESS:          0 HIT:          0 MISS:          0
cpu3_STLB RFO          ACCESS:          0 HIT:          0 MISS:          0
cpu3_STLB PREFETCH     ACCESS:          0 HIT:          0 MISS:          0
cpu3_STLB WRITE        ACCESS:          0 HIT:          0 MISS:          0
cpu3_STLB TRANSLATION  ACCESS:          0 HIT:          0 MISS:          0
cpu3_STLB PREFETCH REQUESTED:          0 ISSUED:          0 USEFUL:          0 USELESS:          0
cpu3_STLB AVERAGE MISS LATENCY: 916.7 cycles
cpu3_STLB TOTAL        ACCESS:          0 HIT:          0 MISS:          0
cpu3_STLB LOAD         ACCESS:          0 HIT:          0 MISS:          0
cpu3_STLB RFO          ACCESS:          0 HIT:          0 MISS:          0
cpu3_STLB PREFETCH     ACCESS:          0 HIT:          0 MISS:          0
cpu3_STLB WRITE        ACCESS:          0 HIT:          0 MISS:          0
cpu3_STLB TRANSLATION  ACCESS:          0 HIT:          0 MISS:          0
cpu3_STLB PREFETCH REQUESTED:          0 ISSUED:          0 USEFUL:          0 USELESS:          0
cpu3_STLB AVERAGE MISS LATENCY: 916.7 cycles
cpu3_STLB TOTAL        ACCESS:       9905 HIT:       9737 MISS:        168
cpu3_STLB LOAD         ACCESS:       9905 HIT:       9737 MISS:        168
cpu3_STLB RFO          ACCESS:          0 HIT:          0 MISS:          0
cpu3_STLB PREFETCH     ACCESS:          0 HIT:          0 MISS:          0
cpu3_STLB WRITE        ACCESS:          0 HIT:          0 MISS:          0
cpu3_STLB TRANSLATION  ACCESS:          0 HIT:          0 MISS:          0
cpu3_STLB PREFETCH REQUESTED:          0 ISSUED:          0 USEFUL:          0 USELESS:          0
cpu3_STLB AVERAGE MISS LATENCY: 916.7 cycles

DRAM Statistics

Channel 0 RQ ROW_BUFFER_HIT:    1672000
  ROW_BUFFER_MISS:    6888321
 AVG DBUS CONGESTED CYCLE: 3.986
WQ ROW_BUFFER_HIT: Channel 0 
  ROW_BUFFER_MISS:     163442
  FULL:    4967884

Channel 1 RQ ROW_BUFFER_HIT:    1660741
  ROW_BUFFER_MISS:    6885246
 AVG DBUS CONGESTED CYCLE: 3.985
WQ ROW_BUFFER_HIT: Channel 1 
  ROW_BUFFER_MISS:     170752
  FULL:    4960590
