Original cmd-> /home/grads/r/rdas40/ECEN676/ChampSim/bin/multi_core/spp_2ch --warmup_instructions=50000000 --simulation_instructions=150000000  /home/grads/r/rdas40/dpc3_traces/620.omnetpp_s-874B.champsimtrace.xz /home/grads/r/rdas40/dpc3_traces/603.bwaves_s-3699B.champsimtrace.xz /home/grads/r/rdas40/dpc3_traces/649.fotonik3d_s-1176B.champsimtrace.xz /home/grads/r/rdas40/dpc3_traces/627.cam4_s-573B.champsimtrace.xz
WARNING: physical memory size is smaller than virtual memory size.
WARNING: option --warmup_instructions is deprecated. Use --warmup-instructions instead.
WARNING: option --simulation_instructions is deprecated. Use --simulation-instructions instead.

*** ChampSim Multicore Out-of-Order Simulator ***
Warmup Instructions: 50000000
Simulation Instructions: 150000000
Number of CPUs: 4
Page size: 4096

Initialize SIGNATURE TABLE
ST_SET: 1
ST_WAY: 256
ST_TAG_BIT: 16
ST_TAG_MASK: ffff

Initialize PATTERN TABLE
PT_SET: 512
PT_WAY: 4
SIG_DELTA_BIT: 7
C_SIG_BIT: 4
C_DELTA_BIT: 4

Initialize PREFETCH FILTER
FILTER_SET: 1024
Initialize SIGNATURE TABLE
ST_SET: 1
ST_WAY: 256
ST_TAG_BIT: 16
ST_TAG_MASK: ffff

Initialize PATTERN TABLE
PT_SET: 512
PT_WAY: 4
SIG_DELTA_BIT: 7
C_SIG_BIT: 4
C_DELTA_BIT: 4

Initialize PREFETCH FILTER
FILTER_SET: 1024
Initialize SIGNATURE TABLE
ST_SET: 1
ST_WAY: 256
ST_TAG_BIT: 16
ST_TAG_MASK: ffff

Initialize PATTERN TABLE
PT_SET: 512
PT_WAY: 4
SIG_DELTA_BIT: 7
C_SIG_BIT: 4
C_DELTA_BIT: 4

Initialize PREFETCH FILTER
FILTER_SET: 1024
Initialize SIGNATURE TABLE
ST_SET: 1
ST_WAY: 256
ST_TAG_BIT: 16
ST_TAG_MASK: ffff

Initialize PATTERN TABLE
PT_SET: 512
PT_WAY: 4
SIG_DELTA_BIT: 7
C_SIG_BIT: 4
C_DELTA_BIT: 4

Initialize PREFETCH FILTER
FILTER_SET: 1024
Off-chip DRAM Size: 8 GiB Channels: 2 Width: 64-bit Data Race: 3200 MT/s
Heartbeat CPU 2 instructions: 10000003 cycles: 2500048 heartbeat IPC: 4 cumulative IPC: 4 (Simulation time: 00 hr 02 min 56 sec)
Heartbeat CPU 1 instructions: 10000003 cycles: 2521875 heartbeat IPC: 3.965 cumulative IPC: 3.965 (Simulation time: 00 hr 02 min 57 sec)
Heartbeat CPU 3 instructions: 10000003 cycles: 2711622 heartbeat IPC: 3.688 cumulative IPC: 3.688 (Simulation time: 00 hr 03 min 11 sec)
Heartbeat CPU 0 instructions: 10000001 cycles: 4175191 heartbeat IPC: 2.395 cumulative IPC: 2.395 (Simulation time: 00 hr 04 min 56 sec)
Heartbeat CPU 2 instructions: 20000003 cycles: 5000048 heartbeat IPC: 4 cumulative IPC: 4 (Simulation time: 00 hr 05 min 56 sec)
Heartbeat CPU 1 instructions: 20000001 cycles: 5038237 heartbeat IPC: 3.974 cumulative IPC: 3.97 (Simulation time: 00 hr 05 min 59 sec)
Heartbeat CPU 3 instructions: 20000003 cycles: 5231397 heartbeat IPC: 3.969 cumulative IPC: 3.823 (Simulation time: 00 hr 06 min 13 sec)
Heartbeat CPU 2 instructions: 30000003 cycles: 7500048 heartbeat IPC: 4 cumulative IPC: 4 (Simulation time: 00 hr 08 min 58 sec)
Heartbeat CPU 1 instructions: 30000000 cycles: 7553266 heartbeat IPC: 3.976 cumulative IPC: 3.972 (Simulation time: 00 hr 09 min 02 sec)
Heartbeat CPU 3 instructions: 30000000 cycles: 7750714 heartbeat IPC: 3.969 cumulative IPC: 3.871 (Simulation time: 00 hr 09 min 16 sec)
Heartbeat CPU 0 instructions: 20000003 cycles: 8346904 heartbeat IPC: 2.397 cumulative IPC: 2.396 (Simulation time: 00 hr 09 min 59 sec)
Heartbeat CPU 2 instructions: 40000003 cycles: 10000048 heartbeat IPC: 4 cumulative IPC: 4 (Simulation time: 00 hr 11 min 58 sec)
Heartbeat CPU 1 instructions: 40000003 cycles: 10077277 heartbeat IPC: 3.962 cumulative IPC: 3.969 (Simulation time: 00 hr 12 min 04 sec)
Heartbeat CPU 3 instructions: 40000002 cycles: 10280796 heartbeat IPC: 3.952 cumulative IPC: 3.891 (Simulation time: 00 hr 12 min 19 sec)
Heartbeat CPU 2 instructions: 50000003 cycles: 12500048 heartbeat IPC: 4 cumulative IPC: 4 (Simulation time: 00 hr 15 min 03 sec)
Warmup finished CPU 2 instructions: 50000003 cycles: 12500049 cumulative IPC: 4 (Simulation time: 00 hr 15 min 03 sec)
Heartbeat CPU 0 instructions: 30000001 cycles: 12519701 heartbeat IPC: 2.396 cumulative IPC: 2.396 (Simulation time: 00 hr 15 min 04 sec)
Heartbeat CPU 1 instructions: 50000000 cycles: 12599099 heartbeat IPC: 3.965 cumulative IPC: 3.969 (Simulation time: 00 hr 15 min 10 sec)
Warmup finished CPU 1 instructions: 50000000 cycles: 12599100 cumulative IPC: 3.969 (Simulation time: 00 hr 15 min 10 sec)
Heartbeat CPU 3 instructions: 50000003 cycles: 12883612 heartbeat IPC: 3.842 cumulative IPC: 3.881 (Simulation time: 00 hr 15 min 31 sec)
Warmup finished CPU 3 instructions: 50000003 cycles: 12883613 cumulative IPC: 3.881 (Simulation time: 00 hr 15 min 31 sec)
Heartbeat CPU 2 instructions: 60000003 cycles: 15000048 heartbeat IPC: 4 cumulative IPC: 4 (Simulation time: 00 hr 18 min 08 sec)
Heartbeat CPU 1 instructions: 60000002 cycles: 15124094 heartbeat IPC: 3.96 cumulative IPC: 3.967 (Simulation time: 00 hr 18 min 17 sec)
Heartbeat CPU 3 instructions: 60000002 cycles: 15502091 heartbeat IPC: 3.819 cumulative IPC: 3.87 (Simulation time: 00 hr 18 min 45 sec)
Heartbeat CPU 0 instructions: 40000000 cycles: 16705845 heartbeat IPC: 2.389 cumulative IPC: 2.394 (Simulation time: 00 hr 20 min 15 sec)
Heartbeat CPU 2 instructions: 70000003 cycles: 17500048 heartbeat IPC: 4 cumulative IPC: 4 (Simulation time: 00 hr 21 min 13 sec)
Heartbeat CPU 1 instructions: 70000000 cycles: 17648868 heartbeat IPC: 3.961 cumulative IPC: 3.966 (Simulation time: 00 hr 21 min 24 sec)
Heartbeat CPU 3 instructions: 70000002 cycles: 18079968 heartbeat IPC: 3.879 cumulative IPC: 3.872 (Simulation time: 00 hr 21 min 55 sec)
Heartbeat CPU 2 instructions: 80000003 cycles: 20000048 heartbeat IPC: 4 cumulative IPC: 4 (Simulation time: 00 hr 24 min 15 sec)
Heartbeat CPU 1 instructions: 80000001 cycles: 20174084 heartbeat IPC: 3.96 cumulative IPC: 3.965 (Simulation time: 00 hr 24 min 28 sec)
Heartbeat CPU 3 instructions: 80000004 cycles: 20640290 heartbeat IPC: 3.906 cumulative IPC: 3.876 (Simulation time: 00 hr 25 min 03 sec)
Heartbeat CPU 0 instructions: 50000003 cycles: 20873112 heartbeat IPC: 2.4 cumulative IPC: 2.395 (Simulation time: 00 hr 25 min 20 sec)
Warmup finished CPU 0 instructions: 50000003 cycles: 20873113 cumulative IPC: 2.395 (Simulation time: 00 hr 25 min 20 sec)
Warmup complete CPU 0 instructions: 50000003 cycles: 20873113 cumulative IPC: 2.395 (Simulation time: 00 hr 25 min 20 sec)
Warmup complete CPU 1 instructions: 82767378 cycles: 20873113 cumulative IPC: 3.965 (Simulation time: 00 hr 25 min 20 sec)
Warmup complete CPU 2 instructions: 83492259 cycles: 20873113 cumulative IPC: 4 (Simulation time: 00 hr 25 min 20 sec)
Warmup complete CPU 3 instructions: 80848894 cycles: 20873113 cumulative IPC: 3.873 (Simulation time: 00 hr 25 min 20 sec)
Heartbeat CPU 1 instructions: 90000001 cycles: 23992207 heartbeat IPC: 2.619 cumulative IPC: 2.319 (Simulation time: 00 hr 28 min 05 sec)
Heartbeat CPU 3 instructions: 90000003 cycles: 24466904 heartbeat IPC: 2.613 cumulative IPC: 2.546 (Simulation time: 00 hr 28 min 30 sec)
Heartbeat CPU 2 instructions: 90000004 cycles: 24797361 heartbeat IPC: 2.085 cumulative IPC: 1.658 (Simulation time: 00 hr 28 min 48 sec)
Heartbeat CPU 1 instructions: 100000000 cycles: 28312610 heartbeat IPC: 2.315 cumulative IPC: 2.316 (Simulation time: 00 hr 31 min 30 sec)
Heartbeat CPU 1 instructions: 110000004 cycles: 32749206 heartbeat IPC: 2.254 cumulative IPC: 2.293 (Simulation time: 00 hr 34 min 55 sec)
Heartbeat CPU 3 instructions: 100000001 cycles: 33483710 heartbeat IPC: 1.109 cumulative IPC: 1.519 (Simulation time: 00 hr 35 min 26 sec)
Heartbeat CPU 2 instructions: 100000002 cycles: 35666675 heartbeat IPC: 0.92 cumulative IPC: 1.116 (Simulation time: 00 hr 36 min 51 sec)
Heartbeat CPU 1 instructions: 120000001 cycles: 37068929 heartbeat IPC: 2.315 cumulative IPC: 2.299 (Simulation time: 00 hr 37 min 44 sec)
Heartbeat CPU 1 instructions: 130000000 cycles: 41577312 heartbeat IPC: 2.218 cumulative IPC: 2.281 (Simulation time: 00 hr 40 min 31 sec)
Heartbeat CPU 1 instructions: 140000002 cycles: 46097945 heartbeat IPC: 2.212 cumulative IPC: 2.269 (Simulation time: 00 hr 43 min 20 sec)
Heartbeat CPU 1 instructions: 150000002 cycles: 50544131 heartbeat IPC: 2.249 cumulative IPC: 2.266 (Simulation time: 00 hr 46 min 05 sec)
Heartbeat CPU 1 instructions: 160000001 cycles: 54988565 heartbeat IPC: 2.25 cumulative IPC: 2.264 (Simulation time: 00 hr 49 min 04 sec)
Heartbeat CPU 3 instructions: 110000001 cycles: 56242261 heartbeat IPC: 0.4394 cumulative IPC: 0.8242 (Simulation time: 00 hr 50 min 09 sec)
Heartbeat CPU 2 instructions: 110000002 cycles: 57917620 heartbeat IPC: 0.4494 cumulative IPC: 0.7156 (Simulation time: 00 hr 51 min 34 sec)
Heartbeat CPU 1 instructions: 170000000 cycles: 59363604 heartbeat IPC: 2.286 cumulative IPC: 2.266 (Simulation time: 00 hr 52 min 49 sec)
Heartbeat CPU 3 instructions: 120000003 cycles: 60146983 heartbeat IPC: 2.561 cumulative IPC: 0.9969 (Simulation time: 00 hr 53 min 31 sec)
Heartbeat CPU 3 instructions: 130000001 cycles: 63628800 heartbeat IPC: 2.872 cumulative IPC: 1.15 (Simulation time: 00 hr 56 min 36 sec)
Heartbeat CPU 1 instructions: 180000000 cycles: 63773039 heartbeat IPC: 2.268 cumulative IPC: 2.266 (Simulation time: 00 hr 56 min 44 sec)
Heartbeat CPU 2 instructions: 120000004 cycles: 65308362 heartbeat IPC: 1.353 cumulative IPC: 0.8216 (Simulation time: 00 hr 58 min 05 sec)
Heartbeat CPU 0 instructions: 60000003 cycles: 65806273 heartbeat IPC: 0.2226 cumulative IPC: 0.2226 (Simulation time: 00 hr 58 min 33 sec)
Heartbeat CPU 3 instructions: 140000000 cycles: 67090933 heartbeat IPC: 2.888 cumulative IPC: 1.28 (Simulation time: 00 hr 59 min 42 sec)
Heartbeat CPU 1 instructions: 190000000 cycles: 68133241 heartbeat IPC: 2.293 cumulative IPC: 2.269 (Simulation time: 01 hr 00 min 37 sec)
Heartbeat CPU 3 instructions: 150000000 cycles: 71751363 heartbeat IPC: 2.146 cumulative IPC: 1.359 (Simulation time: 01 hr 03 min 39 sec)
Heartbeat CPU 1 instructions: 200000004 cycles: 72482760 heartbeat IPC: 2.299 cumulative IPC: 2.272 (Simulation time: 01 hr 04 min 16 sec)
Heartbeat CPU 2 instructions: 130000000 cycles: 72484200 heartbeat IPC: 1.394 cumulative IPC: 0.9011 (Simulation time: 01 hr 04 min 16 sec)
Heartbeat CPU 3 instructions: 160000000 cycles: 76686707 heartbeat IPC: 2.026 cumulative IPC: 1.418 (Simulation time: 01 hr 07 min 48 sec)
Heartbeat CPU 1 instructions: 210000001 cycles: 76873273 heartbeat IPC: 2.278 cumulative IPC: 2.272 (Simulation time: 01 hr 07 min 57 sec)
Heartbeat CPU 2 instructions: 140000002 cycles: 79609450 heartbeat IPC: 1.403 cumulative IPC: 0.9621 (Simulation time: 01 hr 10 min 14 sec)
Heartbeat CPU 1 instructions: 220000002 cycles: 81309187 heartbeat IPC: 2.254 cumulative IPC: 2.271 (Simulation time: 01 hr 11 min 39 sec)
Heartbeat CPU 3 instructions: 170000000 cycles: 81701466 heartbeat IPC: 1.994 cumulative IPC: 1.466 (Simulation time: 01 hr 11 min 59 sec)
Heartbeat CPU 1 instructions: 230000000 cycles: 85693608 heartbeat IPC: 2.281 cumulative IPC: 2.271 (Simulation time: 01 hr 15 min 21 sec)
Heartbeat CPU 3 instructions: 180000004 cycles: 86305421 heartbeat IPC: 2.172 cumulative IPC: 1.515 (Simulation time: 01 hr 15 min 53 sec)
Heartbeat CPU 2 instructions: 150000003 cycles: 86811269 heartbeat IPC: 1.389 cumulative IPC: 1.009 (Simulation time: 01 hr 16 min 19 sec)
Simulation finished CPU 1 instructions: 150000003 cycles: 66043500 cumulative IPC: 2.271 (Simulation time: 01 hr 16 min 24 sec)
Heartbeat CPU 1 instructions: 240000001 cycles: 90112617 heartbeat IPC: 2.263 cumulative IPC: 2.271 (Simulation time: 01 hr 19 min 09 sec)
Heartbeat CPU 3 instructions: 190000003 cycles: 90556965 heartbeat IPC: 2.352 cumulative IPC: 1.566 (Simulation time: 01 hr 19 min 32 sec)
Heartbeat CPU 0 instructions: 70000002 cycles: 92639823 heartbeat IPC: 0.3727 cumulative IPC: 0.2787 (Simulation time: 01 hr 21 min 18 sec)
Heartbeat CPU 2 instructions: 160000004 cycles: 93840927 heartbeat IPC: 1.423 cumulative IPC: 1.049 (Simulation time: 01 hr 22 min 13 sec)
Heartbeat CPU 1 instructions: 250000001 cycles: 94472269 heartbeat IPC: 2.294 cumulative IPC: 2.272 (Simulation time: 01 hr 22 min 42 sec)
Heartbeat CPU 3 instructions: 200000004 cycles: 97798711 heartbeat IPC: 1.381 cumulative IPC: 1.549 (Simulation time: 01 hr 25 min 14 sec)
Heartbeat CPU 1 instructions: 260000000 cycles: 98867830 heartbeat IPC: 2.275 cumulative IPC: 2.272 (Simulation time: 01 hr 26 min 04 sec)
Heartbeat CPU 1 instructions: 270000003 cycles: 103311786 heartbeat IPC: 2.25 cumulative IPC: 2.271 (Simulation time: 01 hr 28 min 58 sec)
Heartbeat CPU 1 instructions: 280000000 cycles: 107765846 heartbeat IPC: 2.245 cumulative IPC: 2.27 (Simulation time: 01 hr 31 min 43 sec)
Heartbeat CPU 1 instructions: 290000001 cycles: 112211359 heartbeat IPC: 2.249 cumulative IPC: 2.269 (Simulation time: 01 hr 34 min 27 sec)
Heartbeat CPU 2 instructions: 170000002 cycles: 113199490 heartbeat IPC: 0.5166 cumulative IPC: 0.937 (Simulation time: 01 hr 35 min 04 sec)
Heartbeat CPU 1 instructions: 300000002 cycles: 116728458 heartbeat IPC: 2.214 cumulative IPC: 2.266 (Simulation time: 01 hr 37 min 15 sec)
Heartbeat CPU 1 instructions: 310000003 cycles: 121152678 heartbeat IPC: 2.26 cumulative IPC: 2.266 (Simulation time: 01 hr 40 min 09 sec)
Heartbeat CPU 3 instructions: 210000003 cycles: 122055679 heartbeat IPC: 0.4123 cumulative IPC: 1.276 (Simulation time: 01 hr 40 min 51 sec)
Heartbeat CPU 1 instructions: 320000002 cycles: 125592011 heartbeat IPC: 2.253 cumulative IPC: 2.265 (Simulation time: 01 hr 43 min 51 sec)
Heartbeat CPU 3 instructions: 220000001 cycles: 126076879 heartbeat IPC: 2.487 cumulative IPC: 1.323 (Simulation time: 01 hr 44 min 16 sec)
Heartbeat CPU 2 instructions: 180000001 cycles: 127153105 heartbeat IPC: 0.7167 cumulative IPC: 0.9081 (Simulation time: 01 hr 45 min 14 sec)
Heartbeat CPU 3 instructions: 230000001 cycles: 129514677 heartbeat IPC: 2.909 cumulative IPC: 1.373 (Simulation time: 01 hr 47 min 19 sec)
Simulation finished CPU 3 instructions: 150000004 cycles: 108932286 cumulative IPC: 1.377 (Simulation time: 01 hr 47 min 35 sec)
Heartbeat CPU 1 instructions: 330000004 cycles: 130023844 heartbeat IPC: 2.256 cumulative IPC: 2.265 (Simulation time: 01 hr 47 min 47 sec)
Heartbeat CPU 3 instructions: 240000000 cycles: 132986827 heartbeat IPC: 2.88 cumulative IPC: 1.42 (Simulation time: 01 hr 50 min 25 sec)
Heartbeat CPU 2 instructions: 190000003 cycles: 134405494 heartbeat IPC: 1.379 cumulative IPC: 0.9381 (Simulation time: 01 hr 51 min 39 sec)
Heartbeat CPU 1 instructions: 340000001 cycles: 134419367 heartbeat IPC: 2.275 cumulative IPC: 2.265 (Simulation time: 01 hr 51 min 40 sec)
Heartbeat CPU 3 instructions: 250000004 cycles: 137279074 heartbeat IPC: 2.33 cumulative IPC: 1.453 (Simulation time: 01 hr 54 min 06 sec)
Heartbeat CPU 0 instructions: 80000002 cycles: 137762191 heartbeat IPC: 0.2216 cumulative IPC: 0.2567 (Simulation time: 01 hr 54 min 30 sec)
Heartbeat CPU 1 instructions: 350000001 cycles: 138820107 heartbeat IPC: 2.272 cumulative IPC: 2.266 (Simulation time: 01 hr 55 min 24 sec)
Heartbeat CPU 2 instructions: 200000004 cycles: 141568890 heartbeat IPC: 1.396 cumulative IPC: 0.9653 (Simulation time: 01 hr 57 min 42 sec)
Heartbeat CPU 3 instructions: 260000002 cycles: 142216713 heartbeat IPC: 2.025 cumulative IPC: 1.476 (Simulation time: 01 hr 58 min 14 sec)
Heartbeat CPU 1 instructions: 360000004 cycles: 143264174 heartbeat IPC: 2.25 cumulative IPC: 2.265 (Simulation time: 01 hr 59 min 07 sec)
Heartbeat CPU 3 instructions: 270000000 cycles: 147128882 heartbeat IPC: 2.036 cumulative IPC: 1.498 (Simulation time: 02 hr 02 min 24 sec)
Heartbeat CPU 1 instructions: 370000000 cycles: 147656562 heartbeat IPC: 2.277 cumulative IPC: 2.266 (Simulation time: 02 hr 02 min 50 sec)
Heartbeat CPU 2 instructions: 210000000 cycles: 148697420 heartbeat IPC: 1.403 cumulative IPC: 0.9897 (Simulation time: 02 hr 03 min 42 sec)
Heartbeat CPU 3 instructions: 280000001 cycles: 151622132 heartbeat IPC: 2.226 cumulative IPC: 1.523 (Simulation time: 02 hr 06 min 13 sec)
Heartbeat CPU 1 instructions: 380000000 cycles: 152080260 heartbeat IPC: 2.261 cumulative IPC: 2.265 (Simulation time: 02 hr 06 min 34 sec)
Heartbeat CPU 2 instructions: 220000004 cycles: 155619913 heartbeat IPC: 1.445 cumulative IPC: 1.013 (Simulation time: 02 hr 09 min 36 sec)
Heartbeat CPU 3 instructions: 290000002 cycles: 156266328 heartbeat IPC: 2.153 cumulative IPC: 1.545 (Simulation time: 02 hr 10 min 12 sec)
Heartbeat CPU 1 instructions: 390000000 cycles: 156472529 heartbeat IPC: 2.277 cumulative IPC: 2.266 (Simulation time: 02 hr 10 min 23 sec)
Heartbeat CPU 1 instructions: 400000000 cycles: 160910395 heartbeat IPC: 2.253 cumulative IPC: 2.265 (Simulation time: 02 hr 14 min 02 sec)
Heartbeat CPU 3 instructions: 300000001 cycles: 161938829 heartbeat IPC: 1.763 cumulative IPC: 1.554 (Simulation time: 02 hr 14 min 49 sec)
Heartbeat CPU 2 instructions: 230000004 cycles: 162618563 heartbeat IPC: 1.429 cumulative IPC: 1.034 (Simulation time: 02 hr 15 min 20 sec)
Heartbeat CPU 1 instructions: 410000000 cycles: 165337633 heartbeat IPC: 2.259 cumulative IPC: 2.265 (Simulation time: 02 hr 17 min 26 sec)
Heartbeat CPU 0 instructions: 90000001 cycles: 165743982 heartbeat IPC: 0.3574 cumulative IPC: 0.2761 (Simulation time: 02 hr 17 min 42 sec)
Simulation finished CPU 2 instructions: 150000000 cycles: 145700607 cumulative IPC: 1.03 (Simulation time: 02 hr 18 min 20 sec)
Heartbeat CPU 1 instructions: 420000004 cycles: 169812359 heartbeat IPC: 2.235 cumulative IPC: 2.264 (Simulation time: 02 hr 20 min 24 sec)
Heartbeat CPU 1 instructions: 430000002 cycles: 174345340 heartbeat IPC: 2.206 cumulative IPC: 2.263 (Simulation time: 02 hr 23 min 11 sec)
Heartbeat CPU 1 instructions: 440000003 cycles: 178879821 heartbeat IPC: 2.205 cumulative IPC: 2.261 (Simulation time: 02 hr 25 min 58 sec)
Heartbeat CPU 1 instructions: 450000003 cycles: 183334327 heartbeat IPC: 2.245 cumulative IPC: 2.26 (Simulation time: 02 hr 28 min 44 sec)
Heartbeat CPU 3 instructions: 310000000 cycles: 187109592 heartbeat IPC: 0.3973 cumulative IPC: 1.378 (Simulation time: 02 hr 31 min 07 sec)
Heartbeat CPU 2 instructions: 240000004 cycles: 187319341 heartbeat IPC: 0.4048 cumulative IPC: 0.9403 (Simulation time: 02 hr 31 min 18 sec)
Heartbeat CPU 1 instructions: 460000003 cycles: 187874140 heartbeat IPC: 2.203 cumulative IPC: 2.259 (Simulation time: 02 hr 31 min 42 sec)
Heartbeat CPU 3 instructions: 320000004 cycles: 191659013 heartbeat IPC: 2.198 cumulative IPC: 1.4 (Simulation time: 02 hr 34 min 51 sec)
Heartbeat CPU 1 instructions: 470000002 cycles: 192213405 heartbeat IPC: 2.305 cumulative IPC: 2.26 (Simulation time: 02 hr 35 min 20 sec)
Heartbeat CPU 3 instructions: 330000002 cycles: 195146452 heartbeat IPC: 2.867 cumulative IPC: 1.43 (Simulation time: 02 hr 37 min 58 sec)
Heartbeat CPU 2 instructions: 250000000 cycles: 195362489 heartbeat IPC: 1.243 cumulative IPC: 0.9543 (Simulation time: 02 hr 38 min 09 sec)
Heartbeat CPU 1 instructions: 480000000 cycles: 196577983 heartbeat IPC: 2.291 cumulative IPC: 2.261 (Simulation time: 02 hr 39 min 15 sec)
Heartbeat CPU 3 instructions: 340000004 cycles: 198582758 heartbeat IPC: 2.91 cumulative IPC: 1.458 (Simulation time: 02 hr 41 min 03 sec)
Heartbeat CPU 1 instructions: 490000002 cycles: 200892740 heartbeat IPC: 2.318 cumulative IPC: 2.262 (Simulation time: 02 hr 43 min 05 sec)
Heartbeat CPU 2 instructions: 260000003 cycles: 202414192 heartbeat IPC: 1.418 cumulative IPC: 0.9723 (Simulation time: 02 hr 44 min 24 sec)
Heartbeat CPU 3 instructions: 350000004 cycles: 202456924 heartbeat IPC: 2.581 cumulative IPC: 1.482 (Simulation time: 02 hr 44 min 26 sec)
Heartbeat CPU 1 instructions: 500000000 cycles: 205224605 heartbeat IPC: 2.308 cumulative IPC: 2.263 (Simulation time: 02 hr 46 min 48 sec)
Heartbeat CPU 3 instructions: 360000000 cycles: 206945993 heartbeat IPC: 2.228 cumulative IPC: 1.5 (Simulation time: 02 hr 48 min 16 sec)
Heartbeat CPU 0 instructions: 100000000 cycles: 208997133 heartbeat IPC: 0.2312 cumulative IPC: 0.2658 (Simulation time: 02 hr 50 min 01 sec)
Heartbeat CPU 2 instructions: 270000003 cycles: 209057875 heartbeat IPC: 1.505 cumulative IPC: 0.9911 (Simulation time: 02 hr 50 min 04 sec)
Heartbeat CPU 1 instructions: 510000004 cycles: 209537447 heartbeat IPC: 2.319 cumulative IPC: 2.265 (Simulation time: 02 hr 50 min 28 sec)
Heartbeat CPU 3 instructions: 370000000 cycles: 211809054 heartbeat IPC: 2.056 cumulative IPC: 1.514 (Simulation time: 02 hr 52 min 23 sec)
Heartbeat CPU 1 instructions: 520000000 cycles: 213866752 heartbeat IPC: 2.31 cumulative IPC: 2.266 (Simulation time: 02 hr 54 min 09 sec)
Heartbeat CPU 2 instructions: 280000001 cycles: 215306115 heartbeat IPC: 1.6 cumulative IPC: 1.011 (Simulation time: 02 hr 55 min 23 sec)
Heartbeat CPU 3 instructions: 380000002 cycles: 216412279 heartbeat IPC: 2.172 cumulative IPC: 1.53 (Simulation time: 02 hr 56 min 21 sec)
Heartbeat CPU 1 instructions: 530000002 cycles: 218835850 heartbeat IPC: 2.012 cumulative IPC: 2.259 (Simulation time: 02 hr 58 min 14 sec)
Heartbeat CPU 3 instructions: 390000000 cycles: 222160524 heartbeat IPC: 1.74 cumulative IPC: 1.536 (Simulation time: 03 hr 00 min 53 sec)
Heartbeat CPU 1 instructions: 540000003 cycles: 223500306 heartbeat IPC: 2.144 cumulative IPC: 2.257 (Simulation time: 03 hr 02 min 01 sec)
Heartbeat CPU 2 instructions: 290000000 cycles: 224960901 heartbeat IPC: 1.036 cumulative IPC: 1.012 (Simulation time: 03 hr 03 min 18 sec)
Heartbeat CPU 3 instructions: 400000001 cycles: 226179704 heartbeat IPC: 2.488 cumulative IPC: 1.555 (Simulation time: 03 hr 04 min 23 sec)
Heartbeat CPU 1 instructions: 550000001 cycles: 227831453 heartbeat IPC: 2.309 cumulative IPC: 2.258 (Simulation time: 03 hr 05 min 43 sec)
Heartbeat CPU 1 instructions: 560000002 cycles: 232179100 heartbeat IPC: 2.3 cumulative IPC: 2.258 (Simulation time: 03 hr 09 min 02 sec)
Heartbeat CPU 2 instructions: 300000004 cycles: 233552203 heartbeat IPC: 1.164 cumulative IPC: 1.018 (Simulation time: 03 hr 10 min 07 sec)
Heartbeat CPU 1 instructions: 570000001 cycles: 236539087 heartbeat IPC: 2.294 cumulative IPC: 2.259 (Simulation time: 03 hr 12 min 09 sec)
Heartbeat CPU 3 instructions: 410000000 cycles: 236651122 heartbeat IPC: 0.955 cumulative IPC: 1.525 (Simulation time: 03 hr 12 min 13 sec)
Heartbeat CPU 1 instructions: 580000001 cycles: 240864816 heartbeat IPC: 2.312 cumulative IPC: 2.26 (Simulation time: 03 hr 14 min 51 sec)
Heartbeat CPU 1 instructions: 590000002 cycles: 245153838 heartbeat IPC: 2.332 cumulative IPC: 2.262 (Simulation time: 03 hr 17 min 31 sec)
Heartbeat CPU 1 instructions: 600000000 cycles: 249431923 heartbeat IPC: 2.337 cumulative IPC: 2.263 (Simulation time: 03 hr 20 min 12 sec)
Heartbeat CPU 0 instructions: 110000004 cycles: 253417366 heartbeat IPC: 0.2251 cumulative IPC: 0.258 (Simulation time: 03 hr 22 min 41 sec)
Heartbeat CPU 1 instructions: 610000000 cycles: 253791594 heartbeat IPC: 2.294 cumulative IPC: 2.264 (Simulation time: 03 hr 22 min 55 sec)
Heartbeat CPU 3 instructions: 420000002 cycles: 257198028 heartbeat IPC: 0.4867 cumulative IPC: 1.435 (Simulation time: 03 hr 25 min 34 sec)
Heartbeat CPU 2 instructions: 310000002 cycles: 257412833 heartbeat IPC: 0.4191 cumulative IPC: 0.9576 (Simulation time: 03 hr 25 min 45 sec)
Heartbeat CPU 1 instructions: 620000000 cycles: 258148620 heartbeat IPC: 2.295 cumulative IPC: 2.264 (Simulation time: 03 hr 26 min 21 sec)
Heartbeat CPU 3 instructions: 430000000 cycles: 261058345 heartbeat IPC: 2.59 cumulative IPC: 1.454 (Simulation time: 03 hr 28 min 54 sec)
Heartbeat CPU 1 instructions: 630000001 cycles: 262502140 heartbeat IPC: 2.297 cumulative IPC: 2.265 (Simulation time: 03 hr 30 min 11 sec)
Heartbeat CPU 3 instructions: 440000003 cycles: 264574922 heartbeat IPC: 2.844 cumulative IPC: 1.474 (Simulation time: 03 hr 32 min 02 sec)
Heartbeat CPU 2 instructions: 320000002 cycles: 264900489 heartbeat IPC: 1.336 cumulative IPC: 0.9692 (Simulation time: 03 hr 32 min 20 sec)
Heartbeat CPU 1 instructions: 640000001 cycles: 266843206 heartbeat IPC: 2.304 cumulative IPC: 2.265 (Simulation time: 03 hr 34 min 06 sec)
Heartbeat CPU 3 instructions: 450000002 cycles: 268204932 heartbeat IPC: 2.755 cumulative IPC: 1.493 (Simulation time: 03 hr 35 min 18 sec)
Heartbeat CPU 1 instructions: 650000000 cycles: 271186649 heartbeat IPC: 2.302 cumulative IPC: 2.266 (Simulation time: 03 hr 37 min 53 sec)
Heartbeat CPU 2 instructions: 330000002 cycles: 271988053 heartbeat IPC: 1.411 cumulative IPC: 0.9817 (Simulation time: 03 hr 38 min 33 sec)
Heartbeat CPU 3 instructions: 460000001 cycles: 272636953 heartbeat IPC: 2.256 cumulative IPC: 1.506 (Simulation time: 03 hr 39 min 07 sec)
Heartbeat CPU 1 instructions: 660000002 cycles: 275548401 heartbeat IPC: 2.293 cumulative IPC: 2.267 (Simulation time: 03 hr 41 min 35 sec)
Heartbeat CPU 3 instructions: 470000000 cycles: 277503927 heartbeat IPC: 2.055 cumulative IPC: 1.516 (Simulation time: 03 hr 43 min 15 sec)
Heartbeat CPU 2 instructions: 340000002 cycles: 278988565 heartbeat IPC: 1.428 cumulative IPC: 0.9938 (Simulation time: 03 hr 44 min 31 sec)
Heartbeat CPU 1 instructions: 670000001 cycles: 279944474 heartbeat IPC: 2.275 cumulative IPC: 2.267 (Simulation time: 03 hr 45 min 20 sec)
Heartbeat CPU 0 instructions: 120000004 cycles: 280941792 heartbeat IPC: 0.3633 cumulative IPC: 0.2692 (Simulation time: 03 hr 46 min 11 sec)
Heartbeat CPU 3 instructions: 480000004 cycles: 282275479 heartbeat IPC: 2.096 cumulative IPC: 1.527 (Simulation time: 03 hr 47 min 19 sec)
Heartbeat CPU 1 instructions: 680000002 cycles: 284358594 heartbeat IPC: 2.265 cumulative IPC: 2.267 (Simulation time: 03 hr 49 min 08 sec)
Heartbeat CPU 2 instructions: 350000001 cycles: 286075673 heartbeat IPC: 1.411 cumulative IPC: 1.005 (Simulation time: 03 hr 50 min 31 sec)
Heartbeat CPU 3 instructions: 490000001 cycles: 286885220 heartbeat IPC: 2.169 cumulative IPC: 1.538 (Simulation time: 03 hr 51 min 14 sec)
Heartbeat CPU 1 instructions: 690000001 cycles: 288734188 heartbeat IPC: 2.285 cumulative IPC: 2.267 (Simulation time: 03 hr 52 min 50 sec)
Heartbeat CPU 3 instructions: 500000000 cycles: 290856989 heartbeat IPC: 2.518 cumulative IPC: 1.553 (Simulation time: 03 hr 54 min 43 sec)
Heartbeat CPU 2 instructions: 360000004 cycles: 292879866 heartbeat IPC: 1.47 cumulative IPC: 1.017 (Simulation time: 03 hr 56 min 19 sec)
Heartbeat CPU 1 instructions: 700000000 cycles: 293123193 heartbeat IPC: 2.278 cumulative IPC: 2.267 (Simulation time: 03 hr 56 min 30 sec)
Heartbeat CPU 1 instructions: 710000002 cycles: 297517447 heartbeat IPC: 2.276 cumulative IPC: 2.267 (Simulation time: 03 hr 59 min 55 sec)
Heartbeat CPU 3 instructions: 510000001 cycles: 299062812 heartbeat IPC: 1.219 cumulative IPC: 1.543 (Simulation time: 04 hr 01 min 05 sec)
Heartbeat CPU 1 instructions: 720000004 cycles: 301993413 heartbeat IPC: 2.234 cumulative IPC: 2.267 (Simulation time: 04 hr 02 min 59 sec)
Heartbeat CPU 1 instructions: 730000002 cycles: 306460153 heartbeat IPC: 2.239 cumulative IPC: 2.266 (Simulation time: 04 hr 05 min 45 sec)
Heartbeat CPU 2 instructions: 370000004 cycles: 309876964 heartbeat IPC: 0.5883 cumulative IPC: 0.9914 (Simulation time: 04 hr 07 min 51 sec)
Heartbeat CPU 1 instructions: 740000004 cycles: 310968015 heartbeat IPC: 2.218 cumulative IPC: 2.266 (Simulation time: 04 hr 08 min 31 sec)
Heartbeat CPU 1 instructions: 750000001 cycles: 315576870 heartbeat IPC: 2.17 cumulative IPC: 2.264 (Simulation time: 04 hr 11 min 22 sec)
Heartbeat CPU 1 instructions: 760000000 cycles: 320044632 heartbeat IPC: 2.238 cumulative IPC: 2.264 (Simulation time: 04 hr 14 min 13 sec)
Heartbeat CPU 3 instructions: 520000003 cycles: 322230978 heartbeat IPC: 0.4316 cumulative IPC: 1.457 (Simulation time: 04 hr 15 min 58 sec)
Heartbeat CPU 1 instructions: 770000002 cycles: 324431889 heartbeat IPC: 2.279 cumulative IPC: 2.264 (Simulation time: 04 hr 17 min 49 sec)
Heartbeat CPU 2 instructions: 380000000 cycles: 326054238 heartbeat IPC: 0.6182 cumulative IPC: 0.9716 (Simulation time: 04 hr 19 min 15 sec)
Heartbeat CPU 3 instructions: 530000001 cycles: 326148452 heartbeat IPC: 2.553 cumulative IPC: 1.471 (Simulation time: 04 hr 19 min 20 sec)
Heartbeat CPU 0 instructions: 130000002 cycles: 326530520 heartbeat IPC: 0.2194 cumulative IPC: 0.2617 (Simulation time: 04 hr 19 min 41 sec)
Heartbeat CPU 1 instructions: 780000002 cycles: 328800151 heartbeat IPC: 2.289 cumulative IPC: 2.264 (Simulation time: 04 hr 21 min 43 sec)
Heartbeat CPU 3 instructions: 540000004 cycles: 329624859 heartbeat IPC: 2.877 cumulative IPC: 1.487 (Simulation time: 04 hr 22 min 28 sec)
Heartbeat CPU 1 instructions: 790000002 cycles: 333141610 heartbeat IPC: 2.303 cumulative IPC: 2.265 (Simulation time: 04 hr 25 min 35 sec)
Heartbeat CPU 2 instructions: 390000004 cycles: 333242284 heartbeat IPC: 1.391 cumulative IPC: 0.9812 (Simulation time: 04 hr 25 min 41 sec)
Heartbeat CPU 3 instructions: 550000001 cycles: 333304602 heartbeat IPC: 2.718 cumulative IPC: 1.502 (Simulation time: 04 hr 25 min 44 sec)
Heartbeat CPU 1 instructions: 800000001 cycles: 337488886 heartbeat IPC: 2.3 cumulative IPC: 2.265 (Simulation time: 04 hr 29 min 21 sec)
Heartbeat CPU 3 instructions: 560000000 cycles: 337597908 heartbeat IPC: 2.329 cumulative IPC: 1.513 (Simulation time: 04 hr 29 min 27 sec)
Heartbeat CPU 2 instructions: 400000001 cycles: 340336573 heartbeat IPC: 1.41 cumulative IPC: 0.9907 (Simulation time: 04 hr 31 min 46 sec)
Heartbeat CPU 1 instructions: 810000000 cycles: 341859496 heartbeat IPC: 2.288 cumulative IPC: 2.266 (Simulation time: 04 hr 33 min 03 sec)
Heartbeat CPU 3 instructions: 570000004 cycles: 342454121 heartbeat IPC: 2.059 cumulative IPC: 1.521 (Simulation time: 04 hr 33 min 33 sec)
Heartbeat CPU 1 instructions: 820000000 cycles: 346203641 heartbeat IPC: 2.302 cumulative IPC: 2.266 (Simulation time: 04 hr 36 min 45 sec)
Heartbeat CPU 3 instructions: 580000003 cycles: 347290813 heartbeat IPC: 2.068 cumulative IPC: 1.529 (Simulation time: 04 hr 37 min 40 sec)
Heartbeat CPU 2 instructions: 410000001 cycles: 347315344 heartbeat IPC: 1.433 cumulative IPC: 1 (Simulation time: 04 hr 37 min 41 sec)
Heartbeat CPU 1 instructions: 830000004 cycles: 350570339 heartbeat IPC: 2.29 cumulative IPC: 2.266 (Simulation time: 04 hr 40 min 26 sec)
Heartbeat CPU 3 instructions: 590000000 cycles: 351727776 heartbeat IPC: 2.254 cumulative IPC: 1.539 (Simulation time: 04 hr 41 min 26 sec)
Heartbeat CPU 0 instructions: 140000001 cycles: 352462689 heartbeat IPC: 0.3856 cumulative IPC: 0.2714 (Simulation time: 04 hr 42 min 05 sec)
Heartbeat CPU 2 instructions: 420000000 cycles: 354208980 heartbeat IPC: 1.451 cumulative IPC: 1.01 (Simulation time: 04 hr 43 min 35 sec)
Heartbeat CPU 1 instructions: 840000003 cycles: 354948363 heartbeat IPC: 2.284 cumulative IPC: 2.267 (Simulation time: 04 hr 44 min 13 sec)
Heartbeat CPU 3 instructions: 600000000 cycles: 355840398 heartbeat IPC: 2.432 cumulative IPC: 1.55 (Simulation time: 04 hr 45 min 02 sec)
Heartbeat CPU 1 instructions: 850000001 cycles: 359269033 heartbeat IPC: 2.314 cumulative IPC: 2.267 (Simulation time: 04 hr 47 min 45 sec)
Heartbeat CPU 2 instructions: 430000000 cycles: 362412198 heartbeat IPC: 1.219 cumulative IPC: 1.015 (Simulation time: 04 hr 50 min 10 sec)
Heartbeat CPU 3 instructions: 610000003 cycles: 363624495 heartbeat IPC: 1.285 cumulative IPC: 1.544 (Simulation time: 04 hr 51 min 06 sec)
Heartbeat CPU 1 instructions: 860000003 cycles: 363655849 heartbeat IPC: 2.28 cumulative IPC: 2.267 (Simulation time: 04 hr 51 min 07 sec)
Heartbeat CPU 1 instructions: 870000003 cycles: 368084980 heartbeat IPC: 2.258 cumulative IPC: 2.267 (Simulation time: 04 hr 53 min 58 sec)
Heartbeat CPU 1 instructions: 880000000 cycles: 372552106 heartbeat IPC: 2.239 cumulative IPC: 2.267 (Simulation time: 04 hr 56 min 43 sec)
Heartbeat CPU 1 instructions: 890000004 cycles: 377035947 heartbeat IPC: 2.23 cumulative IPC: 2.266 (Simulation time: 04 hr 59 min 29 sec)
Heartbeat CPU 1 instructions: 900000000 cycles: 381484702 heartbeat IPC: 2.248 cumulative IPC: 2.266 (Simulation time: 05 hr 02 min 14 sec)
Heartbeat CPU 1 instructions: 910000003 cycles: 386015191 heartbeat IPC: 2.207 cumulative IPC: 2.266 (Simulation time: 05 hr 05 min 13 sec)
Heartbeat CPU 3 instructions: 620000001 cycles: 387073811 heartbeat IPC: 0.4265 cumulative IPC: 1.472 (Simulation time: 05 hr 06 min 08 sec)
Heartbeat CPU 2 instructions: 440000004 cycles: 387146342 heartbeat IPC: 0.4043 cumulative IPC: 0.9733 (Simulation time: 05 hr 06 min 12 sec)
Heartbeat CPU 1 instructions: 920000001 cycles: 390394487 heartbeat IPC: 2.283 cumulative IPC: 2.266 (Simulation time: 05 hr 08 min 58 sec)
Heartbeat CPU 3 instructions: 630000002 cycles: 391035300 heartbeat IPC: 2.524 cumulative IPC: 1.484 (Simulation time: 05 hr 09 min 32 sec)
Heartbeat CPU 3 instructions: 640000004 cycles: 394532760 heartbeat IPC: 2.859 cumulative IPC: 1.496 (Simulation time: 05 hr 12 min 39 sec)
Heartbeat CPU 2 instructions: 450000003 cycles: 394715807 heartbeat IPC: 1.321 cumulative IPC: 0.9804 (Simulation time: 05 hr 12 min 49 sec)
Heartbeat CPU 1 instructions: 930000001 cycles: 394766060 heartbeat IPC: 2.288 cumulative IPC: 2.266 (Simulation time: 05 hr 12 min 51 sec)
Heartbeat CPU 0 instructions: 150000003 cycles: 397630631 heartbeat IPC: 0.2214 cumulative IPC: 0.2654 (Simulation time: 05 hr 15 min 23 sec)
Heartbeat CPU 3 instructions: 650000000 cycles: 398497199 heartbeat IPC: 2.522 cumulative IPC: 1.507 (Simulation time: 05 hr 16 min 07 sec)
Heartbeat CPU 1 instructions: 940000000 cycles: 399176174 heartbeat IPC: 2.268 cumulative IPC: 2.266 (Simulation time: 05 hr 16 min 40 sec)
Heartbeat CPU 2 instructions: 460000004 cycles: 401895481 heartbeat IPC: 1.393 cumulative IPC: 0.9882 (Simulation time: 05 hr 18 min 58 sec)
Heartbeat CPU 3 instructions: 660000001 cycles: 403409926 heartbeat IPC: 2.036 cumulative IPC: 1.514 (Simulation time: 05 hr 20 min 14 sec)
Heartbeat CPU 1 instructions: 950000000 cycles: 403625159 heartbeat IPC: 2.248 cumulative IPC: 2.266 (Simulation time: 05 hr 20 min 25 sec)
Heartbeat CPU 1 instructions: 960000003 cycles: 408085812 heartbeat IPC: 2.242 cumulative IPC: 2.266 (Simulation time: 05 hr 24 min 12 sec)
Heartbeat CPU 3 instructions: 670000000 cycles: 408356742 heartbeat IPC: 2.022 cumulative IPC: 1.52 (Simulation time: 05 hr 24 min 26 sec)
Heartbeat CPU 2 instructions: 470000002 cycles: 408846343 heartbeat IPC: 1.439 cumulative IPC: 0.9962 (Simulation time: 05 hr 24 min 50 sec)
Heartbeat CPU 1 instructions: 970000001 cycles: 412477315 heartbeat IPC: 2.277 cumulative IPC: 2.266 (Simulation time: 05 hr 27 min 56 sec)
Heartbeat CPU 3 instructions: 680000000 cycles: 412745032 heartbeat IPC: 2.279 cumulative IPC: 1.529 (Simulation time: 05 hr 28 min 09 sec)
Heartbeat CPU 2 instructions: 480000004 cycles: 415894163 heartbeat IPC: 1.419 cumulative IPC: 1.004 (Simulation time: 05 hr 30 min 54 sec)
Heartbeat CPU 1 instructions: 980000000 cycles: 416904193 heartbeat IPC: 2.259 cumulative IPC: 2.266 (Simulation time: 05 hr 31 min 47 sec)
Heartbeat CPU 3 instructions: 690000001 cycles: 416958387 heartbeat IPC: 2.373 cumulative IPC: 1.538 (Simulation time: 05 hr 31 min 50 sec)
Heartbeat CPU 1 instructions: 990000002 cycles: 421315064 heartbeat IPC: 2.267 cumulative IPC: 2.266 (Simulation time: 05 hr 35 min 22 sec)
Heartbeat CPU 2 instructions: 490000003 cycles: 424097110 heartbeat IPC: 1.219 cumulative IPC: 1.008 (Simulation time: 05 hr 37 min 28 sec)
Heartbeat CPU 3 instructions: 700000000 cycles: 424168645 heartbeat IPC: 1.387 cumulative IPC: 1.535 (Simulation time: 05 hr 37 min 31 sec)
Heartbeat CPU 0 instructions: 160000002 cycles: 425634859 heartbeat IPC: 0.3571 cumulative IPC: 0.2718 (Simulation time: 05 hr 38 min 41 sec)
Heartbeat CPU 1 instructions: 1000000004 cycles: 425756591 heartbeat IPC: 2.251 cumulative IPC: 2.265 (Simulation time: 05 hr 38 min 46 sec)
Heartbeat CPU 1 instructions: 1010000000 cycles: 430237656 heartbeat IPC: 2.232 cumulative IPC: 2.265 (Simulation time: 05 hr 41 min 38 sec)
Heartbeat CPU 1 instructions: 1020000002 cycles: 434666056 heartbeat IPC: 2.258 cumulative IPC: 2.265 (Simulation time: 05 hr 44 min 21 sec)
Heartbeat CPU 1 instructions: 1030000004 cycles: 439064530 heartbeat IPC: 2.274 cumulative IPC: 2.265 (Simulation time: 05 hr 47 min 03 sec)
Heartbeat CPU 1 instructions: 1040000001 cycles: 443446707 heartbeat IPC: 2.282 cumulative IPC: 2.265 (Simulation time: 05 hr 49 min 49 sec)
Heartbeat CPU 1 instructions: 1050000004 cycles: 447740956 heartbeat IPC: 2.329 cumulative IPC: 2.266 (Simulation time: 05 hr 52 min 44 sec)
Heartbeat CPU 3 instructions: 710000000 cycles: 448294278 heartbeat IPC: 0.4145 cumulative IPC: 1.472 (Simulation time: 05 hr 53 min 11 sec)
Heartbeat CPU 2 instructions: 500000002 cycles: 448695682 heartbeat IPC: 0.4065 cumulative IPC: 0.9736 (Simulation time: 05 hr 53 min 31 sec)
Heartbeat CPU 1 instructions: 1060000001 cycles: 452076399 heartbeat IPC: 2.307 cumulative IPC: 2.266 (Simulation time: 05 hr 56 min 26 sec)
Heartbeat CPU 3 instructions: 720000002 cycles: 452334670 heartbeat IPC: 2.475 cumulative IPC: 1.481 (Simulation time: 05 hr 56 min 39 sec)
Heartbeat CPU 3 instructions: 730000003 cycles: 455817312 heartbeat IPC: 2.871 cumulative IPC: 1.492 (Simulation time: 05 hr 59 min 47 sec)
Heartbeat CPU 2 instructions: 510000002 cycles: 456051709 heartbeat IPC: 1.359 cumulative IPC: 0.9801 (Simulation time: 06 hr 00 min 00 sec)
Heartbeat CPU 1 instructions: 1070000000 cycles: 456378456 heartbeat IPC: 2.324 cumulative IPC: 2.267 (Simulation time: 06 hr 00 min 16 sec)
Heartbeat CPU 3 instructions: 740000000 cycles: 459971526 heartbeat IPC: 2.407 cumulative IPC: 1.501 (Simulation time: 06 hr 03 min 24 sec)
Heartbeat CPU 1 instructions: 1080000000 cycles: 460690415 heartbeat IPC: 2.319 cumulative IPC: 2.267 (Simulation time: 06 hr 04 min 01 sec)
Heartbeat CPU 2 instructions: 520000003 cycles: 463185450 heartbeat IPC: 1.402 cumulative IPC: 0.9869 (Simulation time: 06 hr 06 min 09 sec)
Heartbeat CPU 3 instructions: 750000003 cycles: 464720972 heartbeat IPC: 2.106 cumulative IPC: 1.508 (Simulation time: 06 hr 07 min 28 sec)
Heartbeat CPU 1 instructions: 1090000000 cycles: 464992402 heartbeat IPC: 2.325 cumulative IPC: 2.268 (Simulation time: 06 hr 07 min 42 sec)
Heartbeat CPU 0 instructions: 170000001 cycles: 468137641 heartbeat IPC: 0.2353 cumulative IPC: 0.2683 (Simulation time: 06 hr 10 min 24 sec)
Heartbeat CPU 1 instructions: 1100000000 cycles: 469277690 heartbeat IPC: 2.334 cumulative IPC: 2.269 (Simulation time: 06 hr 11 min 23 sec)
Heartbeat CPU 3 instructions: 760000000 cycles: 469573611 heartbeat IPC: 2.061 cumulative IPC: 1.514 (Simulation time: 06 hr 11 min 38 sec)
Heartbeat CPU 2 instructions: 530000003 cycles: 469983144 heartbeat IPC: 1.471 cumulative IPC: 0.9942 (Simulation time: 06 hr 11 min 58 sec)
Heartbeat CPU 1 instructions: 1110000001 cycles: 473610415 heartbeat IPC: 2.308 cumulative IPC: 2.269 (Simulation time: 06 hr 15 min 06 sec)
Heartbeat CPU 3 instructions: 770000003 cycles: 474080606 heartbeat IPC: 2.219 cumulative IPC: 1.521 (Simulation time: 06 hr 15 min 29 sec)
Heartbeat CPU 2 instructions: 540000002 cycles: 476779842 heartbeat IPC: 1.471 cumulative IPC: 1.001 (Simulation time: 06 hr 17 min 49 sec)
Heartbeat CPU 1 instructions: 1120000004 cycles: 477917478 heartbeat IPC: 2.322 cumulative IPC: 2.269 (Simulation time: 06 hr 18 min 50 sec)
Heartbeat CPU 3 instructions: 780000002 cycles: 478367438 heartbeat IPC: 2.333 cumulative IPC: 1.528 (Simulation time: 06 hr 19 min 13 sec)
Heartbeat CPU 1 instructions: 1130000000 cycles: 482285709 heartbeat IPC: 2.289 cumulative IPC: 2.27 (Simulation time: 06 hr 22 min 26 sec)
Heartbeat CPU 2 instructions: 550000002 cycles: 483884454 heartbeat IPC: 1.408 cumulative IPC: 1.008 (Simulation time: 06 hr 23 min 39 sec)
Heartbeat CPU 3 instructions: 790000003 cycles: 484765721 heartbeat IPC: 1.563 cumulative IPC: 1.529 (Simulation time: 06 hr 24 min 21 sec)
Heartbeat CPU 1 instructions: 1140000002 cycles: 486631809 heartbeat IPC: 2.301 cumulative IPC: 2.27 (Simulation time: 06 hr 25 min 44 sec)
Heartbeat CPU 1 instructions: 1150000000 cycles: 490923916 heartbeat IPC: 2.33 cumulative IPC: 2.27 (Simulation time: 06 hr 28 min 33 sec)
Heartbeat CPU 1 instructions: 1160000001 cycles: 499460398 heartbeat IPC: 1.171 cumulative IPC: 2.251 (Simulation time: 06 hr 33 min 27 sec)
Heartbeat CPU 1 instructions: 1170000004 cycles: 503870082 heartbeat IPC: 2.268 cumulative IPC: 2.251 (Simulation time: 06 hr 36 min 07 sec)
Heartbeat CPU 1 instructions: 1180000001 cycles: 508218036 heartbeat IPC: 2.3 cumulative IPC: 2.251 (Simulation time: 06 hr 38 min 49 sec)
Heartbeat CPU 2 instructions: 560000003 cycles: 511612417 heartbeat IPC: 0.3606 cumulative IPC: 0.971 (Simulation time: 06 hr 40 min 58 sec)
Heartbeat CPU 3 instructions: 800000000 cycles: 512519551 heartbeat IPC: 0.3603 cumulative IPC: 1.463 (Simulation time: 06 hr 41 min 37 sec)
Heartbeat CPU 1 instructions: 1190000001 cycles: 512595977 heartbeat IPC: 2.284 cumulative IPC: 2.252 (Simulation time: 06 hr 41 min 41 sec)
Heartbeat CPU 0 instructions: 180000001 cycles: 516314502 heartbeat IPC: 0.2076 cumulative IPC: 0.2624 (Simulation time: 06 hr 44 min 50 sec)
Heartbeat CPU 3 instructions: 810000001 cycles: 516479193 heartbeat IPC: 2.525 cumulative IPC: 1.471 (Simulation time: 06 hr 44 min 59 sec)
Heartbeat CPU 1 instructions: 1200000001 cycles: 516875601 heartbeat IPC: 2.337 cumulative IPC: 2.252 (Simulation time: 06 hr 45 min 20 sec)
Heartbeat CPU 2 instructions: 570000003 cycles: 519629483 heartbeat IPC: 1.247 cumulative IPC: 0.9754 (Simulation time: 06 hr 47 min 46 sec)
Heartbeat CPU 3 instructions: 820000003 cycles: 519909487 heartbeat IPC: 2.915 cumulative IPC: 1.481 (Simulation time: 06 hr 48 min 01 sec)
Heartbeat CPU 1 instructions: 1210000002 cycles: 521169895 heartbeat IPC: 2.329 cumulative IPC: 2.253 (Simulation time: 06 hr 49 min 07 sec)
Heartbeat CPU 3 instructions: 830000001 cycles: 524228664 heartbeat IPC: 2.315 cumulative IPC: 1.488 (Simulation time: 06 hr 51 min 44 sec)
Heartbeat CPU 1 instructions: 1220000003 cycles: 525479515 heartbeat IPC: 2.32 cumulative IPC: 2.254 (Simulation time: 06 hr 52 min 51 sec)
Heartbeat CPU 2 instructions: 580000000 cycles: 526518582 heartbeat IPC: 1.452 cumulative IPC: 0.9819 (Simulation time: 06 hr 53 min 43 sec)
Heartbeat CPU 3 instructions: 840000001 cycles: 528674843 heartbeat IPC: 2.249 cumulative IPC: 1.495 (Simulation time: 06 hr 55 min 34 sec)
Heartbeat CPU 1 instructions: 1230000004 cycles: 529759775 heartbeat IPC: 2.336 cumulative IPC: 2.254 (Simulation time: 06 hr 56 min 29 sec)
Heartbeat CPU 2 instructions: 590000000 cycles: 533351049 heartbeat IPC: 1.464 cumulative IPC: 0.9884 (Simulation time: 06 hr 59 min 33 sec)
Heartbeat CPU 3 instructions: 850000003 cycles: 533503174 heartbeat IPC: 2.071 cumulative IPC: 1.5 (Simulation time: 06 hr 59 min 41 sec)
Heartbeat CPU 1 instructions: 1240000002 cycles: 534071301 heartbeat IPC: 2.319 cumulative IPC: 2.255 (Simulation time: 07 hr 00 min 10 sec)
Heartbeat CPU 3 instructions: 860000001 cycles: 537936390 heartbeat IPC: 2.256 cumulative IPC: 1.507 (Simulation time: 07 hr 03 min 26 sec)
Heartbeat CPU 1 instructions: 1250000003 cycles: 538410940 heartbeat IPC: 2.304 cumulative IPC: 2.255 (Simulation time: 07 hr 03 min 49 sec)
Heartbeat CPU 2 instructions: 600000000 cycles: 540281382 heartbeat IPC: 1.443 cumulative IPC: 0.9944 (Simulation time: 07 hr 05 min 23 sec)
Heartbeat CPU 3 instructions: 870000000 cycles: 542357732 heartbeat IPC: 2.262 cumulative IPC: 1.513 (Simulation time: 07 hr 07 min 09 sec)
Heartbeat CPU 0 instructions: 190000003 cycles: 542577421 heartbeat IPC: 0.3808 cumulative IPC: 0.2684 (Simulation time: 07 hr 07 min 21 sec)
Heartbeat CPU 1 instructions: 1260000000 cycles: 542697090 heartbeat IPC: 2.333 cumulative IPC: 2.256 (Simulation time: 07 hr 07 min 28 sec)
Heartbeat CPU 1 instructions: 1270000000 cycles: 546980167 heartbeat IPC: 2.335 cumulative IPC: 2.257 (Simulation time: 07 hr 10 min 52 sec)
Heartbeat CPU 2 instructions: 610000003 cycles: 547320928 heartbeat IPC: 1.421 cumulative IPC: 1 (Simulation time: 07 hr 11 min 08 sec)
Heartbeat CPU 3 instructions: 880000000 cycles: 548456213 heartbeat IPC: 1.64 cumulative IPC: 1.515 (Simulation time: 07 hr 12 min 00 sec)
Heartbeat CPU 1 instructions: 1280000001 cycles: 551261138 heartbeat IPC: 2.336 cumulative IPC: 2.257 (Simulation time: 07 hr 14 min 07 sec)
Heartbeat CPU 1 instructions: 1290000003 cycles: 555635616 heartbeat IPC: 2.286 cumulative IPC: 2.258 (Simulation time: 07 hr 16 min 52 sec)
Heartbeat CPU 1 instructions: 1300000001 cycles: 559988496 heartbeat IPC: 2.297 cumulative IPC: 2.258 (Simulation time: 07 hr 19 min 30 sec)
Heartbeat CPU 1 instructions: 1310000003 cycles: 564398725 heartbeat IPC: 2.267 cumulative IPC: 2.258 (Simulation time: 07 hr 22 min 10 sec)
Heartbeat CPU 1 instructions: 1320000003 cycles: 568822759 heartbeat IPC: 2.26 cumulative IPC: 2.258 (Simulation time: 07 hr 24 min 52 sec)
Heartbeat CPU 2 instructions: 620000003 cycles: 571872913 heartbeat IPC: 0.4073 cumulative IPC: 0.9737 (Simulation time: 07 hr 26 min 45 sec)
Heartbeat CPU 3 instructions: 890000004 cycles: 572938917 heartbeat IPC: 0.4085 cumulative IPC: 1.466 (Simulation time: 07 hr 27 min 31 sec)
Heartbeat CPU 1 instructions: 1330000004 cycles: 573252652 heartbeat IPC: 2.257 cumulative IPC: 2.258 (Simulation time: 07 hr 27 min 47 sec)
Heartbeat CPU 3 instructions: 900000000 cycles: 576811369 heartbeat IPC: 2.582 cumulative IPC: 1.473 (Simulation time: 07 hr 30 min 51 sec)
Heartbeat CPU 1 instructions: 1340000000 cycles: 577642195 heartbeat IPC: 2.278 cumulative IPC: 2.258 (Simulation time: 07 hr 31 min 36 sec)
Heartbeat CPU 2 instructions: 630000002 cycles: 580040926 heartbeat IPC: 1.224 cumulative IPC: 0.9774 (Simulation time: 07 hr 33 min 43 sec)
Heartbeat CPU 3 instructions: 910000000 cycles: 580300615 heartbeat IPC: 2.866 cumulative IPC: 1.482 (Simulation time: 07 hr 33 min 57 sec)
Heartbeat CPU 1 instructions: 1350000002 cycles: 582030133 heartbeat IPC: 2.279 cumulative IPC: 2.258 (Simulation time: 07 hr 35 min 30 sec)
Heartbeat CPU 3 instructions: 920000000 cycles: 583763217 heartbeat IPC: 2.888 cumulative IPC: 1.491 (Simulation time: 07 hr 37 min 03 sec)
Heartbeat CPU 0 instructions: 200000001 cycles: 586333427 heartbeat IPC: 0.2285 cumulative IPC: 0.2653 (Simulation time: 07 hr 39 min 16 sec)
Simulation finished CPU 0 instructions: 150000003 cycles: 565460316 cumulative IPC: 0.2653 (Simulation time: 07 hr 39 min 16 sec)
Simulation complete CPU 0 instructions: 150000003 cycles: 565460316 cumulative IPC: 0.2653 (Simulation time: 07 hr 39 min 16 sec)
Simulation complete CPU 1 instructions: 1277061870 cycles: 565460316 cumulative IPC: 2.258 (Simulation time: 07 hr 39 min 16 sec)
Simulation complete CPU 2 instructions: 555419918 cycles: 565460316 cumulative IPC: 0.9822 (Simulation time: 07 hr 39 min 16 sec)
Simulation complete CPU 3 instructions: 844988527 cycles: 565460316 cumulative IPC: 1.494 (Simulation time: 07 hr 39 min 16 sec)

ChampSim completed all CPUs

=== Simulation ===
CPU 0 runs /home/grads/r/rdas40/dpc3_traces/620.omnetpp_s-874B.champsimtrace.xzCPU 1 runs /home/grads/r/rdas40/dpc3_traces/603.bwaves_s-3699B.champsimtrace.xzCPU 2 runs /home/grads/r/rdas40/dpc3_traces/649.fotonik3d_s-1176B.champsimtrace.xzCPU 3 runs /home/grads/r/rdas40/dpc3_traces/627.cam4_s-573B.champsimtrace.xz
Total Simulation Statistics (not including warmup)

CPU 0 cumulative IPC: 0.2653 instructions: 150000003 cycles: 565460316
CPU 0 Branch Prediction Accuracy: 94.9% MPKI: 10.6 Average ROB Occupancy at Mispredict: 83.03
Branch type MPKI
BRANCH_DIRECT_JUMP: 0.923
BRANCH_INDIRECT: 0.128
BRANCH_CONDITIONAL: 8.42
BRANCH_DIRECT_CALL: 0.00016
BRANCH_INDIRECT_CALL: 0.734
BRANCH_RETURN: 0.399


CPU 1 cumulative IPC: 2.258 instructions: 1277061870 cycles: 565460316
CPU 1 Branch Prediction Accuracy: 90.07% MPKI: 14.43 Average ROB Occupancy at Mispredict: 30.18
Branch type MPKI
BRANCH_DIRECT_JUMP: 0.0568
BRANCH_INDIRECT: 0
BRANCH_CONDITIONAL: 14.3
BRANCH_DIRECT_CALL: 0
BRANCH_INDIRECT_CALL: 0
BRANCH_RETURN: 0.0618


CPU 2 cumulative IPC: 0.9822 instructions: 555419918 cycles: 565460316
CPU 2 Branch Prediction Accuracy: 99.66% MPKI: 0.06173 Average ROB Occupancy at Mispredict: 84.04
Branch type MPKI
BRANCH_DIRECT_JUMP: 0.00016
BRANCH_INDIRECT: 0
BRANCH_CONDITIONAL: 0.0471
BRANCH_DIRECT_CALL: 2.88e-05
BRANCH_INDIRECT_CALL: 0
BRANCH_RETURN: 0.0144


CPU 3 cumulative IPC: 1.494 instructions: 844988527 cycles: 565460316
CPU 3 Branch Prediction Accuracy: 94.74% MPKI: 7.003 Average ROB Occupancy at Mispredict: 67.74
Branch type MPKI
BRANCH_DIRECT_JUMP: 0.00538
BRANCH_INDIRECT: 0.00153
BRANCH_CONDITIONAL: 6.34
BRANCH_DIRECT_CALL: 0.0182
BRANCH_INDIRECT_CALL: 0
BRANCH_RETURN: 0.634

LLC TOTAL        ACCESS:    4680252 HIT:    1880695 MISS:    2799557
LLC LOAD         ACCESS:    1679549 HIT:     475202 MISS:    1204347
LLC RFO          ACCESS:     256493 HIT:     115943 MISS:     140550
LLC PREFETCH     ACCESS:    1175967 HIT:     324121 MISS:     851846
LLC WRITE        ACCESS:     971263 HIT:     909146 MISS:      62117
LLC TRANSLATION  ACCESS:     596980 HIT:      56283 MISS:     540697
LLC PREFETCH REQUESTED:          0 ISSUED:          0 USEFUL:          0 USELESS:          0
LLC AVERAGE MISS LATENCY: 439.3 cycles
LLC TOTAL        ACCESS:     516155 HIT:     133106 MISS:     383049
LLC LOAD         ACCESS:      13919 HIT:      10422 MISS:       3497
LLC RFO          ACCESS:     183569 HIT:        155 MISS:     183414
LLC PREFETCH     ACCESS:     134752 HIT:      45349 MISS:      89403
LLC WRITE        ACCESS:     183890 HIT:      77179 MISS:     106711
LLC TRANSLATION  ACCESS:         25 HIT:          1 MISS:         24
LLC PREFETCH REQUESTED:          0 ISSUED:          0 USEFUL:          0 USELESS:          0
LLC AVERAGE MISS LATENCY: 439.3 cycles
LLC TOTAL        ACCESS:   25994600 HIT:    8917621 MISS:   17076979
LLC LOAD         ACCESS:    1659109 HIT:     594687 MISS:    1064422
LLC RFO          ACCESS:        887 HIT:        879 MISS:          8
LLC PREFETCH     ACCESS:   19493783 HIT:    3486259 MISS:   16007524
LLC WRITE        ACCESS:    4840064 HIT:    4835556 MISS:       4508
LLC TRANSLATION  ACCESS:        757 HIT:        240 MISS:        517
LLC PREFETCH REQUESTED:          0 ISSUED:          0 USEFUL:          0 USELESS:          0
LLC AVERAGE MISS LATENCY: 439.3 cycles
LLC TOTAL        ACCESS:   10428356 HIT:    5173148 MISS:    5255208
LLC LOAD         ACCESS:     522092 HIT:     184226 MISS:     337866
LLC RFO          ACCESS:    4373932 HIT:      85635 MISS:    4288297
LLC PREFETCH     ACCESS:    1080217 HIT:     544470 MISS:     535747
LLC WRITE        ACCESS:    4437610 HIT:    4357349 MISS:      80261
LLC TRANSLATION  ACCESS:      14505 HIT:       1468 MISS:      13037
LLC PREFETCH REQUESTED:          0 ISSUED:          0 USEFUL:          0 USELESS:          0
LLC AVERAGE MISS LATENCY: 439.3 cycles
cpu0_DTLB TOTAL        ACCESS:   38182318 HIT:   34887150 MISS:    3295168
cpu0_DTLB LOAD         ACCESS:   38182318 HIT:   34887150 MISS:    3295168
cpu0_DTLB RFO          ACCESS:          0 HIT:          0 MISS:          0
cpu0_DTLB PREFETCH     ACCESS:          0 HIT:          0 MISS:          0
cpu0_DTLB WRITE        ACCESS:          0 HIT:          0 MISS:          0
cpu0_DTLB TRANSLATION  ACCESS:          0 HIT:          0 MISS:          0
cpu0_DTLB PREFETCH REQUESTED:          0 ISSUED:          0 USEFUL:          0 USELESS:          0
cpu0_DTLB AVERAGE MISS LATENCY: 109.2 cycles
cpu0_DTLB TOTAL        ACCESS:          0 HIT:          0 MISS:          0
cpu0_DTLB LOAD         ACCESS:          0 HIT:          0 MISS:          0
cpu0_DTLB RFO          ACCESS:          0 HIT:          0 MISS:          0
cpu0_DTLB PREFETCH     ACCESS:          0 HIT:          0 MISS:          0
cpu0_DTLB WRITE        ACCESS:          0 HIT:          0 MISS:          0
cpu0_DTLB TRANSLATION  ACCESS:          0 HIT:          0 MISS:          0
cpu0_DTLB PREFETCH REQUESTED:          0 ISSUED:          0 USEFUL:          0 USELESS:          0
cpu0_DTLB AVERAGE MISS LATENCY: 109.2 cycles
cpu0_DTLB TOTAL        ACCESS:          0 HIT:          0 MISS:          0
cpu0_DTLB LOAD         ACCESS:          0 HIT:          0 MISS:          0
cpu0_DTLB RFO          ACCESS:          0 HIT:          0 MISS:          0
cpu0_DTLB PREFETCH     ACCESS:          0 HIT:          0 MISS:          0
cpu0_DTLB WRITE        ACCESS:          0 HIT:          0 MISS:          0
cpu0_DTLB TRANSLATION  ACCESS:          0 HIT:          0 MISS:          0
cpu0_DTLB PREFETCH REQUESTED:          0 ISSUED:          0 USEFUL:          0 USELESS:          0
cpu0_DTLB AVERAGE MISS LATENCY: 109.2 cycles
cpu0_DTLB TOTAL        ACCESS:          0 HIT:          0 MISS:          0
cpu0_DTLB LOAD         ACCESS:          0 HIT:          0 MISS:          0
cpu0_DTLB RFO          ACCESS:          0 HIT:          0 MISS:          0
cpu0_DTLB PREFETCH     ACCESS:          0 HIT:          0 MISS:          0
cpu0_DTLB WRITE        ACCESS:          0 HIT:          0 MISS:          0
cpu0_DTLB TRANSLATION  ACCESS:          0 HIT:          0 MISS:          0
cpu0_DTLB PREFETCH REQUESTED:          0 ISSUED:          0 USEFUL:          0 USELESS:          0
cpu0_DTLB AVERAGE MISS LATENCY: 109.2 cycles
cpu0_ITLB TOTAL        ACCESS:   10780861 HIT:   10508878 MISS:     271983
cpu0_ITLB LOAD         ACCESS:   10780861 HIT:   10508878 MISS:     271983
cpu0_ITLB RFO          ACCESS:          0 HIT:          0 MISS:          0
cpu0_ITLB PREFETCH     ACCESS:          0 HIT:          0 MISS:          0
cpu0_ITLB WRITE        ACCESS:          0 HIT:          0 MISS:          0
cpu0_ITLB TRANSLATION  ACCESS:          0 HIT:          0 MISS:          0
cpu0_ITLB PREFETCH REQUESTED:          0 ISSUED:          0 USEFUL:          0 USELESS:          0
cpu0_ITLB AVERAGE MISS LATENCY: 9.467 cycles
cpu0_ITLB TOTAL        ACCESS:          0 HIT:          0 MISS:          0
cpu0_ITLB LOAD         ACCESS:          0 HIT:          0 MISS:          0
cpu0_ITLB RFO          ACCESS:          0 HIT:          0 MISS:          0
cpu0_ITLB PREFETCH     ACCESS:          0 HIT:          0 MISS:          0
cpu0_ITLB WRITE        ACCESS:          0 HIT:          0 MISS:          0
cpu0_ITLB TRANSLATION  ACCESS:          0 HIT:          0 MISS:          0
cpu0_ITLB PREFETCH REQUESTED:          0 ISSUED:          0 USEFUL:          0 USELESS:          0
cpu0_ITLB AVERAGE MISS LATENCY: 9.467 cycles
cpu0_ITLB TOTAL        ACCESS:          0 HIT:          0 MISS:          0
cpu0_ITLB LOAD         ACCESS:          0 HIT:          0 MISS:          0
cpu0_ITLB RFO          ACCESS:          0 HIT:          0 MISS:          0
cpu0_ITLB PREFETCH     ACCESS:          0 HIT:          0 MISS:          0
cpu0_ITLB WRITE        ACCESS:          0 HIT:          0 MISS:          0
cpu0_ITLB TRANSLATION  ACCESS:          0 HIT:          0 MISS:          0
cpu0_ITLB PREFETCH REQUESTED:          0 ISSUED:          0 USEFUL:          0 USELESS:          0
cpu0_ITLB AVERAGE MISS LATENCY: 9.467 cycles
cpu0_ITLB TOTAL        ACCESS:          0 HIT:          0 MISS:          0
cpu0_ITLB LOAD         ACCESS:          0 HIT:          0 MISS:          0
cpu0_ITLB RFO          ACCESS:          0 HIT:          0 MISS:          0
cpu0_ITLB PREFETCH     ACCESS:          0 HIT:          0 MISS:          0
cpu0_ITLB WRITE        ACCESS:          0 HIT:          0 MISS:          0
cpu0_ITLB TRANSLATION  ACCESS:          0 HIT:          0 MISS:          0
cpu0_ITLB PREFETCH REQUESTED:          0 ISSUED:          0 USEFUL:          0 USELESS:          0
cpu0_ITLB AVERAGE MISS LATENCY: 9.467 cycles
cpu0_L1D TOTAL        ACCESS:   49716435 HIT:   44840351 MISS:    4876084
cpu0_L1D LOAD         ACCESS:   22897859 HIT:   19859313 MISS:    3038546
cpu0_L1D RFO          ACCESS:          0 HIT:          0 MISS:          0
cpu0_L1D PREFETCH     ACCESS:          0 HIT:          0 MISS:          0
cpu0_L1D WRITE        ACCESS:   25927385 HIT:   24835876 MISS:    1091509
cpu0_L1D TRANSLATION  ACCESS:     891191 HIT:     145162 MISS:     746029
cpu0_L1D PREFETCH REQUESTED:          0 ISSUED:          0 USEFUL:          0 USELESS:          0
cpu0_L1D AVERAGE MISS LATENCY: 253.5 cycles
cpu0_L1D TOTAL        ACCESS:          0 HIT:          0 MISS:          0
cpu0_L1D LOAD         ACCESS:          0 HIT:          0 MISS:          0
cpu0_L1D RFO          ACCESS:          0 HIT:          0 MISS:          0
cpu0_L1D PREFETCH     ACCESS:          0 HIT:          0 MISS:          0
cpu0_L1D WRITE        ACCESS:          0 HIT:          0 MISS:          0
cpu0_L1D TRANSLATION  ACCESS:          0 HIT:          0 MISS:          0
cpu0_L1D PREFETCH REQUESTED:          0 ISSUED:          0 USEFUL:          0 USELESS:          0
cpu0_L1D AVERAGE MISS LATENCY: 253.5 cycles
cpu0_L1D TOTAL        ACCESS:          0 HIT:          0 MISS:          0
cpu0_L1D LOAD         ACCESS:          0 HIT:          0 MISS:          0
cpu0_L1D RFO          ACCESS:          0 HIT:          0 MISS:          0
cpu0_L1D PREFETCH     ACCESS:          0 HIT:          0 MISS:          0
cpu0_L1D WRITE        ACCESS:          0 HIT:          0 MISS:          0
cpu0_L1D TRANSLATION  ACCESS:          0 HIT:          0 MISS:          0
cpu0_L1D PREFETCH REQUESTED:          0 ISSUED:          0 USEFUL:          0 USELESS:          0
cpu0_L1D AVERAGE MISS LATENCY: 253.5 cycles
cpu0_L1D TOTAL        ACCESS:          0 HIT:          0 MISS:          0
cpu0_L1D LOAD         ACCESS:          0 HIT:          0 MISS:          0
cpu0_L1D RFO          ACCESS:          0 HIT:          0 MISS:          0
cpu0_L1D PREFETCH     ACCESS:          0 HIT:          0 MISS:          0
cpu0_L1D WRITE        ACCESS:          0 HIT:          0 MISS:          0
cpu0_L1D TRANSLATION  ACCESS:          0 HIT:          0 MISS:          0
cpu0_L1D PREFETCH REQUESTED:          0 ISSUED:          0 USEFUL:          0 USELESS:          0
cpu0_L1D AVERAGE MISS LATENCY: 253.5 cycles
cpu0_L1I TOTAL        ACCESS:   12865338 HIT:   12791426 MISS:      73912
cpu0_L1I LOAD         ACCESS:   12865338 HIT:   12791426 MISS:      73912
cpu0_L1I RFO          ACCESS:          0 HIT:          0 MISS:          0
cpu0_L1I PREFETCH     ACCESS:          0 HIT:          0 MISS:          0
cpu0_L1I WRITE        ACCESS:          0 HIT:          0 MISS:          0
cpu0_L1I TRANSLATION  ACCESS:          0 HIT:          0 MISS:          0
cpu0_L1I PREFETCH REQUESTED:          0 ISSUED:          0 USEFUL:          0 USELESS:          0
cpu0_L1I AVERAGE MISS LATENCY: 49.07 cycles
cpu0_L1I TOTAL        ACCESS:          0 HIT:          0 MISS:          0
cpu0_L1I LOAD         ACCESS:          0 HIT:          0 MISS:          0
cpu0_L1I RFO          ACCESS:          0 HIT:          0 MISS:          0
cpu0_L1I PREFETCH     ACCESS:          0 HIT:          0 MISS:          0
cpu0_L1I WRITE        ACCESS:          0 HIT:          0 MISS:          0
cpu0_L1I TRANSLATION  ACCESS:          0 HIT:          0 MISS:          0
cpu0_L1I PREFETCH REQUESTED:          0 ISSUED:          0 USEFUL:          0 USELESS:          0
cpu0_L1I AVERAGE MISS LATENCY: 49.07 cycles
cpu0_L1I TOTAL        ACCESS:          0 HIT:          0 MISS:          0
cpu0_L1I LOAD         ACCESS:          0 HIT:          0 MISS:          0
cpu0_L1I RFO          ACCESS:          0 HIT:          0 MISS:          0
cpu0_L1I PREFETCH     ACCESS:          0 HIT:          0 MISS:          0
cpu0_L1I WRITE        ACCESS:          0 HIT:          0 MISS:          0
cpu0_L1I TRANSLATION  ACCESS:          0 HIT:          0 MISS:          0
cpu0_L1I PREFETCH REQUESTED:          0 ISSUED:          0 USEFUL:          0 USELESS:          0
cpu0_L1I AVERAGE MISS LATENCY: 49.07 cycles
cpu0_L1I TOTAL        ACCESS:          0 HIT:          0 MISS:          0
cpu0_L1I LOAD         ACCESS:          0 HIT:          0 MISS:          0
cpu0_L1I RFO          ACCESS:          0 HIT:          0 MISS:          0
cpu0_L1I PREFETCH     ACCESS:          0 HIT:          0 MISS:          0
cpu0_L1I WRITE        ACCESS:          0 HIT:          0 MISS:          0
cpu0_L1I TRANSLATION  ACCESS:          0 HIT:          0 MISS:          0
cpu0_L1I PREFETCH REQUESTED:          0 ISSUED:          0 USEFUL:          0 USELESS:          0
cpu0_L1I AVERAGE MISS LATENCY: 49.07 cycles
cpu0_L2C TOTAL        ACCESS:    7977623 HIT:    3257879 MISS:    4719744
cpu0_L2C LOAD         ACCESS:    2539718 HIT:     856300 MISS:    1683418
cpu0_L2C RFO          ACCESS:     365217 HIT:     108393 MISS:     256824
cpu0_L2C PREFETCH     ACCESS:    2927088 HIT:     746777 MISS:    2180311
cpu0_L2C WRITE        ACCESS:    1400357 HIT:    1398146 MISS:       2211
cpu0_L2C TRANSLATION  ACCESS:     745243 HIT:     148263 MISS:     596980
cpu0_L2C PREFETCH REQUESTED:    2927209 ISSUED:    2927088 USEFUL:      15674 USELESS:      32678
cpu0_L2C AVERAGE MISS LATENCY: 264.5 cycles
cpu0_L2C TOTAL        ACCESS:          0 HIT:          0 MISS:          0
cpu0_L2C LOAD         ACCESS:          0 HIT:          0 MISS:          0
cpu0_L2C RFO          ACCESS:          0 HIT:          0 MISS:          0
cpu0_L2C PREFETCH     ACCESS:          0 HIT:          0 MISS:          0
cpu0_L2C WRITE        ACCESS:          0 HIT:          0 MISS:          0
cpu0_L2C TRANSLATION  ACCESS:          0 HIT:          0 MISS:          0
cpu0_L2C PREFETCH REQUESTED:    2927209 ISSUED:    2927088 USEFUL:      15674 USELESS:      32678
cpu0_L2C AVERAGE MISS LATENCY: 264.5 cycles
cpu0_L2C TOTAL        ACCESS:          0 HIT:          0 MISS:          0
cpu0_L2C LOAD         ACCESS:          0 HIT:          0 MISS:          0
cpu0_L2C RFO          ACCESS:          0 HIT:          0 MISS:          0
cpu0_L2C PREFETCH     ACCESS:          0 HIT:          0 MISS:          0
cpu0_L2C WRITE        ACCESS:          0 HIT:          0 MISS:          0
cpu0_L2C TRANSLATION  ACCESS:          0 HIT:          0 MISS:          0
cpu0_L2C PREFETCH REQUESTED:    2927209 ISSUED:    2927088 USEFUL:      15674 USELESS:      32678
cpu0_L2C AVERAGE MISS LATENCY: 264.5 cycles
cpu0_L2C TOTAL        ACCESS:          0 HIT:          0 MISS:          0
cpu0_L2C LOAD         ACCESS:          0 HIT:          0 MISS:          0
cpu0_L2C RFO          ACCESS:          0 HIT:          0 MISS:          0
cpu0_L2C PREFETCH     ACCESS:          0 HIT:          0 MISS:          0
cpu0_L2C WRITE        ACCESS:          0 HIT:          0 MISS:          0
cpu0_L2C TRANSLATION  ACCESS:          0 HIT:          0 MISS:          0
cpu0_L2C PREFETCH REQUESTED:    2927209 ISSUED:    2927088 USEFUL:      15674 USELESS:      32678
cpu0_L2C AVERAGE MISS LATENCY: 264.5 cycles
cpu0_STLB TOTAL        ACCESS:    3014433 HIT:    2371995 MISS:     642438
cpu0_STLB LOAD         ACCESS:    3014433 HIT:    2371995 MISS:     642438
cpu0_STLB RFO          ACCESS:          0 HIT:          0 MISS:          0
cpu0_STLB PREFETCH     ACCESS:          0 HIT:          0 MISS:          0
cpu0_STLB WRITE        ACCESS:          0 HIT:          0 MISS:          0
cpu0_STLB TRANSLATION  ACCESS:          0 HIT:          0 MISS:          0
cpu0_STLB PREFETCH REQUESTED:          0 ISSUED:          0 USEFUL:          0 USELESS:          0
cpu0_STLB AVERAGE MISS LATENCY: 542.8 cycles
cpu0_STLB TOTAL        ACCESS:          0 HIT:          0 MISS:          0
cpu0_STLB LOAD         ACCESS:          0 HIT:          0 MISS:          0
cpu0_STLB RFO          ACCESS:          0 HIT:          0 MISS:          0
cpu0_STLB PREFETCH     ACCESS:          0 HIT:          0 MISS:          0
cpu0_STLB WRITE        ACCESS:          0 HIT:          0 MISS:          0
cpu0_STLB TRANSLATION  ACCESS:          0 HIT:          0 MISS:          0
cpu0_STLB PREFETCH REQUESTED:          0 ISSUED:          0 USEFUL:          0 USELESS:          0
cpu0_STLB AVERAGE MISS LATENCY: 542.8 cycles
cpu0_STLB TOTAL        ACCESS:          0 HIT:          0 MISS:          0
cpu0_STLB LOAD         ACCESS:          0 HIT:          0 MISS:          0
cpu0_STLB RFO          ACCESS:          0 HIT:          0 MISS:          0
cpu0_STLB PREFETCH     ACCESS:          0 HIT:          0 MISS:          0
cpu0_STLB WRITE        ACCESS:          0 HIT:          0 MISS:          0
cpu0_STLB TRANSLATION  ACCESS:          0 HIT:          0 MISS:          0
cpu0_STLB PREFETCH REQUESTED:          0 ISSUED:          0 USEFUL:          0 USELESS:          0
cpu0_STLB AVERAGE MISS LATENCY: 542.8 cycles
cpu0_STLB TOTAL        ACCESS:          0 HIT:          0 MISS:          0
cpu0_STLB LOAD         ACCESS:          0 HIT:          0 MISS:          0
cpu0_STLB RFO          ACCESS:          0 HIT:          0 MISS:          0
cpu0_STLB PREFETCH     ACCESS:          0 HIT:          0 MISS:          0
cpu0_STLB WRITE        ACCESS:          0 HIT:          0 MISS:          0
cpu0_STLB TRANSLATION  ACCESS:          0 HIT:          0 MISS:          0
cpu0_STLB PREFETCH REQUESTED:          0 ISSUED:          0 USEFUL:          0 USELESS:          0
cpu0_STLB AVERAGE MISS LATENCY: 542.8 cycles
cpu1_DTLB TOTAL        ACCESS:          0 HIT:          0 MISS:          0
cpu1_DTLB LOAD         ACCESS:          0 HIT:          0 MISS:          0
cpu1_DTLB RFO          ACCESS:          0 HIT:          0 MISS:          0
cpu1_DTLB PREFETCH     ACCESS:          0 HIT:          0 MISS:          0
cpu1_DTLB WRITE        ACCESS:          0 HIT:          0 MISS:          0
cpu1_DTLB TRANSLATION  ACCESS:          0 HIT:          0 MISS:          0
cpu1_DTLB PREFETCH REQUESTED:          0 ISSUED:          0 USEFUL:          0 USELESS:          0
cpu1_DTLB AVERAGE MISS LATENCY: 17.04 cycles
cpu1_DTLB TOTAL        ACCESS:  160957051 HIT:  160926675 MISS:      30376
cpu1_DTLB LOAD         ACCESS:  160957051 HIT:  160926675 MISS:      30376
cpu1_DTLB RFO          ACCESS:          0 HIT:          0 MISS:          0
cpu1_DTLB PREFETCH     ACCESS:          0 HIT:          0 MISS:          0
cpu1_DTLB WRITE        ACCESS:          0 HIT:          0 MISS:          0
cpu1_DTLB TRANSLATION  ACCESS:          0 HIT:          0 MISS:          0
cpu1_DTLB PREFETCH REQUESTED:          0 ISSUED:          0 USEFUL:          0 USELESS:          0
cpu1_DTLB AVERAGE MISS LATENCY: 17.04 cycles
cpu1_DTLB TOTAL        ACCESS:          0 HIT:          0 MISS:          0
cpu1_DTLB LOAD         ACCESS:          0 HIT:          0 MISS:          0
cpu1_DTLB RFO          ACCESS:          0 HIT:          0 MISS:          0
cpu1_DTLB PREFETCH     ACCESS:          0 HIT:          0 MISS:          0
cpu1_DTLB WRITE        ACCESS:          0 HIT:          0 MISS:          0
cpu1_DTLB TRANSLATION  ACCESS:          0 HIT:          0 MISS:          0
cpu1_DTLB PREFETCH REQUESTED:          0 ISSUED:          0 USEFUL:          0 USELESS:          0
cpu1_DTLB AVERAGE MISS LATENCY: 17.04 cycles
cpu1_DTLB TOTAL        ACCESS:          0 HIT:          0 MISS:          0
cpu1_DTLB LOAD         ACCESS:          0 HIT:          0 MISS:          0
cpu1_DTLB RFO          ACCESS:          0 HIT:          0 MISS:          0
cpu1_DTLB PREFETCH     ACCESS:          0 HIT:          0 MISS:          0
cpu1_DTLB WRITE        ACCESS:          0 HIT:          0 MISS:          0
cpu1_DTLB TRANSLATION  ACCESS:          0 HIT:          0 MISS:          0
cpu1_DTLB PREFETCH REQUESTED:          0 ISSUED:          0 USEFUL:          0 USELESS:          0
cpu1_DTLB AVERAGE MISS LATENCY: 17.04 cycles
cpu1_ITLB TOTAL        ACCESS:          0 HIT:          0 MISS:          0
cpu1_ITLB LOAD         ACCESS:          0 HIT:          0 MISS:          0
cpu1_ITLB RFO          ACCESS:          0 HIT:          0 MISS:          0
cpu1_ITLB PREFETCH     ACCESS:          0 HIT:          0 MISS:          0
cpu1_ITLB WRITE        ACCESS:          0 HIT:          0 MISS:          0
cpu1_ITLB TRANSLATION  ACCESS:          0 HIT:          0 MISS:          0
cpu1_ITLB PREFETCH REQUESTED:          0 ISSUED:          0 USEFUL:          0 USELESS:          0
cpu1_ITLB AVERAGE MISS LATENCY: -nan cycles
cpu1_ITLB TOTAL        ACCESS:    3890156 HIT:    3890156 MISS:          0
cpu1_ITLB LOAD         ACCESS:    3890156 HIT:    3890156 MISS:          0
cpu1_ITLB RFO          ACCESS:          0 HIT:          0 MISS:          0
cpu1_ITLB PREFETCH     ACCESS:          0 HIT:          0 MISS:          0
cpu1_ITLB WRITE        ACCESS:          0 HIT:          0 MISS:          0
cpu1_ITLB TRANSLATION  ACCESS:          0 HIT:          0 MISS:          0
cpu1_ITLB PREFETCH REQUESTED:          0 ISSUED:          0 USEFUL:          0 USELESS:          0
cpu1_ITLB AVERAGE MISS LATENCY: -nan cycles
cpu1_ITLB TOTAL        ACCESS:          0 HIT:          0 MISS:          0
cpu1_ITLB LOAD         ACCESS:          0 HIT:          0 MISS:          0
cpu1_ITLB RFO          ACCESS:          0 HIT:          0 MISS:          0
cpu1_ITLB PREFETCH     ACCESS:          0 HIT:          0 MISS:          0
cpu1_ITLB WRITE        ACCESS:          0 HIT:          0 MISS:          0
cpu1_ITLB TRANSLATION  ACCESS:          0 HIT:          0 MISS:          0
cpu1_ITLB PREFETCH REQUESTED:          0 ISSUED:          0 USEFUL:          0 USELESS:          0
cpu1_ITLB AVERAGE MISS LATENCY: -nan cycles
cpu1_ITLB TOTAL        ACCESS:          0 HIT:          0 MISS:          0
cpu1_ITLB LOAD         ACCESS:          0 HIT:          0 MISS:          0
cpu1_ITLB RFO          ACCESS:          0 HIT:          0 MISS:          0
cpu1_ITLB PREFETCH     ACCESS:          0 HIT:          0 MISS:          0
cpu1_ITLB WRITE        ACCESS:          0 HIT:          0 MISS:          0
cpu1_ITLB TRANSLATION  ACCESS:          0 HIT:          0 MISS:          0
cpu1_ITLB PREFETCH REQUESTED:          0 ISSUED:          0 USEFUL:          0 USELESS:          0
cpu1_ITLB AVERAGE MISS LATENCY: -nan cycles
cpu1_L1D TOTAL        ACCESS:          0 HIT:          0 MISS:          0
cpu1_L1D LOAD         ACCESS:          0 HIT:          0 MISS:          0
cpu1_L1D RFO          ACCESS:          0 HIT:          0 MISS:          0
cpu1_L1D PREFETCH     ACCESS:          0 HIT:          0 MISS:          0
cpu1_L1D WRITE        ACCESS:          0 HIT:          0 MISS:          0
cpu1_L1D TRANSLATION  ACCESS:          0 HIT:          0 MISS:          0
cpu1_L1D PREFETCH REQUESTED:          0 ISSUED:          0 USEFUL:          0 USELESS:          0
cpu1_L1D AVERAGE MISS LATENCY: 292.8 cycles
cpu1_L1D TOTAL        ACCESS:  237241957 HIT:  235767440 MISS:    1474517
cpu1_L1D LOAD         ACCESS:  188370076 HIT:  188323036 MISS:      47040
cpu1_L1D RFO          ACCESS:          0 HIT:          0 MISS:          0
cpu1_L1D PREFETCH     ACCESS:          0 HIT:          0 MISS:          0
cpu1_L1D WRITE        ACCESS:   48868425 HIT:   47441365 MISS:    1427060
cpu1_L1D TRANSLATION  ACCESS:       3456 HIT:       3039 MISS:        417
cpu1_L1D PREFETCH REQUESTED:          0 ISSUED:          0 USEFUL:          0 USELESS:          0
cpu1_L1D AVERAGE MISS LATENCY: 292.8 cycles
cpu1_L1D TOTAL        ACCESS:          0 HIT:          0 MISS:          0
cpu1_L1D LOAD         ACCESS:          0 HIT:          0 MISS:          0
cpu1_L1D RFO          ACCESS:          0 HIT:          0 MISS:          0
cpu1_L1D PREFETCH     ACCESS:          0 HIT:          0 MISS:          0
cpu1_L1D WRITE        ACCESS:          0 HIT:          0 MISS:          0
cpu1_L1D TRANSLATION  ACCESS:          0 HIT:          0 MISS:          0
cpu1_L1D PREFETCH REQUESTED:          0 ISSUED:          0 USEFUL:          0 USELESS:          0
cpu1_L1D AVERAGE MISS LATENCY: 292.8 cycles
cpu1_L1D TOTAL        ACCESS:          0 HIT:          0 MISS:          0
cpu1_L1D LOAD         ACCESS:          0 HIT:          0 MISS:          0
cpu1_L1D RFO          ACCESS:          0 HIT:          0 MISS:          0
cpu1_L1D PREFETCH     ACCESS:          0 HIT:          0 MISS:          0
cpu1_L1D WRITE        ACCESS:          0 HIT:          0 MISS:          0
cpu1_L1D TRANSLATION  ACCESS:          0 HIT:          0 MISS:          0
cpu1_L1D PREFETCH REQUESTED:          0 ISSUED:          0 USEFUL:          0 USELESS:          0
cpu1_L1D AVERAGE MISS LATENCY: 292.8 cycles
cpu1_L1I TOTAL        ACCESS:          0 HIT:          0 MISS:          0
cpu1_L1I LOAD         ACCESS:          0 HIT:          0 MISS:          0
cpu1_L1I RFO          ACCESS:          0 HIT:          0 MISS:          0
cpu1_L1I PREFETCH     ACCESS:          0 HIT:          0 MISS:          0
cpu1_L1I WRITE        ACCESS:          0 HIT:          0 MISS:          0
cpu1_L1I TRANSLATION  ACCESS:          0 HIT:          0 MISS:          0
cpu1_L1I PREFETCH REQUESTED:          0 ISSUED:          0 USEFUL:          0 USELESS:          0
cpu1_L1I AVERAGE MISS LATENCY: -nan cycles
cpu1_L1I TOTAL        ACCESS:    4675862 HIT:    4675862 MISS:          0
cpu1_L1I LOAD         ACCESS:    4675862 HIT:    4675862 MISS:          0
cpu1_L1I RFO          ACCESS:          0 HIT:          0 MISS:          0
cpu1_L1I PREFETCH     ACCESS:          0 HIT:          0 MISS:          0
cpu1_L1I WRITE        ACCESS:          0 HIT:          0 MISS:          0
cpu1_L1I TRANSLATION  ACCESS:          0 HIT:          0 MISS:          0
cpu1_L1I PREFETCH REQUESTED:          0 ISSUED:          0 USEFUL:          0 USELESS:          0
cpu1_L1I AVERAGE MISS LATENCY: -nan cycles
cpu1_L1I TOTAL        ACCESS:          0 HIT:          0 MISS:          0
cpu1_L1I LOAD         ACCESS:          0 HIT:          0 MISS:          0
cpu1_L1I RFO          ACCESS:          0 HIT:          0 MISS:          0
cpu1_L1I PREFETCH     ACCESS:          0 HIT:          0 MISS:          0
cpu1_L1I WRITE        ACCESS:          0 HIT:          0 MISS:          0
cpu1_L1I TRANSLATION  ACCESS:          0 HIT:          0 MISS:          0
cpu1_L1I PREFETCH REQUESTED:          0 ISSUED:          0 USEFUL:          0 USELESS:          0
cpu1_L1I AVERAGE MISS LATENCY: -nan cycles
cpu1_L1I TOTAL        ACCESS:          0 HIT:          0 MISS:          0
cpu1_L1I LOAD         ACCESS:          0 HIT:          0 MISS:          0
cpu1_L1I RFO          ACCESS:          0 HIT:          0 MISS:          0
cpu1_L1I PREFETCH     ACCESS:          0 HIT:          0 MISS:          0
cpu1_L1I WRITE        ACCESS:          0 HIT:          0 MISS:          0
cpu1_L1I TRANSLATION  ACCESS:          0 HIT:          0 MISS:          0
cpu1_L1I PREFETCH REQUESTED:          0 ISSUED:          0 USEFUL:          0 USELESS:          0
cpu1_L1I AVERAGE MISS LATENCY: -nan cycles
cpu1_L2C TOTAL        ACCESS:          0 HIT:          0 MISS:          0
cpu1_L2C LOAD         ACCESS:          0 HIT:          0 MISS:          0
cpu1_L2C RFO          ACCESS:          0 HIT:          0 MISS:          0
cpu1_L2C PREFETCH     ACCESS:          0 HIT:          0 MISS:          0
cpu1_L2C WRITE        ACCESS:          0 HIT:          0 MISS:          0
cpu1_L2C TRANSLATION  ACCESS:          0 HIT:          0 MISS:          0
cpu1_L2C PREFETCH REQUESTED:     147690 ISSUED:     147690 USEFUL:      22886 USELESS:         10
cpu1_L2C AVERAGE MISS LATENCY: 1311 cycles
cpu1_L2C TOTAL        ACCESS:     557508 HIT:     211053 MISS:     346455
cpu1_L2C LOAD         ACCESS:      39224 HIT:      21552 MISS:      17672
cpu1_L2C RFO          ACCESS:     184982 HIT:       1412 MISS:     183570
cpu1_L2C PREFETCH     ACCESS:     147690 HIT:       2724 MISS:     144966
cpu1_L2C WRITE        ACCESS:     185195 HIT:     184973 MISS:        222
cpu1_L2C TRANSLATION  ACCESS:        417 HIT:        392 MISS:         25
cpu1_L2C PREFETCH REQUESTED:     147690 ISSUED:     147690 USEFUL:      22886 USELESS:         10
cpu1_L2C AVERAGE MISS LATENCY: 1311 cycles
cpu1_L2C TOTAL        ACCESS:          0 HIT:          0 MISS:          0
cpu1_L2C LOAD         ACCESS:          0 HIT:          0 MISS:          0
cpu1_L2C RFO          ACCESS:          0 HIT:          0 MISS:          0
cpu1_L2C PREFETCH     ACCESS:          0 HIT:          0 MISS:          0
cpu1_L2C WRITE        ACCESS:          0 HIT:          0 MISS:          0
cpu1_L2C TRANSLATION  ACCESS:          0 HIT:          0 MISS:          0
cpu1_L2C PREFETCH REQUESTED:     147690 ISSUED:     147690 USEFUL:      22886 USELESS:         10
cpu1_L2C AVERAGE MISS LATENCY: 1311 cycles
cpu1_L2C TOTAL        ACCESS:          0 HIT:          0 MISS:          0
cpu1_L2C LOAD         ACCESS:          0 HIT:          0 MISS:          0
cpu1_L2C RFO          ACCESS:          0 HIT:          0 MISS:          0
cpu1_L2C PREFETCH     ACCESS:          0 HIT:          0 MISS:          0
cpu1_L2C WRITE        ACCESS:          0 HIT:          0 MISS:          0
cpu1_L2C TRANSLATION  ACCESS:          0 HIT:          0 MISS:          0
cpu1_L2C PREFETCH REQUESTED:     147690 ISSUED:     147690 USEFUL:      22886 USELESS:         10
cpu1_L2C AVERAGE MISS LATENCY: 1311 cycles
cpu1_STLB TOTAL        ACCESS:          0 HIT:          0 MISS:          0
cpu1_STLB LOAD         ACCESS:          0 HIT:          0 MISS:          0
cpu1_STLB RFO          ACCESS:          0 HIT:          0 MISS:          0
cpu1_STLB PREFETCH     ACCESS:          0 HIT:          0 MISS:          0
cpu1_STLB WRITE        ACCESS:          0 HIT:          0 MISS:          0
cpu1_STLB TRANSLATION  ACCESS:          0 HIT:          0 MISS:          0
cpu1_STLB PREFETCH REQUESTED:          0 ISSUED:          0 USEFUL:          0 USELESS:          0
cpu1_STLB AVERAGE MISS LATENCY: 211.6 cycles
cpu1_STLB TOTAL        ACCESS:       3598 HIT:        149 MISS:       3449
cpu1_STLB LOAD         ACCESS:       3598 HIT:        149 MISS:       3449
cpu1_STLB RFO          ACCESS:          0 HIT:          0 MISS:          0
cpu1_STLB PREFETCH     ACCESS:          0 HIT:          0 MISS:          0
cpu1_STLB WRITE        ACCESS:          0 HIT:          0 MISS:          0
cpu1_STLB TRANSLATION  ACCESS:          0 HIT:          0 MISS:          0
cpu1_STLB PREFETCH REQUESTED:          0 ISSUED:          0 USEFUL:          0 USELESS:          0
cpu1_STLB AVERAGE MISS LATENCY: 211.6 cycles
cpu1_STLB TOTAL        ACCESS:          0 HIT:          0 MISS:          0
cpu1_STLB LOAD         ACCESS:          0 HIT:          0 MISS:          0
cpu1_STLB RFO          ACCESS:          0 HIT:          0 MISS:          0
cpu1_STLB PREFETCH     ACCESS:          0 HIT:          0 MISS:          0
cpu1_STLB WRITE        ACCESS:          0 HIT:          0 MISS:          0
cpu1_STLB TRANSLATION  ACCESS:          0 HIT:          0 MISS:          0
cpu1_STLB PREFETCH REQUESTED:          0 ISSUED:          0 USEFUL:          0 USELESS:          0
cpu1_STLB AVERAGE MISS LATENCY: 211.6 cycles
cpu1_STLB TOTAL        ACCESS:          0 HIT:          0 MISS:          0
cpu1_STLB LOAD         ACCESS:          0 HIT:          0 MISS:          0
cpu1_STLB RFO          ACCESS:          0 HIT:          0 MISS:          0
cpu1_STLB PREFETCH     ACCESS:          0 HIT:          0 MISS:          0
cpu1_STLB WRITE        ACCESS:          0 HIT:          0 MISS:          0
cpu1_STLB TRANSLATION  ACCESS:          0 HIT:          0 MISS:          0
cpu1_STLB PREFETCH REQUESTED:          0 ISSUED:          0 USEFUL:          0 USELESS:          0
cpu1_STLB AVERAGE MISS LATENCY: 211.6 cycles
cpu2_DTLB TOTAL        ACCESS:          0 HIT:          0 MISS:          0
cpu2_DTLB LOAD         ACCESS:          0 HIT:          0 MISS:          0
cpu2_DTLB RFO          ACCESS:          0 HIT:          0 MISS:          0
cpu2_DTLB PREFETCH     ACCESS:          0 HIT:          0 MISS:          0
cpu2_DTLB WRITE        ACCESS:          0 HIT:          0 MISS:          0
cpu2_DTLB TRANSLATION  ACCESS:          0 HIT:          0 MISS:          0
cpu2_DTLB PREFETCH REQUESTED:          0 ISSUED:          0 USEFUL:          0 USELESS:          0
cpu2_DTLB AVERAGE MISS LATENCY: 23.2 cycles
cpu2_DTLB TOTAL        ACCESS:          0 HIT:          0 MISS:          0
[...]
cpu2_L1I PREFETCH REQUESTED:          0 ISSUED:          0 USEFUL:          0 USELESS:          0
cpu2_L1I AVERAGE MISS LATENCY: 173.6 cycles
cpu2_L1I TOTAL        ACCESS:          0 HIT:          0 MISS:          0
cpu2_L1I LOAD         ACCESS:          0 HIT:          0 MISS:          0
cpu2_L1I RFO          ACCESS:          0 HIT:          0 MISS:          0
cpu2_L1I PREFETCH     ACCESS:          0 HIT:          0 MISS:          0
cpu2_L1I WRITE        ACCESS:          0 HIT:          0 MISS:          0
cpu2_L1I TRANSLATION  ACCESS:          0 HIT:          0 MISS:          0
cpu2_L1I PREFETCH REQUESTED:          0 ISSUED:          0 USEFUL:          0 USELESS:          0
cpu2_L1I AVERAGE MISS LATENCY: 173.6 cycles
cpu2_L2C TOTAL        ACCESS:          0 HIT:          0 MISS:          0
cpu2_L2C LOAD         ACCESS:          0 HIT:          0 MISS:          0
cpu2_L2C RFO          ACCESS:          0 HIT:          0 MISS:          0
cpu2_L2C PREFETCH     ACCESS:          0 HIT:          0 MISS:          0
cpu2_L2C WRITE        ACCESS:          0 HIT:          0 MISS:          0
cpu2_L2C TRANSLATION  ACCESS:          0 HIT:          0 MISS:          0
cpu2_L2C PREFETCH REQUESTED:   30689177 ISSUED:   30597035 USEFUL:    3447306 USELESS:        886
cpu2_L2C AVERAGE MISS LATENCY: 53.91 cycles
cpu2_L2C TOTAL        ACCESS:          0 HIT:          0 MISS:          0
cpu2_L2C LOAD         ACCESS:          0 HIT:          0 MISS:          0
cpu2_L2C RFO          ACCESS:          0 HIT:          0 MISS:          0
cpu2_L2C PREFETCH     ACCESS:          0 HIT:          0 MISS:          0
cpu2_L2C WRITE        ACCESS:          0 HIT:          0 MISS:          0
cpu2_L2C TRANSLATION  ACCESS:          0 HIT:          0 MISS:          0
cpu2_L2C PREFETCH REQUESTED:   30689177 ISSUED:   30597035 USEFUL:    3447306 USELESS:        886
cpu2_L2C AVERAGE MISS LATENCY: 53.91 cycles
cpu2_L2C TOTAL        ACCESS:   11731046 HIT:    4587374 MISS:    7143672
cpu2_L2C LOAD         ACCESS:    1982776 HIT:     762546 MISS:    1220230
cpu2_L2C RFO          ACCESS:       2303 HIT:       2001 MISS:        302
cpu2_L2C PREFETCH     ACCESS:    8427392 HIT:    2504437 MISS:    5922955
cpu2_L2C WRITE        ACCESS:    1317765 HIT:    1317765 MISS:          0
cpu2_L2C TRANSLATION  ACCESS:        810 HIT:        625 MISS:        185
cpu2_L2C PREFETCH REQUESTED:   30689177 ISSUED:   30597035 USEFUL:    3447306 USELESS:        886
cpu2_L2C AVERAGE MISS LATENCY: 53.91 cycles
cpu2_L2C TOTAL        ACCESS:          0 HIT:          0 MISS:          0
cpu2_L2C LOAD         ACCESS:          0 HIT:          0 MISS:          0
cpu2_L2C RFO          ACCESS:          0 HIT:          0 MISS:          0
cpu2_L2C PREFETCH     ACCESS:          0 HIT:          0 MISS:          0
cpu2_L2C WRITE        ACCESS:          0 HIT:          0 MISS:          0
cpu2_L2C TRANSLATION  ACCESS:          0 HIT:          0 MISS:          0
cpu2_L2C PREFETCH REQUESTED:   30689177 ISSUED:   30597035 USEFUL:    3447306 USELESS:        886
cpu2_L2C AVERAGE MISS LATENCY: 53.91 cycles
cpu2_STLB TOTAL        ACCESS:          0 HIT:          0 MISS:          0
cpu2_STLB LOAD         ACCESS:          0 HIT:          0 MISS:          0
cpu2_STLB RFO          ACCESS:          0 HIT:          0 MISS:          0
cpu2_STLB PREFETCH     ACCESS:          0 HIT:          0 MISS:          0
cpu2_STLB WRITE        ACCESS:          0 HIT:          0 MISS:          0
cpu2_STLB TRANSLATION  ACCESS:          0 HIT:          0 MISS:          0
cpu2_STLB PREFETCH REQUESTED:          0 ISSUED:          0 USEFUL:          0 USELESS:          0
cpu2_STLB AVERAGE MISS LATENCY: 211.6 cycles
cpu2_STLB TOTAL        ACCESS:          0 HIT:          0 MISS:          0
cpu2_STLB LOAD         ACCESS:          0 HIT:          0 MISS:          0
cpu2_STLB RFO          ACCESS:          0 HIT:          0 MISS:          0
cpu2_STLB PREFETCH     ACCESS:          0 HIT:          0 MISS:          0
cpu2_STLB WRITE        ACCESS:          0 HIT:          0 MISS:          0
cpu2_STLB TRANSLATION  ACCESS:          0 HIT:          0 MISS:          0
cpu2_STLB PREFETCH REQUESTED:          0 ISSUED:          0 USEFUL:          0 USELESS:          0
cpu2_STLB AVERAGE MISS LATENCY: 211.6 cycles
cpu2_STLB TOTAL        ACCESS:      35005 HIT:      14419 MISS:      20586
cpu2_STLB LOAD         ACCESS:      35005 HIT:      14419 MISS:      20586
cpu2_STLB RFO          ACCESS:          0 HIT:          0 MISS:          0
cpu2_STLB PREFETCH     ACCESS:          0 HIT:          0 MISS:          0
cpu2_STLB WRITE        ACCESS:          0 HIT:          0 MISS:          0
cpu2_STLB TRANSLATION  ACCESS:          0 HIT:          0 MISS:          0
cpu2_STLB PREFETCH REQUESTED:          0 ISSUED:          0 USEFUL:          0 USELESS:          0
cpu2_STLB AVERAGE MISS LATENCY: 211.6 cycles
cpu2_STLB TOTAL        ACCESS:          0 HIT:          0 MISS:          0
cpu2_STLB LOAD         ACCESS:          0 HIT:          0 MISS:          0
cpu2_STLB RFO          ACCESS:          0 HIT:          0 MISS:          0
cpu2_STLB PREFETCH     ACCESS:          0 HIT:          0 MISS:          0
cpu2_STLB WRITE        ACCESS:          0 HIT:          0 MISS:          0
cpu2_STLB TRANSLATION  ACCESS:          0 HIT:          0 MISS:          0
cpu2_STLB PREFETCH REQUESTED:          0 ISSUED:          0 USEFUL:          0 USELESS:          0
cpu2_STLB AVERAGE MISS LATENCY: 211.6 cycles
cpu3_DTLB TOTAL        ACCESS:          0 HIT:          0 MISS:          0
cpu3_DTLB LOAD         ACCESS:          0 HIT:          0 MISS:          0
cpu3_DTLB RFO          ACCESS:          0 HIT:          0 MISS:          0
cpu3_DTLB PREFETCH     ACCESS:          0 HIT:          0 MISS:          0
cpu3_DTLB WRITE        ACCESS:          0 HIT:          0 MISS:          0
cpu3_DTLB TRANSLATION  ACCESS:          0 HIT:          0 MISS:          0
cpu3_DTLB PREFETCH REQUESTED:          0 ISSUED:          0 USEFUL:          0 USELESS:          0
cpu3_DTLB AVERAGE MISS LATENCY: 8.25 cycles
cpu3_DTLB TOTAL        ACCESS:          0 HIT:          0 MISS:          0
cpu3_DTLB LOAD         ACCESS:          0 HIT:          0 MISS:          0
cpu3_DTLB RFO          ACCESS:          0 HIT:          0 MISS:          0
cpu3_DTLB PREFETCH     ACCESS:          0 HIT:          0 MISS:          0
cpu3_DTLB WRITE        ACCESS:          0 HIT:          0 MISS:          0
cpu3_DTLB TRANSLATION  ACCESS:          0 HIT:          0 MISS:          0
cpu3_DTLB PREFETCH REQUESTED:          0 ISSUED:          0 USEFUL:          0 USELESS:          0
cpu3_DTLB AVERAGE MISS LATENCY: 8.25 cycles
cpu3_DTLB TOTAL        ACCESS:          0 HIT:          0 MISS:          0
cpu3_DTLB LOAD         ACCESS:          0 HIT:          0 MISS:          0
cpu3_DTLB RFO          ACCESS:          0 HIT:          0 MISS:          0
cpu3_DTLB PREFETCH     ACCESS:          0 HIT:          0 MISS:          0
cpu3_DTLB WRITE        ACCESS:          0 HIT:          0 MISS:          0
cpu3_DTLB TRANSLATION  ACCESS:          0 HIT:          0 MISS:          0
cpu3_DTLB PREFETCH REQUESTED:          0 ISSUED:          0 USEFUL:          0 USELESS:          0
cpu3_DTLB AVERAGE MISS LATENCY: 8.25 cycles
cpu3_DTLB TOTAL        ACCESS:   22030425 HIT:   21755371 MISS:     275054
cpu3_DTLB LOAD         ACCESS:   22030425 HIT:   21755371 MISS:     275054
cpu3_DTLB RFO          ACCESS:          0 HIT:          0 MISS:          0
cpu3_DTLB PREFETCH     ACCESS:          0 HIT:          0 MISS:          0
cpu3_DTLB WRITE        ACCESS:          0 HIT:          0 MISS:          0
cpu3_DTLB TRANSLATION  ACCESS:          0 HIT:          0 MISS:          0
cpu3_DTLB PREFETCH REQUESTED:          0 ISSUED:          0 USEFUL:          0 USELESS:          0
cpu3_DTLB AVERAGE MISS LATENCY: 8.25 cycles
cpu3_ITLB TOTAL        ACCESS:          0 HIT:          0 MISS:          0
cpu3_ITLB LOAD         ACCESS:          0 HIT:          0 MISS:          0
cpu3_ITLB RFO          ACCESS:          0 HIT:          0 MISS:          0
cpu3_ITLB PREFETCH     ACCESS:          0 HIT:          0 MISS:          0
cpu3_ITLB WRITE        ACCESS:          0 HIT:          0 MISS:          0
cpu3_ITLB TRANSLATION  ACCESS:          0 HIT:          0 MISS:          0
cpu3_ITLB PREFETCH REQUESTED:          0 ISSUED:          0 USEFUL:          0 USELESS:          0
cpu3_ITLB AVERAGE MISS LATENCY: 50.45 cycles
cpu3_ITLB TOTAL        ACCESS:          0 HIT:          0 MISS:          0
cpu3_ITLB LOAD         ACCESS:          0 HIT:          0 MISS:          0
cpu3_ITLB RFO          ACCESS:          0 HIT:          0 MISS:          0
cpu3_ITLB PREFETCH     ACCESS:          0 HIT:          0 MISS:          0
cpu3_ITLB WRITE        ACCESS:          0 HIT:          0 MISS:          0
cpu3_ITLB TRANSLATION  ACCESS:          0 HIT:          0 MISS:          0
cpu3_ITLB PREFETCH REQUESTED:          0 ISSUED:          0 USEFUL:          0 USELESS:          0
cpu3_ITLB AVERAGE MISS LATENCY: 50.45 cycles
cpu3_ITLB TOTAL        ACCESS:          0 HIT:          0 MISS:          0
cpu3_ITLB LOAD         ACCESS:          0 HIT:          0 MISS:          0
cpu3_ITLB RFO          ACCESS:          0 HIT:          0 MISS:          0
cpu3_ITLB PREFETCH     ACCESS:          0 HIT:          0 MISS:          0
cpu3_ITLB WRITE        ACCESS:          0 HIT:          0 MISS:          0
cpu3_ITLB TRANSLATION  ACCESS:          0 HIT:          0 MISS:          0
cpu3_ITLB PREFETCH REQUESTED:          0 ISSUED:          0 USEFUL:          0 USELESS:          0
cpu3_ITLB AVERAGE MISS LATENCY: 50.45 cycles
cpu3_ITLB TOTAL        ACCESS:    2860450 HIT:    2856397 MISS:       4053
cpu3_ITLB LOAD         ACCESS:    2860450 HIT:    2856397 MISS:       4053
cpu3_ITLB RFO          ACCESS:          0 HIT:          0 MISS:          0
cpu3_ITLB PREFETCH     ACCESS:          0 HIT:          0 MISS:          0
cpu3_ITLB WRITE        ACCESS:          0 HIT:          0 MISS:          0
cpu3_ITLB TRANSLATION  ACCESS:          0 HIT:          0 MISS:          0
cpu3_ITLB PREFETCH REQUESTED:          0 ISSUED:          0 USEFUL:          0 USELESS:          0
cpu3_ITLB AVERAGE MISS LATENCY: 50.45 cycles
cpu3_L1D TOTAL        ACCESS:          0 HIT:          0 MISS:          0
cpu3_L1D LOAD         ACCESS:          0 HIT:          0 MISS:          0
cpu3_L1D RFO          ACCESS:          0 HIT:          0 MISS:          0
cpu3_L1D PREFETCH     ACCESS:          0 HIT:          0 MISS:          0
cpu3_L1D WRITE        ACCESS:          0 HIT:          0 MISS:          0
cpu3_L1D TRANSLATION  ACCESS:          0 HIT:          0 MISS:          0
cpu3_L1D PREFETCH REQUESTED:          0 ISSUED:          0 USEFUL:          0 USELESS:          0
cpu3_L1D AVERAGE MISS LATENCY: 263.5 cycles
cpu3_L1D TOTAL        ACCESS:          0 HIT:          0 MISS:          0
cpu3_L1D LOAD         ACCESS:          0 HIT:          0 MISS:          0
cpu3_L1D RFO          ACCESS:          0 HIT:          0 MISS:          0
cpu3_L1D PREFETCH     ACCESS:          0 HIT:          0 MISS:          0
cpu3_L1D WRITE        ACCESS:          0 HIT:          0 MISS:          0
cpu3_L1D TRANSLATION  ACCESS:          0 HIT:          0 MISS:          0
cpu3_L1D PREFETCH REQUESTED:          0 ISSUED:          0 USEFUL:          0 USELESS:          0
cpu3_L1D AVERAGE MISS LATENCY: 263.5 cycles
cpu3_L1D TOTAL        ACCESS:          0 HIT:          0 MISS:          0
cpu3_L1D LOAD         ACCESS:          0 HIT:          0 MISS:          0
cpu3_L1D RFO          ACCESS:          0 HIT:          0 MISS:          0
cpu3_L1D PREFETCH     ACCESS:          0 HIT:          0 MISS:          0
cpu3_L1D WRITE        ACCESS:          0 HIT:          0 MISS:          0
cpu3_L1D TRANSLATION  ACCESS:          0 HIT:          0 MISS:          0
cpu3_L1D PREFETCH REQUESTED:          0 ISSUED:          0 USEFUL:          0 USELESS:          0
cpu3_L1D AVERAGE MISS LATENCY: 263.5 cycles
cpu3_L1D TOTAL        ACCESS:   29104471 HIT:   23855549 MISS:    5248922
cpu3_L1D LOAD         ACCESS:   13808779 HIT:   13128760 MISS:     680019
cpu3_L1D RFO          ACCESS:          0 HIT:          0 MISS:          0
cpu3_L1D PREFETCH     ACCESS:          0 HIT:          0 MISS:          0
cpu3_L1D WRITE        ACCESS:   15276244 HIT:   10711648 MISS:    4564596
cpu3_L1D TRANSLATION  ACCESS:      19448 HIT:      15141 MISS:       4307
cpu3_L1D PREFETCH REQUESTED:          0 ISSUED:          0 USEFUL:          0 USELESS:          0
cpu3_L1D AVERAGE MISS LATENCY: 263.5 cycles
cpu3_L1I TOTAL        ACCESS:          0 HIT:          0 MISS:          0
cpu3_L1I LOAD         ACCESS:          0 HIT:          0 MISS:          0
cpu3_L1I RFO          ACCESS:          0 HIT:          0 MISS:          0
cpu3_L1I PREFETCH     ACCESS:          0 HIT:          0 MISS:          0
cpu3_L1I WRITE        ACCESS:          0 HIT:          0 MISS:          0
cpu3_L1I TRANSLATION  ACCESS:          0 HIT:          0 MISS:          0
cpu3_L1I PREFETCH REQUESTED:          0 ISSUED:          0 USEFUL:          0 USELESS:          0
cpu3_L1I AVERAGE MISS LATENCY: 52.46 cycles
cpu3_L1I TOTAL        ACCESS:          0 HIT:          0 MISS:          0
cpu3_L1I LOAD         ACCESS:          0 HIT:          0 MISS:          0
cpu3_L1I RFO          ACCESS:          0 HIT:          0 MISS:          0
cpu3_L1I PREFETCH     ACCESS:          0 HIT:          0 MISS:          0
cpu3_L1I WRITE        ACCESS:          0 HIT:          0 MISS:          0
cpu3_L1I TRANSLATION  ACCESS:          0 HIT:          0 MISS:          0
cpu3_L1I PREFETCH REQUESTED:          0 ISSUED:          0 USEFUL:          0 USELESS:          0
cpu3_L1I AVERAGE MISS LATENCY: 52.46 cycles
cpu3_L1I TOTAL        ACCESS:          0 HIT:          0 MISS:          0
cpu3_L1I LOAD         ACCESS:          0 HIT:          0 MISS:          0
cpu3_L1I RFO          ACCESS:          0 HIT:          0 MISS:          0
cpu3_L1I PREFETCH     ACCESS:          0 HIT:          0 MISS:          0
cpu3_L1I WRITE        ACCESS:          0 HIT:          0 MISS:          0
cpu3_L1I TRANSLATION  ACCESS:          0 HIT:          0 MISS:          0
cpu3_L1I PREFETCH REQUESTED:          0 ISSUED:          0 USEFUL:          0 USELESS:          0
cpu3_L1I AVERAGE MISS LATENCY: 52.46 cycles
cpu3_L1I TOTAL        ACCESS:    3629240 HIT:    3539511 MISS:      89729
cpu3_L1I LOAD         ACCESS:    3629240 HIT:    3539511 MISS:      89729
cpu3_L1I RFO          ACCESS:          0 HIT:          0 MISS:          0
cpu3_L1I PREFETCH     ACCESS:          0 HIT:          0 MISS:          0
cpu3_L1I WRITE        ACCESS:          0 HIT:          0 MISS:          0
cpu3_L1I TRANSLATION  ACCESS:          0 HIT:          0 MISS:          0
cpu3_L1I PREFETCH REQUESTED:          0 ISSUED:          0 USEFUL:          0 USELESS:          0
cpu3_L1I AVERAGE MISS LATENCY: 52.46 cycles
cpu3_L2C TOTAL        ACCESS:          0 HIT:          0 MISS:          0
cpu3_L2C LOAD         ACCESS:          0 HIT:          0 MISS:          0
cpu3_L2C RFO          ACCESS:          0 HIT:          0 MISS:          0
cpu3_L2C PREFETCH     ACCESS:          0 HIT:          0 MISS:          0
cpu3_L2C WRITE        ACCESS:          0 HIT:          0 MISS:          0
cpu3_L2C TRANSLATION  ACCESS:          0 HIT:          0 MISS:          0
cpu3_L2C PREFETCH REQUESTED:   10986928 ISSUED:    8090118 USEFUL:      72289 USELESS:       5253
cpu3_L2C AVERAGE MISS LATENCY: 1038 cycles
cpu3_L2C TOTAL        ACCESS:          0 HIT:          0 MISS:          0
cpu3_L2C LOAD         ACCESS:          0 HIT:          0 MISS:          0
cpu3_L2C RFO          ACCESS:          0 HIT:          0 MISS:          0
cpu3_L2C PREFETCH     ACCESS:          0 HIT:          0 MISS:          0
cpu3_L2C WRITE        ACCESS:          0 HIT:          0 MISS:          0
cpu3_L2C TRANSLATION  ACCESS:          0 HIT:          0 MISS:          0
cpu3_L2C PREFETCH REQUESTED:   10986928 ISSUED:    8090118 USEFUL:      72289 USELESS:       5253
cpu3_L2C AVERAGE MISS LATENCY: 1038 cycles
cpu3_L2C TOTAL        ACCESS:          0 HIT:          0 MISS:          0
cpu3_L2C LOAD         ACCESS:          0 HIT:          0 MISS:          0
cpu3_L2C RFO          ACCESS:          0 HIT:          0 MISS:          0
cpu3_L2C PREFETCH     ACCESS:          0 HIT:          0 MISS:          0
cpu3_L2C WRITE        ACCESS:          0 HIT:          0 MISS:          0
cpu3_L2C TRANSLATION  ACCESS:          0 HIT:          0 MISS:          0
cpu3_L2C PREFETCH REQUESTED:   10986928 ISSUED:    8090118 USEFUL:      72289 USELESS:       5253
cpu3_L2C AVERAGE MISS LATENCY: 1038 cycles
cpu3_L2C TOTAL        ACCESS:    4387093 HIT:    3029679 MISS:    1357414
cpu3_L2C LOAD         ACCESS:     532201 HIT:     428341 MISS:     103860
cpu3_L2C RFO          ACCESS:    1155765 HIT:     191103 MISS:     964662
cpu3_L2C PREFETCH     ACCESS:    1463880 HIT:    1178163 MISS:     285717
cpu3_L2C WRITE        ACCESS:    1230980 HIT:    1230901 MISS:         79
cpu3_L2C TRANSLATION  ACCESS:       4267 HIT:       1171 MISS:       3096
cpu3_L2C PREFETCH REQUESTED:   10986928 ISSUED:    8090118 USEFUL:      72289 USELESS:       5253
cpu3_L2C AVERAGE MISS LATENCY: 1038 cycles
cpu3_STLB TOTAL        ACCESS:          0 HIT:          0 MISS:          0
cpu3_STLB LOAD         ACCESS:          0 HIT:          0 MISS:          0
cpu3_STLB RFO          ACCESS:          0 HIT:          0 MISS:          0
cpu3_STLB PREFETCH     ACCESS:          0 HIT:          0 MISS:          0
cpu3_STLB WRITE        ACCESS:          0 HIT:          0 MISS:          0
cpu3_STLB TRANSLATION  ACCESS:          0 HIT:          0 MISS:          0
cpu3_STLB PREFETCH REQUESTED:          0 ISSUED:          0 USEFUL:          0 USELESS:          0
cpu3_STLB AVERAGE MISS LATENCY: 122.2 cycles
cpu3_STLB TOTAL        ACCESS:          0 HIT:          0 MISS:          0
cpu3_STLB LOAD         ACCESS:          0 HIT:          0 MISS:          0
cpu3_STLB RFO          ACCESS:          0 HIT:          0 MISS:          0
cpu3_STLB PREFETCH     ACCESS:          0 HIT:          0 MISS:          0
cpu3_STLB WRITE        ACCESS:          0 HIT:          0 MISS:          0
cpu3_STLB TRANSLATION  ACCESS:          0 HIT:          0 MISS:          0
cpu3_STLB PREFETCH REQUESTED:          0 ISSUED:          0 USEFUL:          0 USELESS:          0
cpu3_STLB AVERAGE MISS LATENCY: 122.2 cycles
cpu3_STLB TOTAL        ACCESS:          0 HIT:          0 MISS:          0
cpu3_STLB LOAD         ACCESS:          0 HIT:          0 MISS:          0
cpu3_STLB RFO          ACCESS:          0 HIT:          0 MISS:          0
cpu3_STLB PREFETCH     ACCESS:          0 HIT:          0 MISS:          0
cpu3_STLB WRITE        ACCESS:          0 HIT:          0 MISS:          0
cpu3_STLB TRANSLATION  ACCESS:          0 HIT:          0 MISS:          0
cpu3_STLB PREFETCH REQUESTED:          0 ISSUED:          0 USEFUL:          0 USELESS:          0
cpu3_STLB AVERAGE MISS LATENCY: 122.2 cycles
cpu3_STLB TOTAL        ACCESS:      95515 HIT:      76437 MISS:      19078
cpu3_STLB LOAD         ACCESS:      95515 HIT:      76437 MISS:      19078
cpu3_STLB RFO          ACCESS:          0 HIT:          0 MISS:          0
cpu3_STLB PREFETCH     ACCESS:          0 HIT:          0 MISS:          0
cpu3_STLB WRITE        ACCESS:          0 HIT:          0 MISS:          0
cpu3_STLB TRANSLATION  ACCESS:          0 HIT:          0 MISS:          0
cpu3_STLB PREFETCH REQUESTED:          0 ISSUED:          0 USEFUL:          0 USELESS:          0
cpu3_STLB AVERAGE MISS LATENCY: 122.2 cycles

DRAM Statistics

Channel 0 RQ ROW_BUFFER_HIT:     932080
  ROW_BUFFER_MISS:    5304033
 AVG DBUS CONGESTED CYCLE: 3.98
WQ ROW_BUFFER_HIT: Channel 0 
  ROW_BUFFER_MISS:     160454
  FULL:    4878538

Channel 1 RQ ROW_BUFFER_HIT:     932445
  ROW_BUFFER_MISS:    5303965
 AVG DBUS CONGESTED CYCLE: 3.981
WQ ROW_BUFFER_HIT: Channel 1 
  ROW_BUFFER_MISS:     159750
  FULL:    4878645
