Original cmd-> /home/grads/r/rdas40/ECEN676/ChampSim/bin/multi_core/spp_2ch --warmup_instructions=50000000 --simulation_instructions=150000000  /home/grads/r/rdas40/dpc3_traces/603.bwaves_s-3699B.champsimtrace.xz /home/grads/r/rdas40/dpc3_traces/654.roms_s-842B.champsimtrace.xz /home/grads/r/rdas40/dpc3_traces/649.fotonik3d_s-1176B.champsimtrace.xz /home/grads/r/rdas40/dpc3_traces/628.pop2_s-17B.champsimtrace.xz
WARNING: physical memory size is smaller than virtual memory size.
WARNING: option --warmup_instructions is deprecated. Use --warmup-instructions instead.
WARNING: option --simulation_instructions is deprecated. Use --simulation-instructions instead.

*** ChampSim Multicore Out-of-Order Simulator ***
Warmup Instructions: 50000000
Simulation Instructions: 150000000
Number of CPUs: 4
Page size: 4096

Initialize SIGNATURE TABLE
ST_SET: 1
ST_WAY: 256
ST_TAG_BIT: 16
ST_TAG_MASK: ffff

Initialize PATTERN TABLE
PT_SET: 512
PT_WAY: 4
SIG_DELTA_BIT: 7
C_SIG_BIT: 4
C_DELTA_BIT: 4

Initialize PREFETCH FILTER
FILTER_SET: 1024
Initialize SIGNATURE TABLE
ST_SET: 1
ST_WAY: 256
ST_TAG_BIT: 16
ST_TAG_MASK: ffff

Initialize PATTERN TABLE
PT_SET: 512
PT_WAY: 4
SIG_DELTA_BIT: 7
C_SIG_BIT: 4
C_DELTA_BIT: 4

Initialize PREFETCH FILTER
FILTER_SET: 1024
Initialize SIGNATURE TABLE
ST_SET: 1
ST_WAY: 256
ST_TAG_BIT: 16
ST_TAG_MASK: ffff

Initialize PATTERN TABLE
PT_SET: 512
PT_WAY: 4
SIG_DELTA_BIT: 7
C_SIG_BIT: 4
C_DELTA_BIT: 4

Initialize PREFETCH FILTER
FILTER_SET: 1024
Initialize SIGNATURE TABLE
ST_SET: 1
ST_WAY: 256
ST_TAG_BIT: 16
ST_TAG_MASK: ffff

Initialize PATTERN TABLE
PT_SET: 512
PT_WAY: 4
SIG_DELTA_BIT: 7
C_SIG_BIT: 4
C_DELTA_BIT: 4

Initialize PREFETCH FILTER
FILTER_SET: 1024
Off-chip DRAM Size: 8 GiB Channels: 2 Width: 64-bit Data Race: 3200 MT/s
Heartbeat CPU 2 instructions: 10000003 cycles: 2500048 heartbeat IPC: 4 cumulative IPC: 4 (Simulation time: 00 hr 02 min 47 sec)
Heartbeat CPU 1 instructions: 10000003 cycles: 2505980 heartbeat IPC: 3.99 cumulative IPC: 3.99 (Simulation time: 00 hr 02 min 47 sec)
Heartbeat CPU 0 instructions: 10000001 cycles: 2521903 heartbeat IPC: 3.965 cumulative IPC: 3.965 (Simulation time: 00 hr 02 min 48 sec)
Heartbeat CPU 3 instructions: 10000000 cycles: 2653166 heartbeat IPC: 3.769 cumulative IPC: 3.769 (Simulation time: 00 hr 02 min 57 sec)
Heartbeat CPU 2 instructions: 20000003 cycles: 5000048 heartbeat IPC: 4 cumulative IPC: 4 (Simulation time: 00 hr 05 min 37 sec)
Heartbeat CPU 1 instructions: 20000002 cycles: 5014240 heartbeat IPC: 3.987 cumulative IPC: 3.989 (Simulation time: 00 hr 05 min 38 sec)
Heartbeat CPU 0 instructions: 20000001 cycles: 5038282 heartbeat IPC: 3.974 cumulative IPC: 3.97 (Simulation time: 00 hr 05 min 39 sec)
Heartbeat CPU 3 instructions: 20000001 cycles: 5306401 heartbeat IPC: 3.769 cumulative IPC: 3.769 (Simulation time: 00 hr 05 min 58 sec)
Heartbeat CPU 2 instructions: 30000003 cycles: 7500048 heartbeat IPC: 4 cumulative IPC: 4 (Simulation time: 00 hr 08 min 27 sec)
Heartbeat CPU 1 instructions: 30000000 cycles: 7517959 heartbeat IPC: 3.994 cumulative IPC: 3.99 (Simulation time: 00 hr 08 min 28 sec)
Heartbeat CPU 0 instructions: 30000001 cycles: 7553327 heartbeat IPC: 3.976 cumulative IPC: 3.972 (Simulation time: 00 hr 08 min 30 sec)
Heartbeat CPU 3 instructions: 30000003 cycles: 7959486 heartbeat IPC: 3.769 cumulative IPC: 3.769 (Simulation time: 00 hr 08 min 58 sec)
Heartbeat CPU 2 instructions: 40000003 cycles: 10000048 heartbeat IPC: 4 cumulative IPC: 4 (Simulation time: 00 hr 11 min 15 sec)
Heartbeat CPU 1 instructions: 40000002 cycles: 10026961 heartbeat IPC: 3.986 cumulative IPC: 3.989 (Simulation time: 00 hr 11 min 17 sec)
Heartbeat CPU 0 instructions: 40000000 cycles: 10077359 heartbeat IPC: 3.962 cumulative IPC: 3.969 (Simulation time: 00 hr 11 min 20 sec)
Heartbeat CPU 3 instructions: 40000000 cycles: 10611578 heartbeat IPC: 3.771 cumulative IPC: 3.769 (Simulation time: 00 hr 11 min 56 sec)
Heartbeat CPU 2 instructions: 50000003 cycles: 12500048 heartbeat IPC: 4 cumulative IPC: 4 (Simulation time: 00 hr 14 min 03 sec)
Warmup finished CPU 2 instructions: 50000003 cycles: 12500049 cumulative IPC: 4 (Simulation time: 00 hr 14 min 03 sec)
Heartbeat CPU 1 instructions: 50000001 cycles: 12547264 heartbeat IPC: 3.968 cumulative IPC: 3.985 (Simulation time: 00 hr 14 min 07 sec)
Warmup finished CPU 1 instructions: 50000001 cycles: 12547265 cumulative IPC: 3.985 (Simulation time: 00 hr 14 min 07 sec)
Heartbeat CPU 0 instructions: 50000000 cycles: 12599190 heartbeat IPC: 3.965 cumulative IPC: 3.969 (Simulation time: 00 hr 14 min 10 sec)
Warmup finished CPU 0 instructions: 50000000 cycles: 12599191 cumulative IPC: 3.969 (Simulation time: 00 hr 14 min 10 sec)
Heartbeat CPU 3 instructions: 50000003 cycles: 13265600 heartbeat IPC: 3.768 cumulative IPC: 3.769 (Simulation time: 00 hr 14 min 55 sec)
Warmup finished CPU 3 instructions: 50000003 cycles: 13265601 cumulative IPC: 3.769 (Simulation time: 00 hr 14 min 55 sec)
Warmup complete CPU 0 instructions: 52639645 cycles: 13265601 cumulative IPC: 3.968 (Simulation time: 00 hr 14 min 55 sec)
Warmup complete CPU 1 instructions: 52867251 cycles: 13265601 cumulative IPC: 3.985 (Simulation time: 00 hr 14 min 55 sec)
Warmup complete CPU 2 instructions: 53062211 cycles: 13265601 cumulative IPC: 4 (Simulation time: 00 hr 14 min 55 sec)
Warmup complete CPU 3 instructions: 50000003 cycles: 13265601 cumulative IPC: 3.769 (Simulation time: 00 hr 14 min 55 sec)
Heartbeat CPU 1 instructions: 60000002 cycles: 15595090 heartbeat IPC: 3.281 cumulative IPC: 3.062 (Simulation time: 00 hr 17 min 15 sec)
Heartbeat CPU 0 instructions: 60000002 cycles: 16447839 heartbeat IPC: 2.598 cumulative IPC: 2.313 (Simulation time: 00 hr 18 min 06 sec)
Heartbeat CPU 2 instructions: 60000002 cycles: 16693496 heartbeat IPC: 2.385 cumulative IPC: 2.024 (Simulation time: 00 hr 18 min 21 sec)
Heartbeat CPU 3 instructions: 60000001 cycles: 18176990 heartbeat IPC: 2.036 cumulative IPC: 2.036 (Simulation time: 00 hr 19 min 47 sec)
Heartbeat CPU 1 instructions: 70000003 cycles: 19157806 heartbeat IPC: 2.807 cumulative IPC: 2.908 (Simulation time: 00 hr 20 min 45 sec)
Heartbeat CPU 0 instructions: 70000004 cycles: 20777186 heartbeat IPC: 2.31 cumulative IPC: 2.311 (Simulation time: 00 hr 22 min 23 sec)
Heartbeat CPU 2 instructions: 70000004 cycles: 21767621 heartbeat IPC: 1.971 cumulative IPC: 1.992 (Simulation time: 00 hr 23 min 22 sec)
Heartbeat CPU 1 instructions: 80000000 cycles: 22483575 heartbeat IPC: 3.007 cumulative IPC: 2.943 (Simulation time: 00 hr 24 min 05 sec)
Heartbeat CPU 3 instructions: 70000002 cycles: 22888597 heartbeat IPC: 2.122 cumulative IPC: 2.078 (Simulation time: 00 hr 24 min 29 sec)
Heartbeat CPU 0 instructions: 80000000 cycles: 25057835 heartbeat IPC: 2.336 cumulative IPC: 2.32 (Simulation time: 00 hr 26 min 41 sec)
Heartbeat CPU 1 instructions: 90000001 cycles: 25928426 heartbeat IPC: 2.903 cumulative IPC: 2.932 (Simulation time: 00 hr 27 min 32 sec)
Heartbeat CPU 2 instructions: 80000003 cycles: 27119384 heartbeat IPC: 1.869 cumulative IPC: 1.944 (Simulation time: 00 hr 28 min 39 sec)
Heartbeat CPU 3 instructions: 80000000 cycles: 27550898 heartbeat IPC: 2.145 cumulative IPC: 2.1 (Simulation time: 00 hr 29 min 04 sec)
Heartbeat CPU 1 instructions: 100000001 cycles: 29330469 heartbeat IPC: 2.939 cumulative IPC: 2.934 (Simulation time: 00 hr 30 min 45 sec)
Heartbeat CPU 0 instructions: 90000001 cycles: 29375853 heartbeat IPC: 2.316 cumulative IPC: 2.319 (Simulation time: 00 hr 30 min 48 sec)
Heartbeat CPU 2 instructions: 90000004 cycles: 31687803 heartbeat IPC: 2.189 cumulative IPC: 2.005 (Simulation time: 00 hr 33 min 10 sec)
Heartbeat CPU 3 instructions: 90000003 cycles: 32104877 heartbeat IPC: 2.196 cumulative IPC: 2.123 (Simulation time: 00 hr 33 min 35 sec)
Heartbeat CPU 1 instructions: 110000001 cycles: 32693983 heartbeat IPC: 2.973 cumulative IPC: 2.941 (Simulation time: 00 hr 34 min 10 sec)
Heartbeat CPU 0 instructions: 100000000 cycles: 33680240 heartbeat IPC: 2.323 cumulative IPC: 2.32 (Simulation time: 00 hr 35 min 09 sec)
Heartbeat CPU 1 instructions: 120000002 cycles: 36111664 heartbeat IPC: 2.926 cumulative IPC: 2.938 (Simulation time: 00 hr 37 min 31 sec)
Heartbeat CPU 3 instructions: 100000003 cycles: 36994995 heartbeat IPC: 2.045 cumulative IPC: 2.107 (Simulation time: 00 hr 38 min 21 sec)
Heartbeat CPU 2 instructions: 100000002 cycles: 37909075 heartbeat IPC: 1.607 cumulative IPC: 1.905 (Simulation time: 00 hr 39 min 14 sec)
Heartbeat CPU 0 instructions: 110000003 cycles: 38055276 heartbeat IPC: 2.286 cumulative IPC: 2.314 (Simulation time: 00 hr 39 min 23 sec)
Heartbeat CPU 1 instructions: 130000003 cycles: 39510955 heartbeat IPC: 2.942 cumulative IPC: 2.939 (Simulation time: 00 hr 40 min 45 sec)
Heartbeat CPU 3 instructions: 110000001 cycles: 42257730 heartbeat IPC: 1.9 cumulative IPC: 2.07 (Simulation time: 00 hr 43 min 20 sec)
Heartbeat CPU 0 instructions: 120000001 cycles: 42373818 heartbeat IPC: 2.316 cumulative IPC: 2.314 (Simulation time: 00 hr 43 min 27 sec)
Heartbeat CPU 1 instructions: 140000003 cycles: 42919484 heartbeat IPC: 2.934 cumulative IPC: 2.938 (Simulation time: 00 hr 43 min 57 sec)
Heartbeat CPU 2 instructions: 110000004 cycles: 45753599 heartbeat IPC: 1.275 cumulative IPC: 1.753 (Simulation time: 00 hr 46 min 35 sec)
Heartbeat CPU 1 instructions: 150000002 cycles: 46235128 heartbeat IPC: 3.016 cumulative IPC: 2.946 (Simulation time: 00 hr 47 min 04 sec)
Heartbeat CPU 0 instructions: 130000000 cycles: 46784978 heartbeat IPC: 2.267 cumulative IPC: 2.308 (Simulation time: 00 hr 47 min 38 sec)
Heartbeat CPU 3 instructions: 120000003 cycles: 47486601 heartbeat IPC: 1.912 cumulative IPC: 2.046 (Simulation time: 00 hr 48 min 21 sec)
Heartbeat CPU 1 instructions: 160000001 cycles: 49485614 heartbeat IPC: 3.076 cumulative IPC: 2.958 (Simulation time: 00 hr 50 min 18 sec)
Heartbeat CPU 2 instructions: 120000004 cycles: 49931934 heartbeat IPC: 2.393 cumulative IPC: 1.826 (Simulation time: 00 hr 50 min 45 sec)
Heartbeat CPU 0 instructions: 140000000 cycles: 51203296 heartbeat IPC: 2.263 cumulative IPC: 2.303 (Simulation time: 00 hr 52 min 00 sec)
Heartbeat CPU 3 instructions: 130000002 cycles: 52458347 heartbeat IPC: 2.011 cumulative IPC: 2.041 (Simulation time: 00 hr 53 min 10 sec)
Heartbeat CPU 1 instructions: 170000003 cycles: 52768081 heartbeat IPC: 3.046 cumulative IPC: 2.965 (Simulation time: 00 hr 53 min 28 sec)
Heartbeat CPU 0 instructions: 150000002 cycles: 55612803 heartbeat IPC: 2.268 cumulative IPC: 2.299 (Simulation time: 00 hr 56 min 01 sec)
Heartbeat CPU 2 instructions: 130000001 cycles: 55847721 heartbeat IPC: 1.69 cumulative IPC: 1.807 (Simulation time: 00 hr 56 min 16 sec)
Heartbeat CPU 1 instructions: 180000003 cycles: 56142373 heartbeat IPC: 2.964 cumulative IPC: 2.965 (Simulation time: 00 hr 56 min 34 sec)
Heartbeat CPU 3 instructions: 140000003 cycles: 57203419 heartbeat IPC: 2.107 cumulative IPC: 2.048 (Simulation time: 00 hr 57 min 39 sec)
Heartbeat CPU 1 instructions: 190000001 cycles: 59610910 heartbeat IPC: 2.883 cumulative IPC: 2.959 (Simulation time: 01 hr 00 min 01 sec)
Heartbeat CPU 0 instructions: 160000001 cycles: 59984814 heartbeat IPC: 2.287 cumulative IPC: 2.298 (Simulation time: 01 hr 00 min 22 sec)
Heartbeat CPU 2 instructions: 140000001 cycles: 60381149 heartbeat IPC: 2.206 cumulative IPC: 1.845 (Simulation time: 01 hr 00 min 44 sec)
Heartbeat CPU 3 instructions: 150000001 cycles: 61899808 heartbeat IPC: 2.129 cumulative IPC: 2.056 (Simulation time: 01 hr 02 min 08 sec)
Heartbeat CPU 1 instructions: 200000004 cycles: 63041468 heartbeat IPC: 2.915 cumulative IPC: 2.956 (Simulation time: 01 hr 03 min 15 sec)
Simulation finished CPU 1 instructions: 150000004 cycles: 50789352 cumulative IPC: 2.953 (Simulation time: 01 hr 04 min 13 sec)
Heartbeat CPU 0 instructions: 170000000 cycles: 64361170 heartbeat IPC: 2.285 cumulative IPC: 2.297 (Simulation time: 01 hr 04 min 28 sec)
Heartbeat CPU 2 instructions: 150000002 cycles: 66144778 heartbeat IPC: 1.735 cumulative IPC: 1.833 (Simulation time: 01 hr 06 min 02 sec)
Heartbeat CPU 1 instructions: 210000004 cycles: 66522008 heartbeat IPC: 2.873 cumulative IPC: 2.95 (Simulation time: 01 hr 06 min 24 sec)
Heartbeat CPU 3 instructions: 160000000 cycles: 67122382 heartbeat IPC: 1.915 cumulative IPC: 2.042 (Simulation time: 01 hr 07 min 01 sec)
Heartbeat CPU 0 instructions: 180000000 cycles: 68785745 heartbeat IPC: 2.26 cumulative IPC: 2.294 (Simulation time: 01 hr 08 min 43 sec)
Heartbeat CPU 1 instructions: 220000001 cycles: 69923465 heartbeat IPC: 2.94 cumulative IPC: 2.95 (Simulation time: 01 hr 09 min 52 sec)
Heartbeat CPU 2 instructions: 160000000 cycles: 70338379 heartbeat IPC: 2.385 cumulative IPC: 1.874 (Simulation time: 01 hr 10 min 17 sec)
Heartbeat CPU 3 instructions: 170000002 cycles: 71200048 heartbeat IPC: 2.452 cumulative IPC: 2.071 (Simulation time: 01 hr 11 min 07 sec)
Heartbeat CPU 0 instructions: 190000000 cycles: 73146155 heartbeat IPC: 2.293 cumulative IPC: 2.294 (Simulation time: 01 hr 13 min 00 sec)
Heartbeat CPU 1 instructions: 230000000 cycles: 73372424 heartbeat IPC: 2.899 cumulative IPC: 2.947 (Simulation time: 01 hr 13 min 13 sec)
Heartbeat CPU 2 instructions: 170000000 cycles: 76072556 heartbeat IPC: 1.744 cumulative IPC: 1.862 (Simulation time: 01 hr 15 min 43 sec)
Heartbeat CPU 1 instructions: 240000002 cycles: 76805793 heartbeat IPC: 2.913 cumulative IPC: 2.945 (Simulation time: 01 hr 16 min 27 sec)
Heartbeat CPU 3 instructions: 180000003 cycles: 77040805 heartbeat IPC: 1.712 cumulative IPC: 2.038 (Simulation time: 01 hr 16 min 40 sec)
Heartbeat CPU 0 instructions: 200000004 cycles: 77503752 heartbeat IPC: 2.295 cumulative IPC: 2.294 (Simulation time: 01 hr 17 min 08 sec)
Simulation finished CPU 0 instructions: 150000000 cycles: 65399633 cumulative IPC: 2.294 (Simulation time: 01 hr 18 min 17 sec)
Heartbeat CPU 1 instructions: 250000004 cycles: 80216325 heartbeat IPC: 2.932 cumulative IPC: 2.944 (Simulation time: 01 hr 19 min 49 sec)
Heartbeat CPU 2 instructions: 180000003 cycles: 81235591 heartbeat IPC: 1.937 cumulative IPC: 1.868 (Simulation time: 01 hr 20 min 50 sec)
Heartbeat CPU 0 instructions: 210000001 cycles: 81913384 heartbeat IPC: 2.268 cumulative IPC: 2.292 (Simulation time: 01 hr 21 min 29 sec)
Heartbeat CPU 3 instructions: 190000001 cycles: 82132189 heartbeat IPC: 1.964 cumulative IPC: 2.033 (Simulation time: 01 hr 21 min 42 sec)
Heartbeat CPU 1 instructions: 260000002 cycles: 83646833 heartbeat IPC: 2.915 cumulative IPC: 2.943 (Simulation time: 01 hr 23 min 10 sec)
Heartbeat CPU 0 instructions: 220000002 cycles: 86355375 heartbeat IPC: 2.251 cumulative IPC: 2.29 (Simulation time: 01 hr 25 min 52 sec)
Heartbeat CPU 2 instructions: 190000004 cycles: 86660878 heartbeat IPC: 1.843 cumulative IPC: 1.866 (Simulation time: 01 hr 26 min 09 sec)
Heartbeat CPU 1 instructions: 270000004 cycles: 87038663 heartbeat IPC: 2.948 cumulative IPC: 2.943 (Simulation time: 01 hr 26 min 32 sec)
Heartbeat CPU 3 instructions: 200000002 cycles: 87296960 heartbeat IPC: 1.936 cumulative IPC: 2.026 (Simulation time: 01 hr 26 min 47 sec)
Simulation finished CPU 3 instructions: 150000004 cycles: 74031361 cumulative IPC: 2.026 (Simulation time: 01 hr 26 min 47 sec)
Heartbeat CPU 1 instructions: 280000004 cycles: 90437276 heartbeat IPC: 2.942 cumulative IPC: 2.943 (Simulation time: 01 hr 29 min 54 sec)
Heartbeat CPU 0 instructions: 230000000 cycles: 90724546 heartbeat IPC: 2.289 cumulative IPC: 2.29 (Simulation time: 01 hr 30 min 11 sec)
Heartbeat CPU 2 instructions: 200000000 cycles: 91804669 heartbeat IPC: 1.944 cumulative IPC: 1.871 (Simulation time: 01 hr 31 min 14 sec)
Heartbeat CPU 3 instructions: 210000003 cycles: 92348208 heartbeat IPC: 1.98 cumulative IPC: 2.023 (Simulation time: 01 hr 31 min 47 sec)
Simulation finished CPU 2 instructions: 150000000 cycles: 80066241 cumulative IPC: 1.873 (Simulation time: 01 hr 32 min 45 sec)
Simulation complete CPU 0 instructions: 183238059 cycles: 80066241 cumulative IPC: 2.289 (Simulation time: 01 hr 32 min 45 sec)
Simulation complete CPU 1 instructions: 235569992 cycles: 80066241 cumulative IPC: 2.942 (Simulation time: 01 hr 32 min 45 sec)
Simulation complete CPU 2 instructions: 150000000 cycles: 80066241 cumulative IPC: 1.873 (Simulation time: 01 hr 32 min 45 sec)
Simulation complete CPU 3 instructions: 162078101 cycles: 80066241 cumulative IPC: 2.024 (Simulation time: 01 hr 32 min 45 sec)

ChampSim completed all CPUs

=== Simulation ===
CPU 0 runs /home/grads/r/rdas40/dpc3_traces/603.bwaves_s-3699B.champsimtrace.xzCPU 1 runs /home/grads/r/rdas40/dpc3_traces/654.roms_s-842B.champsimtrace.xzCPU 2 runs /home/grads/r/rdas40/dpc3_traces/649.fotonik3d_s-1176B.champsimtrace.xzCPU 3 runs /home/grads/r/rdas40/dpc3_traces/628.pop2_s-17B.champsimtrace.xz
Total Simulation Statistics (not including warmup)

CPU 0 cumulative IPC: 2.289 instructions: 183238059 cycles: 80066241
CPU 0 Branch Prediction Accuracy: 90.09% MPKI: 14.5 Average ROB Occupancy at Mispredict: 30.41
Branch type MPKI
BRANCH_DIRECT_JUMP: 0.0612
BRANCH_INDIRECT: 0
BRANCH_CONDITIONAL: 14.4
BRANCH_DIRECT_CALL: 0
BRANCH_INDIRECT_CALL: 0
BRANCH_RETURN: 0.0685


CPU 1 cumulative IPC: 2.942 instructions: 235569992 cycles: 80066241
CPU 1 Branch Prediction Accuracy: 95.1% MPKI: 8.07 Average ROB Occupancy at Mispredict: 87.36
Branch type MPKI
BRANCH_DIRECT_JUMP: 0.156
BRANCH_INDIRECT: 0
BRANCH_CONDITIONAL: 6.74
BRANCH_DIRECT_CALL: 0
BRANCH_INDIRECT_CALL: 0
BRANCH_RETURN: 1.17


CPU 2 cumulative IPC: 1.873 instructions: 150000000 cycles: 80066241
CPU 2 Branch Prediction Accuracy: 99.98% MPKI: 0.00438 Average ROB Occupancy at Mispredict: 352
Branch type MPKI
BRANCH_DIRECT_JUMP: 0
BRANCH_INDIRECT: 0
BRANCH_CONDITIONAL: 0.00438
BRANCH_DIRECT_CALL: 0
BRANCH_INDIRECT_CALL: 0
BRANCH_RETURN: 0


CPU 3 cumulative IPC: 2.024 instructions: 162078101 cycles: 80066241
CPU 3 Branch Prediction Accuracy: 97.8% MPKI: 3.551 Average ROB Occupancy at Mispredict: 102
Branch type MPKI
BRANCH_DIRECT_JUMP: 0.0274
BRANCH_INDIRECT: 0.000722
BRANCH_CONDITIONAL: 3.48
BRANCH_DIRECT_CALL: 0.00171
BRANCH_INDIRECT_CALL: 0
BRANCH_RETURN: 0.0375

LLC TOTAL        ACCESS:      71668 HIT:      29345 MISS:      42323
LLC LOAD         ACCESS:       1327 HIT:       1244 MISS:         83
LLC RFO          ACCESS:      15761 HIT:          0 MISS:      15761
LLC PREFETCH     ACCESS:      38760 HIT:      28101 MISS:      10659
LLC WRITE        ACCESS:      15818 HIT:          0 MISS:      15818
LLC TRANSLATION  ACCESS:          2 HIT:          0 MISS:          2
LLC PREFETCH REQUESTED:          0 ISSUED:          0 USEFUL:          0 USELESS:          0
LLC AVERAGE MISS LATENCY: 90.52 cycles
LLC TOTAL        ACCESS:     273865 HIT:     179448 MISS:      94417
LLC LOAD         ACCESS:       8473 HIT:       7089 MISS:       1384
LLC RFO          ACCESS:      12815 HIT:          0 MISS:      12815
LLC PREFETCH     ACCESS:     239755 HIT:     172262 MISS:      67493
LLC WRITE        ACCESS:      12742 HIT:         97 MISS:      12645
LLC TRANSLATION  ACCESS:         80 HIT:          0 MISS:         80
LLC PREFETCH REQUESTED:          0 ISSUED:          0 USEFUL:          0 USELESS:          0
LLC AVERAGE MISS LATENCY: 90.52 cycles
LLC TOTAL        ACCESS:   16769468 HIT:    7048862 MISS:    9720606
LLC LOAD         ACCESS:     892795 HIT:     601603 MISS:     291192
LLC RFO          ACCESS:        207 HIT:        207 MISS:          0
LLC PREFETCH     ACCESS:   14561059 HIT:    5131790 MISS:    9429269
LLC WRITE        ACCESS:    1315140 HIT:    1315117 MISS:         23
LLC TRANSLATION  ACCESS:        267 HIT:        145 MISS:        122
LLC PREFETCH REQUESTED:          0 ISSUED:          0 USEFUL:          0 USELESS:          0
LLC AVERAGE MISS LATENCY: 90.52 cycles
LLC TOTAL        ACCESS:    5404085 HIT:    3626565 MISS:    1777520
LLC LOAD         ACCESS:     458817 HIT:     361109 MISS:      97708
LLC RFO          ACCESS:     325669 HIT:     105225 MISS:     220444
LLC PREFETCH     ACCESS:    4156614 HIT:    2705180 MISS:    1451434
LLC WRITE        ACCESS:     458709 HIT:     453898 MISS:       4811
LLC TRANSLATION  ACCESS:       4276 HIT:       1153 MISS:       3123
LLC PREFETCH REQUESTED:          0 ISSUED:          0 USEFUL:          0 USELESS:          0
LLC AVERAGE MISS LATENCY: 90.52 cycles
cpu0_DTLB TOTAL        ACCESS:   22824020 HIT:   22821700 MISS:       2320
cpu0_DTLB LOAD         ACCESS:   22824020 HIT:   22821700 MISS:       2320
cpu0_DTLB RFO          ACCESS:          0 HIT:          0 MISS:          0
cpu0_DTLB PREFETCH     ACCESS:          0 HIT:          0 MISS:          0
cpu0_DTLB WRITE        ACCESS:          0 HIT:          0 MISS:          0
cpu0_DTLB TRANSLATION  ACCESS:          0 HIT:          0 MISS:          0
cpu0_DTLB PREFETCH REQUESTED:          0 ISSUED:          0 USEFUL:          0 USELESS:          0
cpu0_DTLB AVERAGE MISS LATENCY: 23.7 cycles
cpu0_DTLB TOTAL        ACCESS:          0 HIT:          0 MISS:          0
cpu0_DTLB LOAD         ACCESS:          0 HIT:          0 MISS:          0
cpu0_DTLB RFO          ACCESS:          0 HIT:          0 MISS:          0
cpu0_DTLB PREFETCH     ACCESS:          0 HIT:          0 MISS:          0
cpu0_DTLB WRITE        ACCESS:          0 HIT:          0 MISS:          0
cpu0_DTLB TRANSLATION  ACCESS:          0 HIT:          0 MISS:          0
cpu0_DTLB PREFETCH REQUESTED:          0 ISSUED:          0 USEFUL:          0 USELESS:          0
cpu0_DTLB AVERAGE MISS LATENCY: 23.7 cycles
cpu0_DTLB TOTAL        ACCESS:          0 HIT:          0 MISS:          0
cpu0_DTLB LOAD         ACCESS:          0 HIT:          0 MISS:          0
cpu0_DTLB RFO          ACCESS:          0 HIT:          0 MISS:          0
cpu0_DTLB PREFETCH     ACCESS:          0 HIT:          0 MISS:          0
cpu0_DTLB WRITE        ACCESS:          0 HIT:          0 MISS:          0
cpu0_DTLB TRANSLATION  ACCESS:          0 HIT:          0 MISS:          0
cpu0_DTLB PREFETCH REQUESTED:          0 ISSUED:          0 USEFUL:          0 USELESS:          0
cpu0_DTLB AVERAGE MISS LATENCY: 23.7 cycles
cpu0_DTLB TOTAL        ACCESS:          0 HIT:          0 MISS:          0
cpu0_DTLB LOAD         ACCESS:          0 HIT:          0 MISS:          0
cpu0_DTLB RFO          ACCESS:          0 HIT:          0 MISS:          0
cpu0_DTLB PREFETCH     ACCESS:          0 HIT:          0 MISS:          0
cpu0_DTLB WRITE        ACCESS:          0 HIT:          0 MISS:          0
cpu0_DTLB TRANSLATION  ACCESS:          0 HIT:          0 MISS:          0
cpu0_DTLB PREFETCH REQUESTED:          0 ISSUED:          0 USEFUL:          0 USELESS:          0
cpu0_DTLB AVERAGE MISS LATENCY: 23.7 cycles
cpu0_ITLB TOTAL        ACCESS:     592576 HIT:     592576 MISS:          0
cpu0_ITLB LOAD         ACCESS:     592576 HIT:     592576 MISS:          0
cpu0_ITLB RFO          ACCESS:          0 HIT:          0 MISS:          0
cpu0_ITLB PREFETCH     ACCESS:          0 HIT:          0 MISS:          0
cpu0_ITLB WRITE        ACCESS:          0 HIT:          0 MISS:          0
cpu0_ITLB TRANSLATION  ACCESS:          0 HIT:          0 MISS:          0
cpu0_ITLB PREFETCH REQUESTED:          0 ISSUED:          0 USEFUL:          0 USELESS:          0
cpu0_ITLB AVERAGE MISS LATENCY: -nan cycles
cpu0_ITLB TOTAL        ACCESS:          0 HIT:          0 MISS:          0
cpu0_ITLB LOAD         ACCESS:          0 HIT:          0 MISS:          0
cpu0_ITLB RFO          ACCESS:          0 HIT:          0 MISS:          0
cpu0_ITLB PREFETCH     ACCESS:          0 HIT:          0 MISS:          0
cpu0_ITLB WRITE        ACCESS:          0 HIT:          0 MISS:          0
cpu0_ITLB TRANSLATION  ACCESS:          0 HIT:          0 MISS:          0
cpu0_ITLB PREFETCH REQUESTED:          0 ISSUED:          0 USEFUL:          0 USELESS:          0
cpu0_ITLB AVERAGE MISS LATENCY: -nan cycles
cpu0_ITLB TOTAL        ACCESS:          0 HIT:          0 MISS:          0
cpu0_ITLB LOAD         ACCESS:          0 HIT:          0 MISS:          0
cpu0_ITLB RFO          ACCESS:          0 HIT:          0 MISS:          0
cpu0_ITLB PREFETCH     ACCESS:          0 HIT:          0 MISS:          0
cpu0_ITLB WRITE        ACCESS:          0 HIT:          0 MISS:          0
cpu0_ITLB TRANSLATION  ACCESS:          0 HIT:          0 MISS:          0
cpu0_ITLB PREFETCH REQUESTED:          0 ISSUED:          0 USEFUL:          0 USELESS:          0
cpu0_ITLB AVERAGE MISS LATENCY: -nan cycles
cpu0_ITLB TOTAL        ACCESS:          0 HIT:          0 MISS:          0
cpu0_ITLB LOAD         ACCESS:          0 HIT:          0 MISS:          0
cpu0_ITLB RFO          ACCESS:          0 HIT:          0 MISS:          0
cpu0_ITLB PREFETCH     ACCESS:          0 HIT:          0 MISS:          0
cpu0_ITLB WRITE        ACCESS:          0 HIT:          0 MISS:          0
cpu0_ITLB TRANSLATION  ACCESS:          0 HIT:          0 MISS:          0
cpu0_ITLB PREFETCH REQUESTED:          0 ISSUED:          0 USEFUL:          0 USELESS:          0
cpu0_ITLB AVERAGE MISS LATENCY: -nan cycles
cpu0_L1D TOTAL        ACCESS:   34308301 HIT:   34182995 MISS:     125306
cpu0_L1D LOAD         ACCESS:   27294193 HIT:   27289838 MISS:       4355
cpu0_L1D RFO          ACCESS:          0 HIT:          0 MISS:          0
cpu0_L1D PREFETCH     ACCESS:          0 HIT:          0 MISS:          0
cpu0_L1D WRITE        ACCESS:    7013812 HIT:    6892887 MISS:     120925
cpu0_L1D TRANSLATION  ACCESS:        296 HIT:        270 MISS:         26
cpu0_L1D PREFETCH REQUESTED:          0 ISSUED:          0 USEFUL:          0 USELESS:          0
cpu0_L1D AVERAGE MISS LATENCY: 286.8 cycles
cpu0_L1D TOTAL        ACCESS:          0 HIT:          0 MISS:          0
cpu0_L1D LOAD         ACCESS:          0 HIT:          0 MISS:          0
cpu0_L1D RFO          ACCESS:          0 HIT:          0 MISS:          0
cpu0_L1D PREFETCH     ACCESS:          0 HIT:          0 MISS:          0
cpu0_L1D WRITE        ACCESS:          0 HIT:          0 MISS:          0
cpu0_L1D TRANSLATION  ACCESS:          0 HIT:          0 MISS:          0
cpu0_L1D PREFETCH REQUESTED:          0 ISSUED:          0 USEFUL:          0 USELESS:          0
cpu0_L1D AVERAGE MISS LATENCY: 286.8 cycles
cpu0_L1D TOTAL        ACCESS:          0 HIT:          0 MISS:          0
cpu0_L1D LOAD         ACCESS:          0 HIT:          0 MISS:          0
cpu0_L1D RFO          ACCESS:          0 HIT:          0 MISS:          0
cpu0_L1D PREFETCH     ACCESS:          0 HIT:          0 MISS:          0
cpu0_L1D WRITE        ACCESS:          0 HIT:          0 MISS:          0
cpu0_L1D TRANSLATION  ACCESS:          0 HIT:          0 MISS:          0
cpu0_L1D PREFETCH REQUESTED:          0 ISSUED:          0 USEFUL:          0 USELESS:          0
cpu0_L1D AVERAGE MISS LATENCY: 286.8 cycles
cpu0_L1D TOTAL        ACCESS:          0 HIT:          0 MISS:          0
cpu0_L1D LOAD         ACCESS:          0 HIT:          0 MISS:          0
cpu0_L1D RFO          ACCESS:          0 HIT:          0 MISS:          0
cpu0_L1D PREFETCH     ACCESS:          0 HIT:          0 MISS:          0
cpu0_L1D WRITE        ACCESS:          0 HIT:          0 MISS:          0
cpu0_L1D TRANSLATION  ACCESS:          0 HIT:          0 MISS:          0
cpu0_L1D PREFETCH REQUESTED:          0 ISSUED:          0 USEFUL:          0 USELESS:          0
cpu0_L1D AVERAGE MISS LATENCY: 286.8 cycles
cpu0_L1I TOTAL        ACCESS:     703637 HIT:     703637 MISS:          0
cpu0_L1I LOAD         ACCESS:     703637 HIT:     703637 MISS:          0
cpu0_L1I RFO          ACCESS:          0 HIT:          0 MISS:          0
cpu0_L1I PREFETCH     ACCESS:          0 HIT:          0 MISS:          0
cpu0_L1I WRITE        ACCESS:          0 HIT:          0 MISS:          0
cpu0_L1I TRANSLATION  ACCESS:          0 HIT:          0 MISS:          0
cpu0_L1I PREFETCH REQUESTED:          0 ISSUED:          0 USEFUL:          0 USELESS:          0
cpu0_L1I AVERAGE MISS LATENCY: -nan cycles
cpu0_L1I TOTAL        ACCESS:          0 HIT:          0 MISS:          0
cpu0_L1I LOAD         ACCESS:          0 HIT:          0 MISS:          0
cpu0_L1I RFO          ACCESS:          0 HIT:          0 MISS:          0
cpu0_L1I PREFETCH     ACCESS:          0 HIT:          0 MISS:          0
cpu0_L1I WRITE        ACCESS:          0 HIT:          0 MISS:          0
cpu0_L1I TRANSLATION  ACCESS:          0 HIT:          0 MISS:          0
cpu0_L1I PREFETCH REQUESTED:          0 ISSUED:          0 USEFUL:          0 USELESS:          0
cpu0_L1I AVERAGE MISS LATENCY: -nan cycles
cpu0_L1I TOTAL        ACCESS:          0 HIT:          0 MISS:          0
cpu0_L1I LOAD         ACCESS:          0 HIT:          0 MISS:          0
cpu0_L1I RFO          ACCESS:          0 HIT:          0 MISS:          0
cpu0_L1I PREFETCH     ACCESS:          0 HIT:          0 MISS:          0
cpu0_L1I WRITE        ACCESS:          0 HIT:          0 MISS:          0
cpu0_L1I TRANSLATION  ACCESS:          0 HIT:          0 MISS:          0
cpu0_L1I PREFETCH REQUESTED:          0 ISSUED:          0 USEFUL:          0 USELESS:          0
cpu0_L1I AVERAGE MISS LATENCY: -nan cycles
cpu0_L1I TOTAL        ACCESS:          0 HIT:          0 MISS:          0
cpu0_L1I LOAD         ACCESS:          0 HIT:          0 MISS:          0
cpu0_L1I RFO          ACCESS:          0 HIT:          0 MISS:          0
cpu0_L1I PREFETCH     ACCESS:          0 HIT:          0 MISS:          0
cpu0_L1I WRITE        ACCESS:          0 HIT:          0 MISS:          0
cpu0_L1I TRANSLATION  ACCESS:          0 HIT:          0 MISS:          0
cpu0_L1I PREFETCH REQUESTED:          0 ISSUED:          0 USEFUL:          0 USELESS:          0
cpu0_L1I AVERAGE MISS LATENCY: -nan cycles
cpu0_L2C TOTAL        ACCESS:      79731 HIT:      18604 MISS:      61127
cpu0_L2C LOAD         ACCESS:       3375 HIT:       2010 MISS:       1365
cpu0_L2C RFO          ACCESS:      15905 HIT:        144 MISS:      15761
cpu0_L2C PREFETCH     ACCESS:      44511 HIT:        537 MISS:      43974
cpu0_L2C WRITE        ACCESS:      15914 HIT:      15889 MISS:         25
cpu0_L2C TRANSLATION  ACCESS:         26 HIT:         24 MISS:          2
cpu0_L2C PREFETCH REQUESTED:      44698 ISSUED:      44511 USEFUL:       1837 USELESS:          4
cpu0_L2C AVERAGE MISS LATENCY: 612.5 cycles
cpu0_L2C TOTAL        ACCESS:          0 HIT:          0 MISS:          0
cpu0_L2C LOAD         ACCESS:          0 HIT:          0 MISS:          0
cpu0_L2C RFO          ACCESS:          0 HIT:          0 MISS:          0
cpu0_L2C PREFETCH     ACCESS:          0 HIT:          0 MISS:          0
cpu0_L2C WRITE        ACCESS:          0 HIT:          0 MISS:          0
cpu0_L2C TRANSLATION  ACCESS:          0 HIT:          0 MISS:          0
cpu0_L2C PREFETCH REQUESTED:      44698 ISSUED:      44511 USEFUL:       1837 USELESS:          4
cpu0_L2C AVERAGE MISS LATENCY: 612.5 cycles
cpu0_L2C TOTAL        ACCESS:          0 HIT:          0 MISS:          0
cpu0_L2C LOAD         ACCESS:          0 HIT:          0 MISS:          0
cpu0_L2C RFO          ACCESS:          0 HIT:          0 MISS:          0
cpu0_L2C PREFETCH     ACCESS:          0 HIT:          0 MISS:          0
cpu0_L2C WRITE        ACCESS:          0 HIT:          0 MISS:          0
cpu0_L2C TRANSLATION  ACCESS:          0 HIT:          0 MISS:          0
cpu0_L2C PREFETCH REQUESTED:      44698 ISSUED:      44511 USEFUL:       1837 USELESS:          4
cpu0_L2C AVERAGE MISS LATENCY: 612.5 cycles
cpu0_L2C TOTAL        ACCESS:          0 HIT:          0 MISS:          0
cpu0_L2C LOAD         ACCESS:          0 HIT:          0 MISS:          0
cpu0_L2C RFO          ACCESS:          0 HIT:          0 MISS:          0
cpu0_L2C PREFETCH     ACCESS:          0 HIT:          0 MISS:          0
cpu0_L2C WRITE        ACCESS:          0 HIT:          0 MISS:          0
cpu0_L2C TRANSLATION  ACCESS:          0 HIT:          0 MISS:          0
cpu0_L2C PREFETCH REQUESTED:      44698 ISSUED:      44511 USEFUL:       1837 USELESS:          4
cpu0_L2C AVERAGE MISS LATENCY: 612.5 cycles
cpu0_STLB TOTAL        ACCESS:        300 HIT:          5 MISS:        295
cpu0_STLB LOAD         ACCESS:        300 HIT:          5 MISS:        295
cpu0_STLB RFO          ACCESS:          0 HIT:          0 MISS:          0
cpu0_STLB PREFETCH     ACCESS:          0 HIT:          0 MISS:          0
cpu0_STLB WRITE        ACCESS:          0 HIT:          0 MISS:          0
cpu0_STLB TRANSLATION  ACCESS:          0 HIT:          0 MISS:          0
cpu0_STLB PREFETCH REQUESTED:          0 ISSUED:          0 USEFUL:          0 USELESS:          0
cpu0_STLB AVERAGE MISS LATENCY: 224.5 cycles
cpu0_STLB TOTAL        ACCESS:          0 HIT:          0 MISS:          0
cpu0_STLB LOAD         ACCESS:          0 HIT:          0 MISS:          0
cpu0_STLB RFO          ACCESS:          0 HIT:          0 MISS:          0
cpu0_STLB PREFETCH     ACCESS:          0 HIT:          0 MISS:          0
cpu0_STLB WRITE        ACCESS:          0 HIT:          0 MISS:          0
cpu0_STLB TRANSLATION  ACCESS:          0 HIT:          0 MISS:          0
cpu0_STLB PREFETCH REQUESTED:          0 ISSUED:          0 USEFUL:          0 USELESS:          0
cpu0_STLB AVERAGE MISS LATENCY: 224.5 cycles
cpu0_STLB TOTAL        ACCESS:          0 HIT:          0 MISS:          0
cpu0_STLB LOAD         ACCESS:          0 HIT:          0 MISS:          0
cpu0_STLB RFO          ACCESS:          0 HIT:          0 MISS:          0
cpu0_STLB PREFETCH     ACCESS:          0 HIT:          0 MISS:          0
cpu0_STLB WRITE        ACCESS:          0 HIT:          0 MISS:          0
cpu0_STLB TRANSLATION  ACCESS:          0 HIT:          0 MISS:          0
cpu0_STLB PREFETCH REQUESTED:          0 ISSUED:          0 USEFUL:          0 USELESS:          0
cpu0_STLB AVERAGE MISS LATENCY: 224.5 cycles
cpu0_STLB TOTAL        ACCESS:          0 HIT:          0 MISS:          0
cpu0_STLB LOAD         ACCESS:          0 HIT:          0 MISS:          0
cpu0_STLB RFO          ACCESS:          0 HIT:          0 MISS:          0
cpu0_STLB PREFETCH     ACCESS:          0 HIT:          0 MISS:          0
cpu0_STLB WRITE        ACCESS:          0 HIT:          0 MISS:          0
cpu0_STLB TRANSLATION  ACCESS:          0 HIT:          0 MISS:          0
cpu0_STLB PREFETCH REQUESTED:          0 ISSUED:          0 USEFUL:          0 USELESS:          0
cpu0_STLB AVERAGE MISS LATENCY: 224.5 cycles
cpu1_DTLB TOTAL        ACCESS:          0 HIT:          0 MISS:          0
cpu1_DTLB LOAD         ACCESS:          0 HIT:          0 MISS:          0
cpu1_DTLB RFO          ACCESS:          0 HIT:          0 MISS:          0
cpu1_DTLB PREFETCH     ACCESS:          0 HIT:          0 MISS:          0
cpu1_DTLB WRITE        ACCESS:          0 HIT:          0 MISS:          0
cpu1_DTLB TRANSLATION  ACCESS:          0 HIT:          0 MISS:          0
cpu1_DTLB PREFETCH REQUESTED:          0 ISSUED:          0 USEFUL:          0 USELESS:          0
cpu1_DTLB AVERAGE MISS LATENCY: 50.2 cycles
cpu1_DTLB TOTAL        ACCESS:   28933630 HIT:   28930273 MISS:       3357
cpu1_DTLB LOAD         ACCESS:   28933630 HIT:   28930273 MISS:       3357
cpu1_DTLB RFO          ACCESS:          0 HIT:          0 MISS:          0
cpu1_DTLB PREFETCH     ACCESS:          0 HIT:          0 MISS:          0
cpu1_DTLB WRITE        ACCESS:          0 HIT:          0 MISS:          0
cpu1_DTLB TRANSLATION  ACCESS:          0 HIT:          0 MISS:          0
cpu1_DTLB PREFETCH REQUESTED:          0 ISSUED:          0 USEFUL:          0 USELESS:          0
cpu1_DTLB AVERAGE MISS LATENCY: 50.2 cycles
cpu1_DTLB TOTAL        ACCESS:          0 HIT:          0 MISS:          0
cpu1_DTLB LOAD         ACCESS:          0 HIT:          0 MISS:          0
cpu1_DTLB RFO          ACCESS:          0 HIT:          0 MISS:          0
cpu1_DTLB PREFETCH     ACCESS:          0 HIT:          0 MISS:          0
cpu1_DTLB WRITE        ACCESS:          0 HIT:          0 MISS:          0
cpu1_DTLB TRANSLATION  ACCESS:          0 HIT:          0 MISS:          0
cpu1_DTLB PREFETCH REQUESTED:          0 ISSUED:          0 USEFUL:          0 USELESS:          0
cpu1_DTLB AVERAGE MISS LATENCY: 50.2 cycles
cpu1_DTLB TOTAL        ACCESS:          0 HIT:          0 MISS:          0
cpu1_DTLB LOAD         ACCESS:          0 HIT:          0 MISS:          0
cpu1_DTLB RFO          ACCESS:          0 HIT:          0 MISS:          0
cpu1_DTLB PREFETCH     ACCESS:          0 HIT:          0 MISS:          0
cpu1_DTLB WRITE        ACCESS:          0 HIT:          0 MISS:          0
cpu1_DTLB TRANSLATION  ACCESS:          0 HIT:          0 MISS:          0
cpu1_DTLB PREFETCH REQUESTED:          0 ISSUED:          0 USEFUL:          0 USELESS:          0
cpu1_DTLB AVERAGE MISS LATENCY: 50.2 cycles
cpu1_ITLB TOTAL        ACCESS:          0 HIT:          0 MISS:          0
cpu1_ITLB LOAD         ACCESS:          0 HIT:          0 MISS:          0
cpu1_ITLB RFO          ACCESS:          0 HIT:          0 MISS:          0
cpu1_ITLB PREFETCH     ACCESS:          0 HIT:          0 MISS:          0
cpu1_ITLB WRITE        ACCESS:          0 HIT:          0 MISS:          0
cpu1_ITLB TRANSLATION  ACCESS:          0 HIT:          0 MISS:          0
cpu1_ITLB PREFETCH REQUESTED:          0 ISSUED:          0 USEFUL:          0 USELESS:          0
cpu1_ITLB AVERAGE MISS LATENCY: -nan cycles
cpu1_ITLB TOTAL        ACCESS:    2234324 HIT:    2234324 MISS:          0
cpu1_ITLB LOAD         ACCESS:    2234324 HIT:    2234324 MISS:          0
cpu1_ITLB RFO          ACCESS:          0 HIT:          0 MISS:          0
cpu1_ITLB PREFETCH     ACCESS:          0 HIT:          0 MISS:          0
cpu1_ITLB WRITE        ACCESS:          0 HIT:          0 MISS:          0
cpu1_ITLB TRANSLATION  ACCESS:          0 HIT:          0 MISS:          0
cpu1_ITLB PREFETCH REQUESTED:          0 ISSUED:          0 USEFUL:          0 USELESS:          0
cpu1_ITLB AVERAGE MISS LATENCY: -nan cycles
cpu1_ITLB TOTAL        ACCESS:          0 HIT:          0 MISS:          0
cpu1_ITLB LOAD         ACCESS:          0 HIT:          0 MISS:          0
cpu1_ITLB RFO          ACCESS:          0 HIT:          0 MISS:          0
cpu1_ITLB PREFETCH     ACCESS:          0 HIT:          0 MISS:          0
cpu1_ITLB WRITE        ACCESS:          0 HIT:          0 MISS:          0
cpu1_ITLB TRANSLATION  ACCESS:          0 HIT:          0 MISS:          0
cpu1_ITLB PREFETCH REQUESTED:          0 ISSUED:          0 USEFUL:          0 USELESS:          0
cpu1_ITLB AVERAGE MISS LATENCY: -nan cycles
cpu1_ITLB TOTAL        ACCESS:          0 HIT:          0 MISS:          0
cpu1_ITLB LOAD         ACCESS:          0 HIT:          0 MISS:          0
cpu1_ITLB RFO          ACCESS:          0 HIT:          0 MISS:          0
cpu1_ITLB PREFETCH     ACCESS:          0 HIT:          0 MISS:          0
cpu1_ITLB WRITE        ACCESS:          0 HIT:          0 MISS:          0
cpu1_ITLB TRANSLATION  ACCESS:          0 HIT:          0 MISS:          0
cpu1_ITLB PREFETCH REQUESTED:          0 ISSUED:          0 USEFUL:          0 USELESS:          0
cpu1_ITLB AVERAGE MISS LATENCY: -nan cycles
cpu1_L1D TOTAL        ACCESS:          0 HIT:          0 MISS:          0
cpu1_L1D LOAD         ACCESS:          0 HIT:          0 MISS:          0
cpu1_L1D RFO          ACCESS:          0 HIT:          0 MISS:          0
cpu1_L1D PREFETCH     ACCESS:          0 HIT:          0 MISS:          0
cpu1_L1D WRITE        ACCESS:          0 HIT:          0 MISS:          0
cpu1_L1D TRANSLATION  ACCESS:          0 HIT:          0 MISS:          0
cpu1_L1D PREFETCH REQUESTED:          0 ISSUED:          0 USEFUL:          0 USELESS:          0
cpu1_L1D AVERAGE MISS LATENCY: 63.88 cycles
cpu1_L1D TOTAL        ACCESS:   40167637 HIT:   40079890 MISS:      87747
cpu1_L1D LOAD         ACCESS:   23039696 HIT:   23017147 MISS:      22549
cpu1_L1D RFO          ACCESS:          0 HIT:          0 MISS:          0
cpu1_L1D PREFETCH     ACCESS:          0 HIT:          0 MISS:          0
cpu1_L1D WRITE        ACCESS:   17127228 HIT:   17062110 MISS:      65118
cpu1_L1D TRANSLATION  ACCESS:        713 HIT:        633 MISS:         80
cpu1_L1D PREFETCH REQUESTED:          0 ISSUED:          0 USEFUL:          0 USELESS:          0
cpu1_L1D AVERAGE MISS LATENCY: 63.88 cycles
cpu1_L1D TOTAL        ACCESS:          0 HIT:          0 MISS:          0
cpu1_L1D LOAD         ACCESS:          0 HIT:          0 MISS:          0
cpu1_L1D RFO          ACCESS:          0 HIT:          0 MISS:          0
cpu1_L1D PREFETCH     ACCESS:          0 HIT:          0 MISS:          0
cpu1_L1D WRITE        ACCESS:          0 HIT:          0 MISS:          0
cpu1_L1D TRANSLATION  ACCESS:          0 HIT:          0 MISS:          0
cpu1_L1D PREFETCH REQUESTED:          0 ISSUED:          0 USEFUL:          0 USELESS:          0
cpu1_L1D AVERAGE MISS LATENCY: 63.88 cycles
cpu1_L1D TOTAL        ACCESS:          0 HIT:          0 MISS:          0
cpu1_L1D LOAD         ACCESS:          0 HIT:          0 MISS:          0
cpu1_L1D RFO          ACCESS:          0 HIT:          0 MISS:          0
cpu1_L1D PREFETCH     ACCESS:          0 HIT:          0 MISS:          0
cpu1_L1D WRITE        ACCESS:          0 HIT:          0 MISS:          0
cpu1_L1D TRANSLATION  ACCESS:          0 HIT:          0 MISS:          0
cpu1_L1D PREFETCH REQUESTED:          0 ISSUED:          0 USEFUL:          0 USELESS:          0
cpu1_L1D AVERAGE MISS LATENCY: 63.88 cycles
cpu1_L1I TOTAL        ACCESS:          0 HIT:          0 MISS:          0
cpu1_L1I LOAD         ACCESS:          0 HIT:          0 MISS:          0
cpu1_L1I RFO          ACCESS:          0 HIT:          0 MISS:          0
cpu1_L1I PREFETCH     ACCESS:          0 HIT:          0 MISS:          0
cpu1_L1I WRITE        ACCESS:          0 HIT:          0 MISS:          0
cpu1_L1I TRANSLATION  ACCESS:          0 HIT:          0 MISS:          0
cpu1_L1I PREFETCH REQUESTED:          0 ISSUED:          0 USEFUL:          0 USELESS:          0
cpu1_L1I AVERAGE MISS LATENCY: -nan cycles
cpu1_L1I TOTAL        ACCESS:    2734615 HIT:    2734615 MISS:          0
cpu1_L1I LOAD         ACCESS:    2734615 HIT:    2734615 MISS:          0
cpu1_L1I RFO          ACCESS:          0 HIT:          0 MISS:          0
cpu1_L1I PREFETCH     ACCESS:          0 HIT:          0 MISS:          0
cpu1_L1I WRITE        ACCESS:          0 HIT:          0 MISS:          0
cpu1_L1I TRANSLATION  ACCESS:          0 HIT:          0 MISS:          0
cpu1_L1I PREFETCH REQUESTED:          0 ISSUED:          0 USEFUL:          0 USELESS:          0
cpu1_L1I AVERAGE MISS LATENCY: -nan cycles
cpu1_L1I TOTAL        ACCESS:          0 HIT:          0 MISS:          0
cpu1_L1I LOAD         ACCESS:          0 HIT:          0 MISS:          0
cpu1_L1I RFO          ACCESS:          0 HIT:          0 MISS:          0
cpu1_L1I PREFETCH     ACCESS:          0 HIT:          0 MISS:          0
cpu1_L1I WRITE        ACCESS:          0 HIT:          0 MISS:          0
cpu1_L1I TRANSLATION  ACCESS:          0 HIT:          0 MISS:          0
cpu1_L1I PREFETCH REQUESTED:          0 ISSUED:          0 USEFUL:          0 USELESS:          0
cpu1_L1I AVERAGE MISS LATENCY: -nan cycles
cpu1_L1I TOTAL        ACCESS:          0 HIT:          0 MISS:          0
cpu1_L1I LOAD         ACCESS:          0 HIT:          0 MISS:          0
cpu1_L1I RFO          ACCESS:          0 HIT:          0 MISS:          0
cpu1_L1I PREFETCH     ACCESS:          0 HIT:          0 MISS:          0
cpu1_L1I WRITE        ACCESS:          0 HIT:          0 MISS:          0
cpu1_L1I TRANSLATION  ACCESS:          0 HIT:          0 MISS:          0
cpu1_L1I PREFETCH REQUESTED:          0 ISSUED:          0 USEFUL:          0 USELESS:          0
cpu1_L1I AVERAGE MISS LATENCY: -nan cycles
cpu1_L2C TOTAL        ACCESS:          0 HIT:          0 MISS:          0
cpu1_L2C LOAD         ACCESS:          0 HIT:          0 MISS:          0
cpu1_L2C RFO          ACCESS:          0 HIT:          0 MISS:          0
cpu1_L2C PREFETCH     ACCESS:          0 HIT:          0 MISS:          0
cpu1_L2C WRITE        ACCESS:          0 HIT:          0 MISS:          0
cpu1_L2C TRANSLATION  ACCESS:          0 HIT:          0 MISS:          0
cpu1_L2C PREFETCH REQUESTED:     285143 ISSUED:     279690 USEFUL:      10876 USELESS:        135
cpu1_L2C AVERAGE MISS LATENCY: 34.27 cycles
cpu1_L2C TOTAL        ACCESS:     326258 HIT:      25026 MISS:     301232
cpu1_L2C LOAD         ACCESS:      19556 HIT:      10788 MISS:       8768
cpu1_L2C RFO          ACCESS:      13454 HIT:        639 MISS:      12815
cpu1_L2C PREFETCH     ACCESS:     279690 HIT:        121 MISS:     279569
cpu1_L2C WRITE        ACCESS:      13478 HIT:      13478 MISS:          0
cpu1_L2C TRANSLATION  ACCESS:         80 HIT:          0 MISS:         80
cpu1_L2C PREFETCH REQUESTED:     285143 ISSUED:     279690 USEFUL:      10876 USELESS:        135
cpu1_L2C AVERAGE MISS LATENCY: 34.27 cycles
cpu1_L2C TOTAL        ACCESS:          0 HIT:          0 MISS:          0
cpu1_L2C LOAD         ACCESS:          0 HIT:          0 MISS:          0
cpu1_L2C RFO          ACCESS:          0 HIT:          0 MISS:          0
cpu1_L2C PREFETCH     ACCESS:          0 HIT:          0 MISS:          0
cpu1_L2C WRITE        ACCESS:          0 HIT:          0 MISS:          0
cpu1_L2C TRANSLATION  ACCESS:          0 HIT:          0 MISS:          0
cpu1_L2C PREFETCH REQUESTED:     285143 ISSUED:     279690 USEFUL:      10876 USELESS:        135
cpu1_L2C AVERAGE MISS LATENCY: 34.27 cycles
cpu1_L2C TOTAL        ACCESS:          0 HIT:          0 MISS:          0
cpu1_L2C LOAD         ACCESS:          0 HIT:          0 MISS:          0
cpu1_L2C RFO          ACCESS:          0 HIT:          0 MISS:          0
cpu1_L2C PREFETCH     ACCESS:          0 HIT:          0 MISS:          0
cpu1_L2C WRITE        ACCESS:          0 HIT:          0 MISS:          0
cpu1_L2C TRANSLATION  ACCESS:          0 HIT:          0 MISS:          0
cpu1_L2C PREFETCH REQUESTED:     285143 ISSUED:     279690 USEFUL:      10876 USELESS:        135
cpu1_L2C AVERAGE MISS LATENCY: 34.27 cycles
cpu1_STLB TOTAL        ACCESS:          0 HIT:          0 MISS:          0
cpu1_STLB LOAD         ACCESS:          0 HIT:          0 MISS:          0
cpu1_STLB RFO          ACCESS:          0 HIT:          0 MISS:          0
cpu1_STLB PREFETCH     ACCESS:          0 HIT:          0 MISS:          0
cpu1_STLB WRITE        ACCESS:          0 HIT:          0 MISS:          0
cpu1_STLB TRANSLATION  ACCESS:          0 HIT:          0 MISS:          0
cpu1_STLB PREFETCH REQUESTED:          0 ISSUED:          0 USEFUL:          0 USELESS:          0
cpu1_STLB AVERAGE MISS LATENCY: 300.5 cycles
cpu1_STLB TOTAL        ACCESS:        778 HIT:         67 MISS:        711
cpu1_STLB LOAD         ACCESS:        778 HIT:         67 MISS:        711
cpu1_STLB RFO          ACCESS:          0 HIT:          0 MISS:          0
cpu1_STLB PREFETCH     ACCESS:          0 HIT:          0 MISS:          0
cpu1_STLB WRITE        ACCESS:          0 HIT:          0 MISS:          0
cpu1_STLB TRANSLATION  ACCESS:          0 HIT:          0 MISS:          0
cpu1_STLB PREFETCH REQUESTED:          0 ISSUED:          0 USEFUL:          0 USELESS:          0
cpu1_STLB AVERAGE MISS LATENCY: 300.5 cycles
cpu1_STLB TOTAL        ACCESS:          0 HIT:          0 MISS:          0
cpu1_STLB LOAD         ACCESS:          0 HIT:          0 MISS:          0
cpu1_STLB RFO          ACCESS:          0 HIT:          0 MISS:          0
cpu1_STLB PREFETCH     ACCESS:          0 HIT:          0 MISS:          0
cpu1_STLB WRITE        ACCESS:          0 HIT:          0 MISS:          0
cpu1_STLB TRANSLATION  ACCESS:          0 HIT:          0 MISS:          0
cpu1_STLB PREFETCH REQUESTED:          0 ISSUED:          0 USEFUL:          0 USELESS:          0
cpu1_STLB AVERAGE MISS LATENCY: 300.5 cycles
cpu1_STLB TOTAL        ACCESS:          0 HIT:          0 MISS:          0
cpu1_STLB LOAD         ACCESS:          0 HIT:          0 MISS:          0
cpu1_STLB RFO          ACCESS:          0 HIT:          0 MISS:          0
cpu1_STLB PREFETCH     ACCESS:          0 HIT:          0 MISS:          0
cpu1_STLB WRITE        ACCESS:          0 HIT:          0 MISS:          0
cpu1_STLB TRANSLATION  ACCESS:          0 HIT:          0 MISS:          0
cpu1_STLB PREFETCH REQUESTED:          0 ISSUED:          0 USEFUL:          0 USELESS:          0
cpu1_STLB AVERAGE MISS LATENCY: 300.5 cycles
cpu2_DTLB TOTAL        ACCESS:          0 HIT:          0 MISS:          0
cpu2_DTLB LOAD         ACCESS:          0 HIT:          0 MISS:          0
cpu2_DTLB RFO          ACCESS:          0 HIT:          0 MISS:          0
cpu2_DTLB PREFETCH     ACCESS:          0 HIT:          0 MISS:          0
cpu2_DTLB WRITE        ACCESS:          0 HIT:          0 MISS:          0
cpu2_DTLB TRANSLATION  ACCESS:          0 HIT:          0 MISS:          0
cpu2_DTLB PREFETCH REQUESTED:          0 ISSUED:          0 USEFUL:          0 USELESS:          0
cpu2_DTLB AVERAGE MISS LATENCY: 20.85 cycles
cpu2_DTLB TOTAL        ACCESS:          0 HIT:          0 MISS:          0
cpu2_DTLB LOAD         ACCESS:          0 HIT:          0 MISS:          0
cpu2_DTLB RFO          ACCESS:          0 HIT:          0 MISS:          0
cpu2_DTLB PREFETCH     ACCESS:          0 HIT:          0 MISS:          0
cpu2_DTLB WRITE        ACCESS:          0 HIT:          0 MISS:          0
cpu2_DTLB TRANSLATION  ACCESS:          0 HIT:          0 MISS:          0
cpu2_DTLB PREFETCH REQUESTED:          0 ISSUED:          0 USEFUL:          0 USELESS:          0
cpu2_DTLB AVERAGE MISS LATENCY: 20.85 cycles
cpu2_DTLB TOTAL        ACCESS:   16305347 HIT:   16158258 MISS:     147089
cpu2_DTLB LOAD         ACCESS:   16305347 HIT:   16158258 MISS:     147089
cpu2_DTLB RFO          ACCESS:          0 HIT:          0 MISS:          0
cpu2_DTLB PREFETCH     ACCESS:          0 HIT:          0 MISS:          0
cpu2_DTLB WRITE        ACCESS:          0 HIT:          0 MISS:          0
cpu2_DTLB TRANSLATION  ACCESS:          0 HIT:          0 MISS:          0
cpu2_DTLB PREFETCH REQUESTED:          0 ISSUED:          0 USEFUL:          0 USELESS:          0
cpu2_DTLB AVERAGE MISS LATENCY: 20.85 cycles
cpu2_DTLB TOTAL        ACCESS:          0 HIT:          0 MISS:          0
cpu2_DTLB LOAD         ACCESS:          0 HIT:          0 MISS:          0
cpu2_DTLB RFO          ACCESS:          0 HIT:          0 MISS:          0
cpu2_DTLB PREFETCH     ACCESS:          0 HIT:          0 MISS:          0
cpu2_DTLB WRITE        ACCESS:          0 HIT:          0 MISS:          0
cpu2_DTLB TRANSLATION  ACCESS:          0 HIT:          0 MISS:          0
cpu2_DTLB PREFETCH REQUESTED:          0 ISSUED:          0 USEFUL:          0 USELESS:          0
cpu2_DTLB AVERAGE MISS LATENCY: 20.85 cycles
cpu2_ITLB TOTAL        ACCESS:          0 HIT:          0 MISS:          0
cpu2_ITLB LOAD         ACCESS:          0 HIT:          0 MISS:          0
cpu2_ITLB RFO          ACCESS:          0 HIT:          0 MISS:          0
cpu2_ITLB PREFETCH     ACCESS:          0 HIT:          0 MISS:          0
cpu2_ITLB WRITE        ACCESS:          0 HIT:          0 MISS:          0
cpu2_ITLB TRANSLATION  ACCESS:          0 HIT:          0 MISS:          0
cpu2_ITLB PREFETCH REQUESTED:          0 ISSUED:          0 USEFUL:          0 USELESS:          0
cpu2_ITLB AVERAGE MISS LATENCY: -nan cycles
cpu2_ITLB TOTAL        ACCESS:          0 HIT:          0 MISS:          0
cpu2_ITLB LOAD         ACCESS:          0 HIT:          0 MISS:          0
cpu2_ITLB RFO          ACCESS:          0 HIT:          0 MISS:          0
cpu2_ITLB PREFETCH     ACCESS:          0 HIT:          0 MISS:          0
cpu2_ITLB WRITE        ACCESS:          0 HIT:          0 MISS:          0
cpu2_ITLB TRANSLATION  ACCESS:          0 HIT:          0 MISS:          0
cpu2_ITLB PREFETCH REQUESTED:          0 ISSUED:          0 USEFUL:          0 USELESS:          0
cpu2_ITLB AVERAGE MISS LATENCY: -nan cycles
cpu2_ITLB TOTAL        ACCESS:          0 HIT:          0 MISS:          0
cpu2_ITLB LOAD         ACCESS:          0 HIT:          0 MISS:          0
cpu2_ITLB RFO          ACCESS:          0 HIT:          0 MISS:          0
cpu2_ITLB PREFETCH     ACCESS:          0 HIT:          0 MISS:          0
cpu2_ITLB WRITE        ACCESS:          0 HIT:          0 MISS:          0
cpu2_ITLB TRANSLATION  ACCESS:          0 HIT:          0 MISS:          0
cpu2_ITLB PREFETCH REQUESTED:          0 ISSUED:          0 USEFUL:          0 USELESS:          0
cpu2_ITLB AVERAGE MISS LATENCY: -nan cycles
cpu2_ITLB TOTAL        ACCESS:          0 HIT:          0 MISS:          0
cpu2_ITLB LOAD         ACCESS:          0 HIT:          0 MISS:          0
cpu2_ITLB RFO          ACCESS:          0 HIT:          0 MISS:          0
cpu2_ITLB PREFETCH     ACCESS:          0 HIT:          0 MISS:          0
cpu2_ITLB WRITE        ACCESS:          0 HIT:          0 MISS:          0
cpu2_ITLB TRANSLATION  ACCESS:          0 HIT:          0 MISS:          0
cpu2_ITLB PREFETCH REQUESTED:          0 ISSUED:          0 USEFUL:          0 USELESS:          0
cpu2_ITLB AVERAGE MISS LATENCY: -nan cycles
cpu2_L1D TOTAL        ACCESS:          0 HIT:          0 MISS:          0
cpu2_L1D LOAD         ACCESS:          0 HIT:          0 MISS:          0
cpu2_L1D RFO          ACCESS:          0 HIT:          0 MISS:          0
cpu2_L1D PREFETCH     ACCESS:          0 HIT:          0 MISS:          0
cpu2_L1D WRITE        ACCESS:          0 HIT:          0 MISS:          0
cpu2_L1D TRANSLATION  ACCESS:          0 HIT:          0 MISS:          0
cpu2_L1D PREFETCH REQUESTED:          0 ISSUED:          0 USEFUL:          0 USELESS:          0
cpu2_L1D AVERAGE MISS LATENCY: 38.34 cycles
cpu2_L1D TOTAL        ACCESS:          0 HIT:          0 MISS:          0
cpu2_L1D LOAD         ACCESS:          0 HIT:          0 MISS:          0
cpu2_L1D RFO          ACCESS:          0 HIT:          0 MISS:          0
cpu2_L1D PREFETCH     ACCESS:          0 HIT:          0 MISS:          0
cpu2_L1D WRITE        ACCESS:          0 HIT:          0 MISS:          0
cpu2_L1D TRANSLATION  ACCESS:          0 HIT:          0 MISS:          0
cpu2_L1D PREFETCH REQUESTED:          0 ISSUED:          0 USEFUL:          0 USELESS:          0
cpu2_L1D AVERAGE MISS LATENCY: 38.34 cycles
cpu2_L1D TOTAL        ACCESS:   24251448 HIT:   20731274 MISS:    3520174
cpu2_L1D LOAD         ACCESS:   13699951 HIT:   10188294 MISS:    3511657
cpu2_L1D RFO          ACCESS:          0 HIT:          0 MISS:          0
cpu2_L1D PREFETCH     ACCESS:          0 HIT:          0 MISS:          0
cpu2_L1D WRITE        ACCESS:   10530829 HIT:   10523133 MISS:       7696
cpu2_L1D TRANSLATION  ACCESS:      20668 HIT:      19847 MISS:        821
cpu2_L1D PREFETCH REQUESTED:          0 ISSUED:          0 USEFUL:          0 USELESS:          0
cpu2_L1D AVERAGE MISS LATENCY: 38.34 cycles
cpu2_L1D TOTAL        ACCESS:          0 HIT:          0 MISS:          0
cpu2_L1D LOAD         ACCESS:          0 HIT:          0 MISS:          0
cpu2_L1D RFO          ACCESS:          0 HIT:          0 MISS:          0
cpu2_L1D PREFETCH     ACCESS:          0 HIT:          0 MISS:          0
cpu2_L1D WRITE        ACCESS:          0 HIT:          0 MISS:          0
cpu2_L1D TRANSLATION  ACCESS:          0 HIT:          0 MISS:          0
cpu2_L1D PREFETCH REQUESTED:          0 ISSUED:          0 USEFUL:          0 USELESS:          0
cpu2_L1D AVERAGE MISS LATENCY: 38.34 cycles
cpu2_L1I TOTAL        ACCESS:          0 HIT:          0 MISS:          0
cpu2_L1I LOAD         ACCESS:          0 HIT:          0 MISS:          0
cpu2_L1I RFO          ACCESS:          0 HIT:          0 MISS:          0
cpu2_L1I PREFETCH     ACCESS:          0 HIT:          0 MISS:          0
cpu2_L1I WRITE        ACCESS:          0 HIT:          0 MISS:          0
cpu2_L1I TRANSLATION  ACCESS:          0 HIT:          0 MISS:          0
cpu2_L1I PREFETCH REQUESTED:          0 ISSUED:          0 USEFUL:          0 USELESS:          0
cpu2_L1I AVERAGE MISS LATENCY: -nan cycles
cpu2_L1I TOTAL        ACCESS:          0 HIT:          0 MISS:          0
cpu2_L1I LOAD         ACCESS:          0 HIT:          0 MISS:          0
cpu2_L1I RFO          ACCESS:          0 HIT:          0 MISS:          0
cpu2_L1I PREFETCH     ACCESS:          0 HIT:          0 MISS:          0
cpu2_L1I WRITE        ACCESS:          0 HIT:          0 MISS:          0
cpu2_L1I TRANSLATION  ACCESS:          0 HIT:          0 MISS:          0
cpu2_L1I PREFETCH REQUESTED:          0 ISSUED:          0 USEFUL:          0 USELESS:          0
cpu2_L1I AVERAGE MISS LATENCY: -nan cycles
cpu2_L1I TOTAL        ACCESS:          0 HIT:          0 MISS:          0
cpu2_L1I LOAD         ACCESS:          0 HIT:          0 MISS:          0
cpu2_L1I RFO          ACCESS:          0 HIT:          0 MISS:          0
cpu2_L1I PREFETCH     ACCESS:          0 HIT:          0 MISS:          0
cpu2_L1I WRITE        ACCESS:          0 HIT:          0 MISS:          0
cpu2_L1I TRANSLATION  ACCESS:          0 HIT:          0 MISS:          0
cpu2_L1I PREFETCH REQUESTED:          0 ISSUED:          0 USEFUL:          0 USELESS:          0
cpu2_L1I AVERAGE MISS LATENCY: -nan cycles
cpu2_L1I TOTAL        ACCESS:          0 HIT:          0 MISS:          0
cpu2_L1I LOAD         ACCESS:          0 HIT:          0 MISS:          0
cpu2_L1I RFO          ACCESS:          0 HIT:          0 MISS:          0
cpu2_L1I PREFETCH     ACCESS:          0 HIT:          0 MISS:          0
cpu2_L1I WRITE        ACCESS:          0 HIT:          0 MISS:          0
cpu2_L1I TRANSLATION  ACCESS:          0 HIT:          0 MISS:          0
cpu2_L1I PREFETCH REQUESTED:          0 ISSUED:          0 USEFUL:          0 USELESS:          0
cpu2_L1I AVERAGE MISS LATENCY: -nan cycles
cpu2_L2C TOTAL        ACCESS:          0 HIT:          0 MISS:          0
cpu2_L2C LOAD         ACCESS:          0 HIT:          0 MISS:          0
cpu2_L2C RFO          ACCESS:          0 HIT:          0 MISS:          0
cpu2_L2C PREFETCH     ACCESS:          0 HIT:          0 MISS:          0
cpu2_L2C WRITE        ACCESS:          0 HIT:          0 MISS:          0
cpu2_L2C TRANSLATION  ACCESS:          0 HIT:          0 MISS:          0
cpu2_L2C PREFETCH REQUESTED:   30730305 ISSUED:   24779846 USEFUL:     480833 USELESS:         89
cpu2_L2C AVERAGE MISS LATENCY: 8.335 cycles
cpu2_L2C TOTAL        ACCESS:          0 HIT:          0 MISS:          0
cpu2_L2C LOAD         ACCESS:          0 HIT:          0 MISS:          0
cpu2_L2C RFO          ACCESS:          0 HIT:          0 MISS:          0
cpu2_L2C PREFETCH     ACCESS:          0 HIT:          0 MISS:          0
cpu2_L2C WRITE        ACCESS:          0 HIT:          0 MISS:          0
cpu2_L2C TRANSLATION  ACCESS:          0 HIT:          0 MISS:          0
cpu2_L2C PREFETCH REQUESTED:   30730305 ISSUED:   24779846 USEFUL:     480833 USELESS:         89
cpu2_L2C AVERAGE MISS LATENCY: 8.335 cycles
cpu2_L2C TOTAL        ACCESS:   28083471 HIT:    9272810 MISS:   18810661
cpu2_L2C LOAD         ACCESS:    1982772 HIT:     720584 MISS:    1262188
cpu2_L2C RFO          ACCESS:       2303 HIT:       2096 MISS:        207
cpu2_L2C PREFETCH     ACCESS:   24779828 HIT:    7231829 MISS:   17547999
cpu2_L2C WRITE        ACCESS:    1317752 HIT:    1317752 MISS:          0
cpu2_L2C TRANSLATION  ACCESS:        816 HIT:        549 MISS:        267
cpu2_L2C PREFETCH REQUESTED:   30730305 ISSUED:   24779846 USEFUL:     480833 USELESS:         89
cpu2_L2C AVERAGE MISS LATENCY: 8.335 cycles
cpu2_L2C TOTAL        ACCESS:          0 HIT:          0 MISS:          0
cpu2_L2C LOAD         ACCESS:          0 HIT:          0 MISS:          0
cpu2_L2C RFO          ACCESS:          0 HIT:          0 MISS:          0
cpu2_L2C PREFETCH     ACCESS:          0 HIT:          0 MISS:          0
cpu2_L2C WRITE        ACCESS:          0 HIT:          0 MISS:          0
cpu2_L2C TRANSLATION  ACCESS:          0 HIT:          0 MISS:          0
cpu2_L2C PREFETCH REQUESTED:   30730305 ISSUED:   24779846 USEFUL:     480833 USELESS:         89
cpu2_L2C AVERAGE MISS LATENCY: 8.335 cycles
cpu2_STLB TOTAL        ACCESS:          0 HIT:          0 MISS:          0
cpu2_STLB LOAD         ACCESS:          0 HIT:          0 MISS:          0
cpu2_STLB RFO          ACCESS:          0 HIT:          0 MISS:          0
cpu2_STLB PREFETCH     ACCESS:          0 HIT:          0 MISS:          0
cpu2_STLB WRITE        ACCESS:          0 HIT:          0 MISS:          0
cpu2_STLB TRANSLATION  ACCESS:          0 HIT:          0 MISS:          0
cpu2_STLB PREFETCH REQUESTED:          0 ISSUED:          0 USEFUL:          0 USELESS:          0
cpu2_STLB AVERAGE MISS LATENCY: 210.2 cycles
cpu2_STLB TOTAL        ACCESS:          0 HIT:          0 MISS:          0
cpu2_STLB LOAD         ACCESS:          0 HIT:          0 MISS:          0
cpu2_STLB RFO          ACCESS:          0 HIT:          0 MISS:          0
cpu2_STLB PREFETCH     ACCESS:          0 HIT:          0 MISS:          0
cpu2_STLB WRITE        ACCESS:          0 HIT:          0 MISS:          0
cpu2_STLB TRANSLATION  ACCESS:          0 HIT:          0 MISS:          0
cpu2_STLB PREFETCH REQUESTED:          0 ISSUED:          0 USEFUL:          0 USELESS:          0
cpu2_STLB AVERAGE MISS LATENCY: 210.2 cycles
cpu2_STLB TOTAL        ACCESS:      35130 HIT:      14544 MISS:      20586
cpu2_STLB LOAD         ACCESS:      35130 HIT:      14544 MISS:      20586
cpu2_STLB RFO          ACCESS:          0 HIT:          0 MISS:          0
cpu2_STLB PREFETCH     ACCESS:          0 HIT:          0 MISS:          0
cpu2_STLB WRITE        ACCESS:          0 HIT:          0 MISS:          0
cpu2_STLB TRANSLATION  ACCESS:          0 HIT:          0 MISS:          0
cpu2_STLB PREFETCH REQUESTED:          0 ISSUED:          0 USEFUL:          0 USELESS:          0
cpu2_STLB AVERAGE MISS LATENCY: 210.2 cycles
cpu2_STLB TOTAL        ACCESS:          0 HIT:          0 MISS:          0
cpu2_STLB LOAD         ACCESS:          0 HIT:          0 MISS:          0
cpu2_STLB RFO          ACCESS:          0 HIT:          0 MISS:          0
cpu2_STLB PREFETCH     ACCESS:          0 HIT:          0 MISS:          0
cpu2_STLB WRITE        ACCESS:          0 HIT:          0 MISS:          0
cpu2_STLB TRANSLATION  ACCESS:          0 HIT:          0 MISS:          0
cpu2_STLB PREFETCH REQUESTED:          0 ISSUED:          0 USEFUL:          0 USELESS:          0
cpu2_STLB AVERAGE MISS LATENCY: 210.2 cycles
cpu3_DTLB TOTAL        ACCESS:          0 HIT:          0 MISS:          0
cpu3_DTLB LOAD         ACCESS:          0 HIT:          0 MISS:          0
cpu3_DTLB RFO          ACCESS:          0 HIT:          0 MISS:          0
cpu3_DTLB PREFETCH     ACCESS:          0 HIT:          0 MISS:          0
cpu3_DTLB WRITE        ACCESS:          0 HIT:          0 MISS:          0
cpu3_DTLB TRANSLATION  ACCESS:          0 HIT:          0 MISS:          0
cpu3_DTLB PREFETCH REQUESTED:          0 ISSUED:          0 USEFUL:          0 USELESS:          0
cpu3_DTLB AVERAGE MISS LATENCY: 15.65 cycles
cpu3_DTLB TOTAL        ACCESS:          0 HIT:          0 MISS:          0
cpu3_DTLB LOAD         ACCESS:          0 HIT:          0 MISS:          0
cpu3_DTLB RFO          ACCESS:          0 HIT:          0 MISS:          0
cpu3_DTLB PREFETCH     ACCESS:          0 HIT:          0 MISS:          0
cpu3_DTLB WRITE        ACCESS:          0 HIT:          0 MISS:          0
cpu3_DTLB TRANSLATION  ACCESS:          0 HIT:          0 MISS:          0
cpu3_DTLB PREFETCH REQUESTED:          0 ISSUED:          0 USEFUL:          0 USELESS:          0
cpu3_DTLB AVERAGE MISS LATENCY: 15.65 cycles
cpu3_DTLB TOTAL        ACCESS:          0 HIT:          0 MISS:          0
cpu3_DTLB LOAD         ACCESS:          0 HIT:          0 MISS:          0
cpu3_DTLB RFO          ACCESS:          0 HIT:          0 MISS:          0
cpu3_DTLB PREFETCH     ACCESS:          0 HIT:          0 MISS:          0
cpu3_DTLB WRITE        ACCESS:          0 HIT:          0 MISS:          0
cpu3_DTLB TRANSLATION  ACCESS:          0 HIT:          0 MISS:          0
cpu3_DTLB PREFETCH REQUESTED:          0 ISSUED:          0 USEFUL:          0 USELESS:          0
cpu3_DTLB AVERAGE MISS LATENCY: 15.65 cycles
cpu3_DTLB TOTAL        ACCESS:   21746361 HIT:   21551997 MISS:     194364
cpu3_DTLB LOAD         ACCESS:   21746361 HIT:   21551997 MISS:     194364
cpu3_DTLB RFO          ACCESS:          0 HIT:          0 MISS:          0
cpu3_DTLB PREFETCH     ACCESS:          0 HIT:          0 MISS:          0
cpu3_DTLB WRITE        ACCESS:          0 HIT:          0 MISS:          0
cpu3_DTLB TRANSLATION  ACCESS:          0 HIT:          0 MISS:          0
cpu3_DTLB PREFETCH REQUESTED:          0 ISSUED:          0 USEFUL:          0 USELESS:          0
cpu3_DTLB AVERAGE MISS LATENCY: 15.65 cycles
cpu3_ITLB TOTAL        ACCESS:          0 HIT:          0 MISS:          0
cpu3_ITLB LOAD         ACCESS:          0 HIT:          0 MISS:          0
cpu3_ITLB RFO          ACCESS:          0 HIT:          0 MISS:          0
cpu3_ITLB PREFETCH     ACCESS:          0 HIT:          0 MISS:          0
cpu3_ITLB WRITE        ACCESS:          0 HIT:          0 MISS:          0
cpu3_ITLB TRANSLATION  ACCESS:          0 HIT:          0 MISS:          0
cpu3_ITLB PREFETCH REQUESTED:          0 ISSUED:          0 USEFUL:          0 USELESS:          0
cpu3_ITLB AVERAGE MISS LATENCY: 12.98 cycles
cpu3_ITLB TOTAL        ACCESS:          0 HIT:          0 MISS:          0
cpu3_ITLB LOAD         ACCESS:          0 HIT:          0 MISS:          0
cpu3_ITLB RFO          ACCESS:          0 HIT:          0 MISS:          0
cpu3_ITLB PREFETCH     ACCESS:          0 HIT:          0 MISS:          0
cpu3_ITLB WRITE        ACCESS:          0 HIT:          0 MISS:          0
cpu3_ITLB TRANSLATION  ACCESS:          0 HIT:          0 MISS:          0
cpu3_ITLB PREFETCH REQUESTED:          0 ISSUED:          0 USEFUL:          0 USELESS:          0
cpu3_ITLB AVERAGE MISS LATENCY: 12.98 cycles
cpu3_ITLB TOTAL        ACCESS:          0 HIT:          0 MISS:          0
cpu3_ITLB LOAD         ACCESS:          0 HIT:          0 MISS:          0
cpu3_ITLB RFO          ACCESS:          0 HIT:          0 MISS:          0
cpu3_ITLB PREFETCH     ACCESS:          0 HIT:          0 MISS:          0
cpu3_ITLB WRITE        ACCESS:          0 HIT:          0 MISS:          0
cpu3_ITLB TRANSLATION  ACCESS:          0 HIT:          0 MISS:          0
cpu3_ITLB PREFETCH REQUESTED:          0 ISSUED:          0 USEFUL:          0 USELESS:          0
cpu3_ITLB AVERAGE MISS LATENCY: 12.98 cycles
cpu3_ITLB TOTAL        ACCESS:     315438 HIT:     308305 MISS:       7133
cpu3_ITLB LOAD         ACCESS:     315438 HIT:     308305 MISS:       7133
cpu3_ITLB RFO          ACCESS:          0 HIT:          0 MISS:          0
cpu3_ITLB PREFETCH     ACCESS:          0 HIT:          0 MISS:          0
cpu3_ITLB WRITE        ACCESS:          0 HIT:          0 MISS:          0
cpu3_ITLB TRANSLATION  ACCESS:          0 HIT:          0 MISS:          0
cpu3_ITLB PREFETCH REQUESTED:          0 ISSUED:          0 USEFUL:          0 USELESS:          0
cpu3_ITLB AVERAGE MISS LATENCY: 12.98 cycles
cpu3_L1D TOTAL        ACCESS:          0 HIT:          0 MISS:          0
cpu3_L1D LOAD         ACCESS:          0 HIT:          0 MISS:          0
cpu3_L1D RFO          ACCESS:          0 HIT:          0 MISS:          0
cpu3_L1D PREFETCH     ACCESS:          0 HIT:          0 MISS:          0
cpu3_L1D WRITE        ACCESS:          0 HIT:          0 MISS:          0
cpu3_L1D TRANSLATION  ACCESS:          0 HIT:          0 MISS:          0
cpu3_L1D PREFETCH REQUESTED:          0 ISSUED:          0 USEFUL:          0 USELESS:          0
cpu3_L1D AVERAGE MISS LATENCY: 66.55 cycles
cpu3_L1D TOTAL        ACCESS:          0 HIT:          0 MISS:          0
cpu3_L1D LOAD         ACCESS:          0 HIT:          0 MISS:          0
cpu3_L1D RFO          ACCESS:          0 HIT:          0 MISS:          0
cpu3_L1D PREFETCH     ACCESS:          0 HIT:          0 MISS:          0
cpu3_L1D WRITE        ACCESS:          0 HIT:          0 MISS:          0
cpu3_L1D TRANSLATION  ACCESS:          0 HIT:          0 MISS:          0
cpu3_L1D PREFETCH REQUESTED:          0 ISSUED:          0 USEFUL:          0 USELESS:          0
cpu3_L1D AVERAGE MISS LATENCY: 66.55 cycles
cpu3_L1D TOTAL        ACCESS:          0 HIT:          0 MISS:          0
cpu3_L1D LOAD         ACCESS:          0 HIT:          0 MISS:          0
cpu3_L1D RFO          ACCESS:          0 HIT:          0 MISS:          0
cpu3_L1D PREFETCH     ACCESS:          0 HIT:          0 MISS:          0
cpu3_L1D WRITE        ACCESS:          0 HIT:          0 MISS:          0
cpu3_L1D TRANSLATION  ACCESS:          0 HIT:          0 MISS:          0
cpu3_L1D PREFETCH REQUESTED:          0 ISSUED:          0 USEFUL:          0 USELESS:          0
cpu3_L1D AVERAGE MISS LATENCY: 66.55 cycles
cpu3_L1D TOTAL        ACCESS:   26693248 HIT:   21272763 MISS:    5420485
cpu3_L1D LOAD         ACCESS:   16114662 HIT:   13860987 MISS:    2253675
cpu3_L1D RFO          ACCESS:          0 HIT:          0 MISS:          0
cpu3_L1D PREFETCH     ACCESS:          0 HIT:          0 MISS:          0
cpu3_L1D WRITE        ACCESS:   10569617 HIT:    7409491 MISS:    3160126
cpu3_L1D TRANSLATION  ACCESS:       8969 HIT:       2285 MISS:       6684
cpu3_L1D PREFETCH REQUESTED:          0 ISSUED:          0 USEFUL:          0 USELESS:          0
cpu3_L1D AVERAGE MISS LATENCY: 66.55 cycles
cpu3_L1I TOTAL        ACCESS:          0 HIT:          0 MISS:          0
cpu3_L1I LOAD         ACCESS:          0 HIT:          0 MISS:          0
cpu3_L1I RFO          ACCESS:          0 HIT:          0 MISS:          0
cpu3_L1I PREFETCH     ACCESS:          0 HIT:          0 MISS:          0
cpu3_L1I WRITE        ACCESS:          0 HIT:          0 MISS:          0
cpu3_L1I TRANSLATION  ACCESS:          0 HIT:          0 MISS:          0
cpu3_L1I PREFETCH REQUESTED:          0 ISSUED:          0 USEFUL:          0 USELESS:          0
cpu3_L1I AVERAGE MISS LATENCY: 21.55 cycles
cpu3_L1I TOTAL        ACCESS:          0 HIT:          0 MISS:          0
cpu3_L1I LOAD         ACCESS:          0 HIT:          0 MISS:          0
cpu3_L1I RFO          ACCESS:          0 HIT:          0 MISS:          0
cpu3_L1I PREFETCH     ACCESS:          0 HIT:          0 MISS:          0
cpu3_L1I WRITE        ACCESS:          0 HIT:          0 MISS:          0
cpu3_L1I TRANSLATION  ACCESS:          0 HIT:          0 MISS:          0
cpu3_L1I PREFETCH REQUESTED:          0 ISSUED:          0 USEFUL:          0 USELESS:          0
cpu3_L1I AVERAGE MISS LATENCY: 21.55 cycles
cpu3_L1I TOTAL        ACCESS:          0 HIT:          0 MISS:          0
cpu3_L1I LOAD         ACCESS:          0 HIT:          0 MISS:          0
cpu3_L1I RFO          ACCESS:          0 HIT:          0 MISS:          0
cpu3_L1I PREFETCH     ACCESS:          0 HIT:          0 MISS:          0
cpu3_L1I WRITE        ACCESS:          0 HIT:          0 MISS:          0
cpu3_L1I TRANSLATION  ACCESS:          0 HIT:          0 MISS:          0
cpu3_L1I PREFETCH REQUESTED:          0 ISSUED:          0 USEFUL:          0 USELESS:          0
cpu3_L1I AVERAGE MISS LATENCY: 21.55 cycles
cpu3_L1I TOTAL        ACCESS:     391811 HIT:     273111 MISS:     118700
cpu3_L1I LOAD         ACCESS:     391811 HIT:     273111 MISS:     118700
cpu3_L1I RFO          ACCESS:          0 HIT:          0 MISS:          0
cpu3_L1I PREFETCH     ACCESS:          0 HIT:          0 MISS:          0
cpu3_L1I WRITE        ACCESS:          0 HIT:          0 MISS:          0
cpu3_L1I TRANSLATION  ACCESS:          0 HIT:          0 MISS:          0
cpu3_L1I PREFETCH REQUESTED:          0 ISSUED:          0 USEFUL:          0 USELESS:          0
cpu3_L1I AVERAGE MISS LATENCY: 21.55 cycles
cpu3_L2C TOTAL        ACCESS:          0 HIT:          0 MISS:          0
cpu3_L2C LOAD         ACCESS:          0 HIT:          0 MISS:          0
cpu3_L2C RFO          ACCESS:          0 HIT:          0 MISS:          0
cpu3_L2C PREFETCH     ACCESS:          0 HIT:          0 MISS:          0
cpu3_L2C WRITE        ACCESS:          0 HIT:          0 MISS:          0
cpu3_L2C TRANSLATION  ACCESS:          0 HIT:          0 MISS:          0
cpu3_L2C PREFETCH REQUESTED:   16153111 ISSUED:   10480464 USEFUL:     186026 USELESS:       8007
cpu3_L2C AVERAGE MISS LATENCY: 62.25 cycles
cpu3_L2C TOTAL        ACCESS:          0 HIT:          0 MISS:          0
cpu3_L2C LOAD         ACCESS:          0 HIT:          0 MISS:          0
cpu3_L2C RFO          ACCESS:          0 HIT:          0 MISS:          0
cpu3_L2C PREFETCH     ACCESS:          0 HIT:          0 MISS:          0
cpu3_L2C WRITE        ACCESS:          0 HIT:          0 MISS:          0
cpu3_L2C TRANSLATION  ACCESS:          0 HIT:          0 MISS:          0
cpu3_L2C PREFETCH REQUESTED:   16153111 ISSUED:   10480464 USEFUL:     186026 USELESS:       8007
cpu3_L2C AVERAGE MISS LATENCY: 62.25 cycles
cpu3_L2C TOTAL        ACCESS:          0 HIT:          0 MISS:          0
cpu3_L2C LOAD         ACCESS:          0 HIT:          0 MISS:          0
cpu3_L2C RFO          ACCESS:          0 HIT:          0 MISS:          0
cpu3_L2C PREFETCH     ACCESS:          0 HIT:          0 MISS:          0
cpu3_L2C WRITE        ACCESS:          0 HIT:          0 MISS:          0
cpu3_L2C TRANSLATION  ACCESS:          0 HIT:          0 MISS:          0
cpu3_L2C PREFETCH REQUESTED:   16153111 ISSUED:   10480464 USEFUL:     186026 USELESS:       8007
cpu3_L2C AVERAGE MISS LATENCY: 62.25 cycles
cpu3_L2C TOTAL        ACCESS:   13787415 HIT:    7814341 MISS:    5973074
cpu3_L2C LOAD         ACCESS:    1482946 HIT:     953236 MISS:     529710
cpu3_L2C RFO          ACCESS:     784404 HIT:     458731 MISS:     325673
cpu3_L2C PREFETCH     ACCESS:   10480468 HIT:    5367477 MISS:    5112991
cpu3_L2C WRITE        ACCESS:    1033017 HIT:    1032593 MISS:        424
cpu3_L2C TRANSLATION  ACCESS:       6580 HIT:       2304 MISS:       4276
cpu3_L2C PREFETCH REQUESTED:   16153111 ISSUED:   10480464 USEFUL:     186026 USELESS:       8007
cpu3_L2C AVERAGE MISS LATENCY: 62.25 cycles
cpu3_STLB TOTAL        ACCESS:          0 HIT:          0 MISS:          0
cpu3_STLB LOAD         ACCESS:          0 HIT:          0 MISS:          0
cpu3_STLB RFO          ACCESS:          0 HIT:          0 MISS:          0
cpu3_STLB PREFETCH     ACCESS:          0 HIT:          0 MISS:          0
cpu3_STLB WRITE        ACCESS:          0 HIT:          0 MISS:          0
cpu3_STLB TRANSLATION  ACCESS:          0 HIT:          0 MISS:          0
cpu3_STLB PREFETCH REQUESTED:          0 ISSUED:          0 USEFUL:          0 USELESS:          0
cpu3_STLB AVERAGE MISS LATENCY: 467.3 cycles
cpu3_STLB TOTAL        ACCESS:          0 HIT:          0 MISS:          0
cpu3_STLB LOAD         ACCESS:          0 HIT:          0 MISS:          0
cpu3_STLB RFO          ACCESS:          0 HIT:          0 MISS:          0
cpu3_STLB PREFETCH     ACCESS:          0 HIT:          0 MISS:          0
cpu3_STLB WRITE        ACCESS:          0 HIT:          0 MISS:          0
cpu3_STLB TRANSLATION  ACCESS:          0 HIT:          0 MISS:          0
cpu3_STLB PREFETCH REQUESTED:          0 ISSUED:          0 USEFUL:          0 USELESS:          0
cpu3_STLB AVERAGE MISS LATENCY: 467.3 cycles
cpu3_STLB TOTAL        ACCESS:          0 HIT:          0 MISS:          0
cpu3_STLB LOAD         ACCESS:          0 HIT:          0 MISS:          0
cpu3_STLB RFO          ACCESS:          0 HIT:          0 MISS:          0
cpu3_STLB PREFETCH     ACCESS:          0 HIT:          0 MISS:          0
cpu3_STLB WRITE        ACCESS:          0 HIT:          0 MISS:          0
cpu3_STLB TRANSLATION  ACCESS:          0 HIT:          0 MISS:          0
cpu3_STLB PREFETCH REQUESTED:          0 ISSUED:          0 USEFUL:          0 USELESS:          0
cpu3_STLB AVERAGE MISS LATENCY: 467.3 cycles
cpu3_STLB TOTAL        ACCESS:      72915 HIT:      65146 MISS:       7769
cpu3_STLB LOAD         ACCESS:      72915 HIT:      65146 MISS:       7769
cpu3_STLB RFO          ACCESS:          0 HIT:          0 MISS:          0
cpu3_STLB PREFETCH     ACCESS:          0 HIT:          0 MISS:          0
cpu3_STLB WRITE        ACCESS:          0 HIT:          0 MISS:          0
cpu3_STLB TRANSLATION  ACCESS:          0 HIT:          0 MISS:          0
cpu3_STLB PREFETCH REQUESTED:          0 ISSUED:          0 USEFUL:          0 USELESS:          0
cpu3_STLB AVERAGE MISS LATENCY: 467.3 cycles

Region of Interest Statistics

CPU 0 cumulative IPC: 2.294 instructions: 150000000 cycles: 65399633
CPU 0 Branch Prediction Accuracy: 90.1% MPKI: 14.48 Average ROB Occupancy at Mispredict: 30.48
Branch type MPKI
BRANCH_DIRECT_JUMP: 0.0605
BRANCH_INDIRECT: 0
BRANCH_CONDITIONAL: 14.4
BRANCH_DIRECT_CALL: 0
BRANCH_INDIRECT_CALL: 0
BRANCH_RETURN: 0.0674


CPU 1 cumulative IPC: 2.953 instructions: 150000004 cycles: 50789352
CPU 1 Branch Prediction Accuracy: 95.09% MPKI: 8.062 Average ROB Occupancy at Mispredict: 90.65
Branch type MPKI
BRANCH_DIRECT_JUMP: 0.154
BRANCH_INDIRECT: 0
BRANCH_CONDITIONAL: 6.67
BRANCH_DIRECT_CALL: 0
BRANCH_INDIRECT_CALL: 0
BRANCH_RETURN: 1.24


CPU 2 cumulative IPC: 1.873 instructions: 150000000 cycles: 80066241
CPU 2 Branch Prediction Accuracy: 99.98% MPKI: 0.00438 Average ROB Occupancy at Mispredict: 352
Branch type MPKI
BRANCH_DIRECT_JUMP: 0
BRANCH_INDIRECT: 0
BRANCH_CONDITIONAL: 0.00438
BRANCH_DIRECT_CALL: 0
BRANCH_INDIRECT_CALL: 0
BRANCH_RETURN: 0


CPU 3 cumulative IPC: 2.026 instructions: 150000004 cycles: 74031361
CPU 3 Branch Prediction Accuracy: 97.85% MPKI: 3.55 Average ROB Occupancy at Mispredict: 100.8
Branch type MPKI
BRANCH_DIRECT_JUMP: 0.0257
BRANCH_INDIRECT: 0.00066
BRANCH_CONDITIONAL: 3.48
BRANCH_DIRECT_CALL: 0.00185
BRANCH_INDIRECT_CALL: 0
BRANCH_RETURN: 0.0405

LLC TOTAL        ACCESS:      50393 HIT:      22049 MISS:      28344
LLC LOAD         ACCESS:        880 HIT:        827 MISS:         53
LLC RFO          ACCESS:      10761 HIT:          0 MISS:      10761
LLC PREFETCH     ACCESS:      28154 HIT:      21222 MISS:       6932
LLC WRITE        ACCESS:      10596 HIT:          0 MISS:      10596
LLC TRANSLATION  ACCESS:          2 HIT:          0 MISS:          2
LLC PREFETCH REQUESTED:          0 ISSUED:          0 USEFUL:          0 USELESS:          0
LLC AVERAGE MISS LATENCY: 90.52 cycles
LLC TOTAL        ACCESS:     193442 HIT:     126778 MISS:      66664
LLC LOAD         ACCESS:       5800 HIT:       4897 MISS:        903
LLC RFO          ACCESS:       8808 HIT:          0 MISS:       8808
LLC PREFETCH     ACCESS:     170183 HIT:     121784 MISS:      48399
LLC WRITE        ACCESS:       8597 HIT:         97 MISS:       8500
LLC TRANSLATION  ACCESS:         54 HIT:          0 MISS:         54
LLC PREFETCH REQUESTED:          0 ISSUED:          0 USEFUL:          0 USELESS:          0
LLC AVERAGE MISS LATENCY: 90.52 cycles
LLC TOTAL        ACCESS:   16769468 HIT:    7048862 MISS:    9720606
LLC LOAD         ACCESS:     892795 HIT:     601603 MISS:     291192
LLC RFO          ACCESS:        207 HIT:        207 MISS:          0
LLC PREFETCH     ACCESS:   14561059 HIT:    5131790 MISS:    9429269
LLC WRITE        ACCESS:    1315140 HIT:    1315117 MISS:         23
LLC TRANSLATION  ACCESS:        267 HIT:        145 MISS:        122
LLC PREFETCH REQUESTED:          0 ISSUED:          0 USEFUL:          0 USELESS:          0
LLC AVERAGE MISS LATENCY: 90.52 cycles
LLC TOTAL        ACCESS:    4779958 HIT:    3151536 MISS:    1628422
[...]
cpu2_L1I PREFETCH REQUESTED:          0 ISSUED:          0 USEFUL:          0 USELESS:          0
cpu2_L1I AVERAGE MISS LATENCY: -nan cycles
cpu2_L1I TOTAL        ACCESS:          0 HIT:          0 MISS:          0
cpu2_L1I LOAD         ACCESS:          0 HIT:          0 MISS:          0
cpu2_L1I RFO          ACCESS:          0 HIT:          0 MISS:          0
cpu2_L1I PREFETCH     ACCESS:          0 HIT:          0 MISS:          0
cpu2_L1I WRITE        ACCESS:          0 HIT:          0 MISS:          0
cpu2_L1I TRANSLATION  ACCESS:          0 HIT:          0 MISS:          0
cpu2_L1I PREFETCH REQUESTED:          0 ISSUED:          0 USEFUL:          0 USELESS:          0
cpu2_L1I AVERAGE MISS LATENCY: -nan cycles
cpu2_L2C TOTAL        ACCESS:          0 HIT:          0 MISS:          0
cpu2_L2C LOAD         ACCESS:          0 HIT:          0 MISS:          0
cpu2_L2C RFO          ACCESS:          0 HIT:          0 MISS:          0
cpu2_L2C PREFETCH     ACCESS:          0 HIT:          0 MISS:          0
cpu2_L2C WRITE        ACCESS:          0 HIT:          0 MISS:          0
cpu2_L2C TRANSLATION  ACCESS:          0 HIT:          0 MISS:          0
cpu2_L2C PREFETCH REQUESTED:   30730305 ISSUED:   24779846 USEFUL:     480833 USELESS:         89
cpu2_L2C AVERAGE MISS LATENCY: 8.335 cycles
cpu2_L2C TOTAL        ACCESS:          0 HIT:          0 MISS:          0
cpu2_L2C LOAD         ACCESS:          0 HIT:          0 MISS:          0
cpu2_L2C RFO          ACCESS:          0 HIT:          0 MISS:          0
cpu2_L2C PREFETCH     ACCESS:          0 HIT:          0 MISS:          0
cpu2_L2C WRITE        ACCESS:          0 HIT:          0 MISS:          0
cpu2_L2C TRANSLATION  ACCESS:          0 HIT:          0 MISS:          0
cpu2_L2C PREFETCH REQUESTED:   30730305 ISSUED:   24779846 USEFUL:     480833 USELESS:         89
cpu2_L2C AVERAGE MISS LATENCY: 8.335 cycles
cpu2_L2C TOTAL        ACCESS:   28083471 HIT:    9272810 MISS:   18810661
cpu2_L2C LOAD         ACCESS:    1982772 HIT:     720584 MISS:    1262188
cpu2_L2C RFO          ACCESS:       2303 HIT:       2096 MISS:        207
cpu2_L2C PREFETCH     ACCESS:   24779828 HIT:    7231829 MISS:   17547999
cpu2_L2C WRITE        ACCESS:    1317752 HIT:    1317752 MISS:          0
cpu2_L2C TRANSLATION  ACCESS:        816 HIT:        549 MISS:        267
cpu2_L2C PREFETCH REQUESTED:   30730305 ISSUED:   24779846 USEFUL:     480833 USELESS:         89
cpu2_L2C AVERAGE MISS LATENCY: 8.335 cycles
cpu2_L2C TOTAL        ACCESS:          0 HIT:          0 MISS:          0
cpu2_L2C LOAD         ACCESS:          0 HIT:          0 MISS:          0
cpu2_L2C RFO          ACCESS:          0 HIT:          0 MISS:          0
cpu2_L2C PREFETCH     ACCESS:          0 HIT:          0 MISS:          0
cpu2_L2C WRITE        ACCESS:          0 HIT:          0 MISS:          0
cpu2_L2C TRANSLATION  ACCESS:          0 HIT:          0 MISS:          0
cpu2_L2C PREFETCH REQUESTED:   30730305 ISSUED:   24779846 USEFUL:     480833 USELESS:         89
cpu2_L2C AVERAGE MISS LATENCY: 8.335 cycles
cpu2_STLB TOTAL        ACCESS:          0 HIT:          0 MISS:          0
cpu2_STLB LOAD         ACCESS:          0 HIT:          0 MISS:          0
cpu2_STLB RFO          ACCESS:          0 HIT:          0 MISS:          0
cpu2_STLB PREFETCH     ACCESS:          0 HIT:          0 MISS:          0
cpu2_STLB WRITE        ACCESS:          0 HIT:          0 MISS:          0
cpu2_STLB TRANSLATION  ACCESS:          0 HIT:          0 MISS:          0
cpu2_STLB PREFETCH REQUESTED:          0 ISSUED:          0 USEFUL:          0 USELESS:          0
cpu2_STLB AVERAGE MISS LATENCY: 210.2 cycles
cpu2_STLB TOTAL        ACCESS:          0 HIT:          0 MISS:          0
cpu2_STLB LOAD         ACCESS:          0 HIT:          0 MISS:          0
cpu2_STLB RFO          ACCESS:          0 HIT:          0 MISS:          0
cpu2_STLB PREFETCH     ACCESS:          0 HIT:          0 MISS:          0
cpu2_STLB WRITE        ACCESS:          0 HIT:          0 MISS:          0
cpu2_STLB TRANSLATION  ACCESS:          0 HIT:          0 MISS:          0
cpu2_STLB PREFETCH REQUESTED:          0 ISSUED:          0 USEFUL:          0 USELESS:          0
cpu2_STLB AVERAGE MISS LATENCY: 210.2 cycles
cpu2_STLB TOTAL        ACCESS:      35130 HIT:      14544 MISS:      20586
cpu2_STLB LOAD         ACCESS:      35130 HIT:      14544 MISS:      20586
cpu2_STLB RFO          ACCESS:          0 HIT:          0 MISS:          0
cpu2_STLB PREFETCH     ACCESS:          0 HIT:          0 MISS:          0
cpu2_STLB WRITE        ACCESS:          0 HIT:          0 MISS:          0
cpu2_STLB TRANSLATION  ACCESS:          0 HIT:          0 MISS:          0
cpu2_STLB PREFETCH REQUESTED:          0 ISSUED:          0 USEFUL:          0 USELESS:          0
cpu2_STLB AVERAGE MISS LATENCY: 210.2 cycles
cpu2_STLB TOTAL        ACCESS:          0 HIT:          0 MISS:          0
cpu2_STLB LOAD         ACCESS:          0 HIT:          0 MISS:          0
cpu2_STLB RFO          ACCESS:          0 HIT:          0 MISS:          0
cpu2_STLB PREFETCH     ACCESS:          0 HIT:          0 MISS:          0
cpu2_STLB WRITE        ACCESS:          0 HIT:          0 MISS:          0
cpu2_STLB TRANSLATION  ACCESS:          0 HIT:          0 MISS:          0
cpu2_STLB PREFETCH REQUESTED:          0 ISSUED:          0 USEFUL:          0 USELESS:          0
cpu2_STLB AVERAGE MISS LATENCY: 210.2 cycles
cpu3_DTLB TOTAL        ACCESS:          0 HIT:          0 MISS:          0
cpu3_DTLB LOAD         ACCESS:          0 HIT:          0 MISS:          0
cpu3_DTLB RFO          ACCESS:          0 HIT:          0 MISS:          0
cpu3_DTLB PREFETCH     ACCESS:          0 HIT:          0 MISS:          0
cpu3_DTLB WRITE        ACCESS:          0 HIT:          0 MISS:          0
cpu3_DTLB TRANSLATION  ACCESS:          0 HIT:          0 MISS:          0
cpu3_DTLB PREFETCH REQUESTED:          0 ISSUED:          0 USEFUL:          0 USELESS:          0
cpu3_DTLB AVERAGE MISS LATENCY: 15.65 cycles
cpu3_DTLB TOTAL        ACCESS:          0 HIT:          0 MISS:          0
cpu3_DTLB LOAD         ACCESS:          0 HIT:          0 MISS:          0
cpu3_DTLB RFO          ACCESS:          0 HIT:          0 MISS:          0
cpu3_DTLB PREFETCH     ACCESS:          0 HIT:          0 MISS:          0
cpu3_DTLB WRITE        ACCESS:          0 HIT:          0 MISS:          0
cpu3_DTLB TRANSLATION  ACCESS:          0 HIT:          0 MISS:          0
cpu3_DTLB PREFETCH REQUESTED:          0 ISSUED:          0 USEFUL:          0 USELESS:          0
cpu3_DTLB AVERAGE MISS LATENCY: 15.65 cycles
cpu3_DTLB TOTAL        ACCESS:          0 HIT:          0 MISS:          0
cpu3_DTLB LOAD         ACCESS:          0 HIT:          0 MISS:          0
cpu3_DTLB RFO          ACCESS:          0 HIT:          0 MISS:          0
cpu3_DTLB PREFETCH     ACCESS:          0 HIT:          0 MISS:          0
cpu3_DTLB WRITE        ACCESS:          0 HIT:          0 MISS:          0
cpu3_DTLB TRANSLATION  ACCESS:          0 HIT:          0 MISS:          0
cpu3_DTLB PREFETCH REQUESTED:          0 ISSUED:          0 USEFUL:          0 USELESS:          0
cpu3_DTLB AVERAGE MISS LATENCY: 15.65 cycles
cpu3_DTLB TOTAL        ACCESS:   20045886 HIT:   19868595 MISS:     177291
cpu3_DTLB LOAD         ACCESS:   20045886 HIT:   19868595 MISS:     177291
cpu3_DTLB RFO          ACCESS:          0 HIT:          0 MISS:          0
cpu3_DTLB PREFETCH     ACCESS:          0 HIT:          0 MISS:          0
cpu3_DTLB WRITE        ACCESS:          0 HIT:          0 MISS:          0
cpu3_DTLB TRANSLATION  ACCESS:          0 HIT:          0 MISS:          0
cpu3_DTLB PREFETCH REQUESTED:          0 ISSUED:          0 USEFUL:          0 USELESS:          0
cpu3_DTLB AVERAGE MISS LATENCY: 15.65 cycles
cpu3_ITLB TOTAL        ACCESS:          0 HIT:          0 MISS:          0
cpu3_ITLB LOAD         ACCESS:          0 HIT:          0 MISS:          0
cpu3_ITLB RFO          ACCESS:          0 HIT:          0 MISS:          0
cpu3_ITLB PREFETCH     ACCESS:          0 HIT:          0 MISS:          0
cpu3_ITLB WRITE        ACCESS:          0 HIT:          0 MISS:          0
cpu3_ITLB TRANSLATION  ACCESS:          0 HIT:          0 MISS:          0
cpu3_ITLB PREFETCH REQUESTED:          0 ISSUED:          0 USEFUL:          0 USELESS:          0
cpu3_ITLB AVERAGE MISS LATENCY: 12.98 cycles
cpu3_ITLB TOTAL        ACCESS:          0 HIT:          0 MISS:          0
cpu3_ITLB LOAD         ACCESS:          0 HIT:          0 MISS:          0
cpu3_ITLB RFO          ACCESS:          0 HIT:          0 MISS:          0
cpu3_ITLB PREFETCH     ACCESS:          0 HIT:          0 MISS:          0
cpu3_ITLB WRITE        ACCESS:          0 HIT:          0 MISS:          0
cpu3_ITLB TRANSLATION  ACCESS:          0 HIT:          0 MISS:          0
cpu3_ITLB PREFETCH REQUESTED:          0 ISSUED:          0 USEFUL:          0 USELESS:          0
cpu3_ITLB AVERAGE MISS LATENCY: 12.98 cycles
cpu3_ITLB TOTAL        ACCESS:          0 HIT:          0 MISS:          0
cpu3_ITLB LOAD         ACCESS:          0 HIT:          0 MISS:          0
cpu3_ITLB RFO          ACCESS:          0 HIT:          0 MISS:          0
cpu3_ITLB PREFETCH     ACCESS:          0 HIT:          0 MISS:          0
cpu3_ITLB WRITE        ACCESS:          0 HIT:          0 MISS:          0
cpu3_ITLB TRANSLATION  ACCESS:          0 HIT:          0 MISS:          0
cpu3_ITLB PREFETCH REQUESTED:          0 ISSUED:          0 USEFUL:          0 USELESS:          0
cpu3_ITLB AVERAGE MISS LATENCY: 12.98 cycles
cpu3_ITLB TOTAL        ACCESS:     273959 HIT:     268268 MISS:       5691
cpu3_ITLB LOAD         ACCESS:     273959 HIT:     268268 MISS:       5691
cpu3_ITLB RFO          ACCESS:          0 HIT:          0 MISS:          0
cpu3_ITLB PREFETCH     ACCESS:          0 HIT:          0 MISS:          0
cpu3_ITLB WRITE        ACCESS:          0 HIT:          0 MISS:          0
cpu3_ITLB TRANSLATION  ACCESS:          0 HIT:          0 MISS:          0
cpu3_ITLB PREFETCH REQUESTED:          0 ISSUED:          0 USEFUL:          0 USELESS:          0
cpu3_ITLB AVERAGE MISS LATENCY: 12.98 cycles
cpu3_L1D TOTAL        ACCESS:          0 HIT:          0 MISS:          0
cpu3_L1D LOAD         ACCESS:          0 HIT:          0 MISS:          0
cpu3_L1D RFO          ACCESS:          0 HIT:          0 MISS:          0
cpu3_L1D PREFETCH     ACCESS:          0 HIT:          0 MISS:          0
cpu3_L1D WRITE        ACCESS:          0 HIT:          0 MISS:          0
cpu3_L1D TRANSLATION  ACCESS:          0 HIT:          0 MISS:          0
cpu3_L1D PREFETCH REQUESTED:          0 ISSUED:          0 USEFUL:          0 USELESS:          0
cpu3_L1D AVERAGE MISS LATENCY: 66.55 cycles
cpu3_L1D TOTAL        ACCESS:          0 HIT:          0 MISS:          0
cpu3_L1D LOAD         ACCESS:          0 HIT:          0 MISS:          0
cpu3_L1D RFO          ACCESS:          0 HIT:          0 MISS:          0
cpu3_L1D PREFETCH     ACCESS:          0 HIT:          0 MISS:          0
cpu3_L1D WRITE        ACCESS:          0 HIT:          0 MISS:          0
cpu3_L1D TRANSLATION  ACCESS:          0 HIT:          0 MISS:          0
cpu3_L1D PREFETCH REQUESTED:          0 ISSUED:          0 USEFUL:          0 USELESS:          0
cpu3_L1D AVERAGE MISS LATENCY: 66.55 cycles
cpu3_L1D TOTAL        ACCESS:          0 HIT:          0 MISS:          0
cpu3_L1D LOAD         ACCESS:          0 HIT:          0 MISS:          0
cpu3_L1D RFO          ACCESS:          0 HIT:          0 MISS:          0
cpu3_L1D PREFETCH     ACCESS:          0 HIT:          0 MISS:          0
cpu3_L1D WRITE        ACCESS:          0 HIT:          0 MISS:          0
cpu3_L1D TRANSLATION  ACCESS:          0 HIT:          0 MISS:          0
cpu3_L1D PREFETCH REQUESTED:          0 ISSUED:          0 USEFUL:          0 USELESS:          0
cpu3_L1D AVERAGE MISS LATENCY: 66.55 cycles
cpu3_L1D TOTAL        ACCESS:   24582900 HIT:   19684166 MISS:    4898734
cpu3_L1D LOAD         ACCESS:   14918562 HIT:   12944271 MISS:    1974291
cpu3_L1D RFO          ACCESS:          0 HIT:          0 MISS:          0
cpu3_L1D PREFETCH     ACCESS:          0 HIT:          0 MISS:          0
cpu3_L1D WRITE        ACCESS:    9656129 HIT:    6737654 MISS:    2918475
cpu3_L1D TRANSLATION  ACCESS:       8209 HIT:       2241 MISS:       5968
cpu3_L1D PREFETCH REQUESTED:          0 ISSUED:          0 USEFUL:          0 USELESS:          0
cpu3_L1D AVERAGE MISS LATENCY: 66.55 cycles
cpu3_L1I TOTAL        ACCESS:          0 HIT:          0 MISS:          0
cpu3_L1I LOAD         ACCESS:          0 HIT:          0 MISS:          0
cpu3_L1I RFO          ACCESS:          0 HIT:          0 MISS:          0
cpu3_L1I PREFETCH     ACCESS:          0 HIT:          0 MISS:          0
cpu3_L1I WRITE        ACCESS:          0 HIT:          0 MISS:          0
cpu3_L1I TRANSLATION  ACCESS:          0 HIT:          0 MISS:          0
cpu3_L1I PREFETCH REQUESTED:          0 ISSUED:          0 USEFUL:          0 USELESS:          0
cpu3_L1I AVERAGE MISS LATENCY: 21.55 cycles
cpu3_L1I TOTAL        ACCESS:          0 HIT:          0 MISS:          0
cpu3_L1I LOAD         ACCESS:          0 HIT:          0 MISS:          0
cpu3_L1I RFO          ACCESS:          0 HIT:          0 MISS:          0
cpu3_L1I PREFETCH     ACCESS:          0 HIT:          0 MISS:          0
cpu3_L1I WRITE        ACCESS:          0 HIT:          0 MISS:          0
cpu3_L1I TRANSLATION  ACCESS:          0 HIT:          0 MISS:          0
cpu3_L1I PREFETCH REQUESTED:          0 ISSUED:          0 USEFUL:          0 USELESS:          0
cpu3_L1I AVERAGE MISS LATENCY: 21.55 cycles
cpu3_L1I TOTAL        ACCESS:          0 HIT:          0 MISS:          0
cpu3_L1I LOAD         ACCESS:          0 HIT:          0 MISS:          0
cpu3_L1I RFO          ACCESS:          0 HIT:          0 MISS:          0
cpu3_L1I PREFETCH     ACCESS:          0 HIT:          0 MISS:          0
cpu3_L1I WRITE        ACCESS:          0 HIT:          0 MISS:          0
cpu3_L1I TRANSLATION  ACCESS:          0 HIT:          0 MISS:          0
cpu3_L1I PREFETCH REQUESTED:          0 ISSUED:          0 USEFUL:          0 USELESS:          0
cpu3_L1I AVERAGE MISS LATENCY: 21.55 cycles
cpu3_L1I TOTAL        ACCESS:     339944 HIT:     245048 MISS:      94896
cpu3_L1I LOAD         ACCESS:     339944 HIT:     245048 MISS:      94896
cpu3_L1I RFO          ACCESS:          0 HIT:          0 MISS:          0
cpu3_L1I PREFETCH     ACCESS:          0 HIT:          0 MISS:          0
cpu3_L1I WRITE        ACCESS:          0 HIT:          0 MISS:          0
cpu3_L1I TRANSLATION  ACCESS:          0 HIT:          0 MISS:          0
cpu3_L1I PREFETCH REQUESTED:          0 ISSUED:          0 USEFUL:          0 USELESS:          0
cpu3_L1I AVERAGE MISS LATENCY: 21.55 cycles
cpu3_L2C TOTAL        ACCESS:          0 HIT:          0 MISS:          0
cpu3_L2C LOAD         ACCESS:          0 HIT:          0 MISS:          0
cpu3_L2C RFO          ACCESS:          0 HIT:          0 MISS:          0
cpu3_L2C PREFETCH     ACCESS:          0 HIT:          0 MISS:          0
cpu3_L2C WRITE        ACCESS:          0 HIT:          0 MISS:          0
cpu3_L2C TRANSLATION  ACCESS:          0 HIT:          0 MISS:          0
cpu3_L2C PREFETCH REQUESTED:   16153111 ISSUED:   10480464 USEFUL:     186026 USELESS:       8007
cpu3_L2C AVERAGE MISS LATENCY: 62.25 cycles
cpu3_L2C TOTAL        ACCESS:          0 HIT:          0 MISS:          0
cpu3_L2C LOAD         ACCESS:          0 HIT:          0 MISS:          0
cpu3_L2C RFO          ACCESS:          0 HIT:          0 MISS:          0
cpu3_L2C PREFETCH     ACCESS:          0 HIT:          0 MISS:          0
cpu3_L2C WRITE        ACCESS:          0 HIT:          0 MISS:          0
cpu3_L2C TRANSLATION  ACCESS:          0 HIT:          0 MISS:          0
cpu3_L2C PREFETCH REQUESTED:   16153111 ISSUED:   10480464 USEFUL:     186026 USELESS:       8007
cpu3_L2C AVERAGE MISS LATENCY: 62.25 cycles
cpu3_L2C TOTAL        ACCESS:          0 HIT:          0 MISS:          0
cpu3_L2C LOAD         ACCESS:          0 HIT:          0 MISS:          0
cpu3_L2C RFO          ACCESS:          0 HIT:          0 MISS:          0
cpu3_L2C PREFETCH     ACCESS:          0 HIT:          0 MISS:          0
cpu3_L2C WRITE        ACCESS:          0 HIT:          0 MISS:          0
cpu3_L2C TRANSLATION  ACCESS:          0 HIT:          0 MISS:          0
cpu3_L2C PREFETCH REQUESTED:   16153111 ISSUED:   10480464 USEFUL:     186026 USELESS:       8007
cpu3_L2C AVERAGE MISS LATENCY: 62.25 cycles
cpu3_L2C TOTAL        ACCESS:   12096822 HIT:    6826212 MISS:    5270610
cpu3_L2C LOAD         ACCESS:    1287341 HIT:     825518 MISS:     461823
cpu3_L2C RFO          ACCESS:     719201 HIT:     414268 MISS:     304933
cpu3_L2C PREFETCH     ACCESS:    9148167 HIT:    4648383 MISS:    4499784
cpu3_L2C WRITE        ACCESS:     936229 HIT:     935806 MISS:        423
cpu3_L2C TRANSLATION  ACCESS:       5884 HIT:       2237 MISS:       3647
cpu3_L2C PREFETCH REQUESTED:   16153111 ISSUED:   10480464 USEFUL:     186026 USELESS:       8007
cpu3_L2C AVERAGE MISS LATENCY: 62.25 cycles
cpu3_STLB TOTAL        ACCESS:          0 HIT:          0 MISS:          0
cpu3_STLB LOAD         ACCESS:          0 HIT:          0 MISS:          0
cpu3_STLB RFO          ACCESS:          0 HIT:          0 MISS:          0
cpu3_STLB PREFETCH     ACCESS:          0 HIT:          0 MISS:          0
cpu3_STLB WRITE        ACCESS:          0 HIT:          0 MISS:          0
cpu3_STLB TRANSLATION  ACCESS:          0 HIT:          0 MISS:          0
cpu3_STLB PREFETCH REQUESTED:          0 ISSUED:          0 USEFUL:          0 USELESS:          0
cpu3_STLB AVERAGE MISS LATENCY: 467.3 cycles
cpu3_STLB TOTAL        ACCESS:          0 HIT:          0 MISS:          0
cpu3_STLB LOAD         ACCESS:          0 HIT:          0 MISS:          0
cpu3_STLB RFO          ACCESS:          0 HIT:          0 MISS:          0
cpu3_STLB PREFETCH     ACCESS:          0 HIT:          0 MISS:          0
cpu3_STLB WRITE        ACCESS:          0 HIT:          0 MISS:          0
cpu3_STLB TRANSLATION  ACCESS:          0 HIT:          0 MISS:          0
cpu3_STLB PREFETCH REQUESTED:          0 ISSUED:          0 USEFUL:          0 USELESS:          0
cpu3_STLB AVERAGE MISS LATENCY: 467.3 cycles
cpu3_STLB TOTAL        ACCESS:          0 HIT:          0 MISS:          0
cpu3_STLB LOAD         ACCESS:          0 HIT:          0 MISS:          0
cpu3_STLB RFO          ACCESS:          0 HIT:          0 MISS:          0
cpu3_STLB PREFETCH     ACCESS:          0 HIT:          0 MISS:          0
cpu3_STLB WRITE        ACCESS:          0 HIT:          0 MISS:          0
cpu3_STLB TRANSLATION  ACCESS:          0 HIT:          0 MISS:          0
cpu3_STLB PREFETCH REQUESTED:          0 ISSUED:          0 USEFUL:          0 USELESS:          0
cpu3_STLB AVERAGE MISS LATENCY: 467.3 cycles
cpu3_STLB TOTAL        ACCESS:      62826 HIT:      55617 MISS:       7209
cpu3_STLB LOAD         ACCESS:      62826 HIT:      55617 MISS:       7209
cpu3_STLB RFO          ACCESS:          0 HIT:          0 MISS:          0
cpu3_STLB PREFETCH     ACCESS:          0 HIT:          0 MISS:          0
cpu3_STLB WRITE        ACCESS:          0 HIT:          0 MISS:          0
cpu3_STLB TRANSLATION  ACCESS:          0 HIT:          0 MISS:          0
cpu3_STLB PREFETCH REQUESTED:          0 ISSUED:          0 USEFUL:          0 USELESS:          0
cpu3_STLB AVERAGE MISS LATENCY: 467.3 cycles

DRAM Statistics

Channel 0 RQ ROW_BUFFER_HIT:     194223
  ROW_BUFFER_MISS:     776089
 AVG DBUS CONGESTED CYCLE: 3.944
WQ ROW_BUFFER_HIT: Channel 0 
  ROW_BUFFER_MISS:      65940
  FULL:     752785

Channel 1 RQ ROW_BUFFER_HIT:     192376
  ROW_BUFFER_MISS:     777255
 AVG DBUS CONGESTED CYCLE: 3.95
WQ ROW_BUFFER_HIT: Channel 1 
  ROW_BUFFER_MISS:      64129
  FULL:     754765
