Original cmd-> /home/grads/r/rdas40/ECEN676/ChampSim/bin/multi_core/spp_2ch --warmup_instructions=50000000 --simulation_instructions=150000000  /home/grads/r/rdas40/dpc3_traces/620.omnetpp_s-874B.champsimtrace.xz /home/grads/r/rdas40/dpc3_traces/607.cactuBSSN_s-2421B.champsimtrace.xz /home/grads/r/rdas40/dpc3_traces/654.roms_s-842B.champsimtrace.xz /home/grads/r/rdas40/dpc3_traces/605.mcf_s-665B.champsimtrace.xz
WARNING: physical memory size is smaller than virtual memory size.
WARNING: option --warmup_instructions is deprecated. Use --warmup-instructions instead.
WARNING: option --simulation_instructions is deprecated. Use --simulation-instructions instead.

*** ChampSim Multicore Out-of-Order Simulator ***
Warmup Instructions: 50000000
Simulation Instructions: 150000000
Number of CPUs: 4
Page size: 4096

Initialize SIGNATURE TABLE
ST_SET: 1
ST_WAY: 256
ST_TAG_BIT: 16
ST_TAG_MASK: ffff

Initialize PATTERN TABLE
PT_SET: 512
PT_WAY: 4
SIG_DELTA_BIT: 7
C_SIG_BIT: 4
C_DELTA_BIT: 4

Initialize PREFETCH FILTER
FILTER_SET: 1024
Initialize SIGNATURE TABLE
ST_SET: 1
ST_WAY: 256
ST_TAG_BIT: 16
ST_TAG_MASK: ffff

Initialize PATTERN TABLE
PT_SET: 512
PT_WAY: 4
SIG_DELTA_BIT: 7
C_SIG_BIT: 4
C_DELTA_BIT: 4

Initialize PREFETCH FILTER
FILTER_SET: 1024
Initialize SIGNATURE TABLE
ST_SET: 1
ST_WAY: 256
ST_TAG_BIT: 16
ST_TAG_MASK: ffff

Initialize PATTERN TABLE
PT_SET: 512
PT_WAY: 4
SIG_DELTA_BIT: 7
C_SIG_BIT: 4
C_DELTA_BIT: 4

Initialize PREFETCH FILTER
FILTER_SET: 1024
Initialize SIGNATURE TABLE
ST_SET: 1
ST_WAY: 256
ST_TAG_BIT: 16
ST_TAG_MASK: ffff

Initialize PATTERN TABLE
PT_SET: 512
PT_WAY: 4
SIG_DELTA_BIT: 7
C_SIG_BIT: 4
C_DELTA_BIT: 4

Initialize PREFETCH FILTER
FILTER_SET: 1024
Off-chip DRAM Size: 8 GiB Channels: 2 Width: 64-bit Data Race: 3200 MT/s
Heartbeat CPU 2 instructions: 10000001 cycles: 2507086 heartbeat IPC: 3.989 cumulative IPC: 3.989 (Simulation time: 00 hr 03 min 14 sec)
Heartbeat CPU 3 instructions: 10000002 cycles: 3100014 heartbeat IPC: 3.226 cumulative IPC: 3.226 (Simulation time: 00 hr 04 min 00 sec)
Heartbeat CPU 1 instructions: 10000004 cycles: 3681282 heartbeat IPC: 2.716 cumulative IPC: 2.716 (Simulation time: 00 hr 04 min 45 sec)
Heartbeat CPU 0 instructions: 10000002 cycles: 4175060 heartbeat IPC: 2.395 cumulative IPC: 2.395 (Simulation time: 00 hr 05 min 24 sec)
Heartbeat CPU 2 instructions: 20000003 cycles: 5016725 heartbeat IPC: 3.985 cumulative IPC: 3.987 (Simulation time: 00 hr 06 min 30 sec)
Heartbeat CPU 3 instructions: 20000003 cycles: 6206560 heartbeat IPC: 3.219 cumulative IPC: 3.222 (Simulation time: 00 hr 08 min 03 sec)
Heartbeat CPU 1 instructions: 20000002 cycles: 7360908 heartbeat IPC: 2.718 cumulative IPC: 2.717 (Simulation time: 00 hr 09 min 33 sec)
Heartbeat CPU 2 instructions: 30000003 cycles: 7521098 heartbeat IPC: 3.993 cumulative IPC: 3.989 (Simulation time: 00 hr 09 min 46 sec)
Heartbeat CPU 0 instructions: 20000004 cycles: 8348219 heartbeat IPC: 2.396 cumulative IPC: 2.396 (Simulation time: 00 hr 10 min 50 sec)
Heartbeat CPU 3 instructions: 30000000 cycles: 9305743 heartbeat IPC: 3.227 cumulative IPC: 3.224 (Simulation time: 00 hr 12 min 06 sec)
Heartbeat CPU 2 instructions: 40000003 cycles: 10031657 heartbeat IPC: 3.983 cumulative IPC: 3.987 (Simulation time: 00 hr 13 min 03 sec)
Heartbeat CPU 1 instructions: 30000001 cycles: 11042034 heartbeat IPC: 2.717 cumulative IPC: 2.717 (Simulation time: 00 hr 14 min 22 sec)
Heartbeat CPU 3 instructions: 40000004 cycles: 12402559 heartbeat IPC: 3.229 cumulative IPC: 3.225 (Simulation time: 00 hr 16 min 10 sec)
Heartbeat CPU 0 instructions: 30000001 cycles: 12521357 heartbeat IPC: 2.396 cumulative IPC: 2.396 (Simulation time: 00 hr 16 min 19 sec)
Heartbeat CPU 2 instructions: 50000003 cycles: 12555268 heartbeat IPC: 3.963 cumulative IPC: 3.982 (Simulation time: 00 hr 16 min 22 sec)
Warmup finished CPU 2 instructions: 50000003 cycles: 12555269 cumulative IPC: 3.982 (Simulation time: 00 hr 16 min 22 sec)
Heartbeat CPU 1 instructions: 40000003 cycles: 14724698 heartbeat IPC: 2.715 cumulative IPC: 2.717 (Simulation time: 00 hr 19 min 12 sec)
Heartbeat CPU 2 instructions: 60000002 cycles: 15063153 heartbeat IPC: 3.987 cumulative IPC: 3.983 (Simulation time: 00 hr 19 min 39 sec)
Heartbeat CPU 3 instructions: 50000000 cycles: 15489533 heartbeat IPC: 3.239 cumulative IPC: 3.228 (Simulation time: 00 hr 20 min 13 sec)
Warmup finished CPU 3 instructions: 50000000 cycles: 15489534 cumulative IPC: 3.228 (Simulation time: 00 hr 20 min 13 sec)
Heartbeat CPU 0 instructions: 40000004 cycles: 16708569 heartbeat IPC: 2.388 cumulative IPC: 2.394 (Simulation time: 00 hr 21 min 49 sec)
Heartbeat CPU 2 instructions: 70000002 cycles: 17570139 heartbeat IPC: 3.989 cumulative IPC: 3.984 (Simulation time: 00 hr 22 min 57 sec)
Heartbeat CPU 1 instructions: 50000002 cycles: 18405691 heartbeat IPC: 2.717 cumulative IPC: 2.717 (Simulation time: 00 hr 24 min 02 sec)
Warmup finished CPU 1 instructions: 50000002 cycles: 18405692 cumulative IPC: 2.717 (Simulation time: 00 hr 24 min 02 sec)
Heartbeat CPU 3 instructions: 60000002 cycles: 18588181 heartbeat IPC: 3.227 cumulative IPC: 3.228 (Simulation time: 00 hr 24 min 17 sec)
Heartbeat CPU 2 instructions: 80000001 cycles: 20078043 heartbeat IPC: 3.987 cumulative IPC: 3.984 (Simulation time: 00 hr 26 min 14 sec)
Heartbeat CPU 0 instructions: 50000000 cycles: 20874374 heartbeat IPC: 2.4 cumulative IPC: 2.395 (Simulation time: 00 hr 27 min 16 sec)
Warmup finished CPU 0 instructions: 50000000 cycles: 20874375 cumulative IPC: 2.395 (Simulation time: 00 hr 27 min 16 sec)
Warmup complete CPU 0 instructions: 50000000 cycles: 20874375 cumulative IPC: 2.395 (Simulation time: 00 hr 27 min 16 sec)
Warmup complete CPU 1 instructions: 56461501 cycles: 20874375 cumulative IPC: 2.705 (Simulation time: 00 hr 27 min 16 sec)
Warmup complete CPU 2 instructions: 83185325 cycles: 20874375 cumulative IPC: 3.985 (Simulation time: 00 hr 27 min 16 sec)
Warmup complete CPU 3 instructions: 67387739 cycles: 20874375 cumulative IPC: 3.228 (Simulation time: 00 hr 27 min 16 sec)
Heartbeat CPU 2 instructions: 90000001 cycles: 23260295 heartbeat IPC: 3.142 cumulative IPC: 2.856 (Simulation time: 00 hr 29 min 14 sec)
Heartbeat CPU 1 instructions: 60000004 cycles: 23419409 heartbeat IPC: 1.995 cumulative IPC: 1.39 (Simulation time: 00 hr 29 min 22 sec)
Heartbeat CPU 2 instructions: 100000002 cycles: 26703516 heartbeat IPC: 2.904 cumulative IPC: 2.885 (Simulation time: 00 hr 32 min 01 sec)
Heartbeat CPU 3 instructions: 70000000 cycles: 27600787 heartbeat IPC: 1.11 cumulative IPC: 0.3884 (Simulation time: 00 hr 32 min 45 sec)
Heartbeat CPU 2 instructions: 110000001 cycles: 30154885 heartbeat IPC: 2.897 cumulative IPC: 2.889 (Simulation time: 00 hr 34 min 51 sec)
Heartbeat CPU 1 instructions: 70000001 cycles: 30507725 heartbeat IPC: 1.411 cumulative IPC: 1.405 (Simulation time: 00 hr 35 min 09 sec)
Heartbeat CPU 2 instructions: 120000002 cycles: 33617550 heartbeat IPC: 2.888 cumulative IPC: 2.889 (Simulation time: 00 hr 37 min 41 sec)
Heartbeat CPU 2 instructions: 130000003 cycles: 37046816 heartbeat IPC: 2.916 cumulative IPC: 2.895 (Simulation time: 00 hr 40 min 27 sec)
Heartbeat CPU 1 instructions: 80000000 cycles: 37658143 heartbeat IPC: 1.399 cumulative IPC: 1.402 (Simulation time: 00 hr 40 min 57 sec)
Heartbeat CPU 2 instructions: 140000003 cycles: 40501043 heartbeat IPC: 2.895 cumulative IPC: 2.895 (Simulation time: 00 hr 43 min 16 sec)
Heartbeat CPU 2 instructions: 150000002 cycles: 43911889 heartbeat IPC: 2.932 cumulative IPC: 2.9 (Simulation time: 00 hr 46 min 04 sec)
Heartbeat CPU 0 instructions: 60000003 cycles: 44064644 heartbeat IPC: 0.4312 cumulative IPC: 0.4312 (Simulation time: 00 hr 46 min 13 sec)
Heartbeat CPU 1 instructions: 90000000 cycles: 44705486 heartbeat IPC: 1.419 cumulative IPC: 1.407 (Simulation time: 00 hr 46 min 44 sec)
Heartbeat CPU 2 instructions: 160000001 cycles: 47216813 heartbeat IPC: 3.026 cumulative IPC: 2.916 (Simulation time: 00 hr 48 min 49 sec)
Heartbeat CPU 2 instructions: 170000003 cycles: 50570272 heartbeat IPC: 2.982 cumulative IPC: 2.923 (Simulation time: 00 hr 51 min 32 sec)
Heartbeat CPU 1 instructions: 100000000 cycles: 51814020 heartbeat IPC: 1.407 cumulative IPC: 1.407 (Simulation time: 00 hr 52 min 33 sec)
Heartbeat CPU 2 instructions: 180000003 cycles: 54096600 heartbeat IPC: 2.836 cumulative IPC: 2.914 (Simulation time: 00 hr 54 min 26 sec)
Heartbeat CPU 3 instructions: 80000000 cycles: 54923833 heartbeat IPC: 0.366 cumulative IPC: 0.3704 (Simulation time: 00 hr 55 min 05 sec)
Heartbeat CPU 2 instructions: 190000001 cycles: 57594805 heartbeat IPC: 2.859 cumulative IPC: 2.909 (Simulation time: 00 hr 57 min 15 sec)
Heartbeat CPU 1 instructions: 110000003 cycles: 58945703 heartbeat IPC: 1.402 cumulative IPC: 1.406 (Simulation time: 00 hr 58 min 22 sec)
Heartbeat CPU 2 instructions: 200000004 cycles: 61084341 heartbeat IPC: 2.866 cumulative IPC: 2.905 (Simulation time: 01 hr 00 min 05 sec)
Heartbeat CPU 2 instructions: 210000004 cycles: 64600566 heartbeat IPC: 2.844 cumulative IPC: 2.9 (Simulation time: 01 hr 02 min 56 sec)
Heartbeat CPU 1 instructions: 120000004 cycles: 66032243 heartbeat IPC: 1.411 cumulative IPC: 1.407 (Simulation time: 01 hr 04 min 06 sec)
Heartbeat CPU 0 instructions: 70000004 cycles: 67271404 heartbeat IPC: 0.4309 cumulative IPC: 0.4311 (Simulation time: 01 hr 05 min 06 sec)
Heartbeat CPU 2 instructions: 220000001 cycles: 68108278 heartbeat IPC: 2.851 cumulative IPC: 2.897 (Simulation time: 01 hr 05 min 48 sec)
Heartbeat CPU 2 instructions: 230000000 cycles: 71598466 heartbeat IPC: 2.865 cumulative IPC: 2.894 (Simulation time: 01 hr 08 min 39 sec)
Simulation finished CPU 2 instructions: 150000002 cycles: 51830085 cumulative IPC: 2.894 (Simulation time: 01 hr 09 min 31 sec)
Heartbeat CPU 1 instructions: 130000001 cycles: 73036212 heartbeat IPC: 1.428 cumulative IPC: 1.41 (Simulation time: 01 hr 09 min 49 sec)
Heartbeat CPU 2 instructions: 240000002 cycles: 75109290 heartbeat IPC: 2.848 cumulative IPC: 2.891 (Simulation time: 01 hr 11 min 30 sec)
Heartbeat CPU 2 instructions: 250000004 cycles: 78599122 heartbeat IPC: 2.865 cumulative IPC: 2.89 (Simulation time: 01 hr 14 min 18 sec)
Heartbeat CPU 1 instructions: 140000000 cycles: 80107267 heartbeat IPC: 1.414 cumulative IPC: 1.41 (Simulation time: 01 hr 15 min 32 sec)
Heartbeat CPU 3 instructions: 90000004 cycles: 81859206 heartbeat IPC: 0.3713 cumulative IPC: 0.3708 (Simulation time: 01 hr 16 min 58 sec)
Heartbeat CPU 2 instructions: 260000002 cycles: 82064410 heartbeat IPC: 2.886 cumulative IPC: 2.89 (Simulation time: 01 hr 17 min 09 sec)
Heartbeat CPU 2 instructions: 270000004 cycles: 85552892 heartbeat IPC: 2.867 cumulative IPC: 2.888 (Simulation time: 01 hr 19 min 57 sec)
Heartbeat CPU 1 instructions: 150000002 cycles: 87399637 heartbeat IPC: 1.371 cumulative IPC: 1.406 (Simulation time: 01 hr 21 min 29 sec)
Heartbeat CPU 2 instructions: 280000004 cycles: 88971949 heartbeat IPC: 2.925 cumulative IPC: 2.89 (Simulation time: 01 hr 22 min 46 sec)
Heartbeat CPU 0 instructions: 80000002 cycles: 91542349 heartbeat IPC: 0.412 cumulative IPC: 0.4245 (Simulation time: 01 hr 24 min 52 sec)
Heartbeat CPU 2 instructions: 290000003 cycles: 92424713 heartbeat IPC: 2.896 cumulative IPC: 2.89 (Simulation time: 01 hr 25 min 34 sec)
Heartbeat CPU 1 instructions: 160000004 cycles: 94490625 heartbeat IPC: 1.41 cumulative IPC: 1.406 (Simulation time: 01 hr 27 min 17 sec)
Heartbeat CPU 2 instructions: 300000000 cycles: 95881849 heartbeat IPC: 2.893 cumulative IPC: 2.891 (Simulation time: 01 hr 28 min 24 sec)
Heartbeat CPU 2 instructions: 310000004 cycles: 99318490 heartbeat IPC: 2.91 cumulative IPC: 2.891 (Simulation time: 01 hr 31 min 13 sec)
Heartbeat CPU 1 instructions: 170000000 cycles: 101521099 heartbeat IPC: 1.422 cumulative IPC: 1.408 (Simulation time: 01 hr 33 min 01 sec)
Heartbeat CPU 2 instructions: 320000001 cycles: 102766907 heartbeat IPC: 2.9 cumulative IPC: 2.892 (Simulation time: 01 hr 34 min 03 sec)
Heartbeat CPU 3 instructions: 100000000 cycles: 105050327 heartbeat IPC: 0.4312 cumulative IPC: 0.3874 (Simulation time: 01 hr 35 min 54 sec)
Heartbeat CPU 2 instructions: 330000001 cycles: 106216722 heartbeat IPC: 2.899 cumulative IPC: 2.892 (Simulation time: 01 hr 36 min 52 sec)
Heartbeat CPU 1 instructions: 180000004 cycles: 108532048 heartbeat IPC: 1.426 cumulative IPC: 1.409 (Simulation time: 01 hr 38 min 46 sec)
Heartbeat CPU 2 instructions: 340000002 cycles: 109672516 heartbeat IPC: 2.894 cumulative IPC: 2.892 (Simulation time: 01 hr 39 min 43 sec)
Heartbeat CPU 2 instructions: 350000001 cycles: 113146132 heartbeat IPC: 2.879 cumulative IPC: 2.892 (Simulation time: 01 hr 42 min 32 sec)
Heartbeat CPU 0 instructions: 90000001 cycles: 114036332 heartbeat IPC: 0.4446 cumulative IPC: 0.4294 (Simulation time: 01 hr 43 min 15 sec)
Heartbeat CPU 1 instructions: 190000002 cycles: 115563565 heartbeat IPC: 1.422 cumulative IPC: 1.41 (Simulation time: 01 hr 44 min 30 sec)
Heartbeat CPU 2 instructions: 360000001 cycles: 116624530 heartbeat IPC: 2.875 cumulative IPC: 2.891 (Simulation time: 01 hr 45 min 22 sec)
Heartbeat CPU 2 instructions: 370000001 cycles: 120091028 heartbeat IPC: 2.885 cumulative IPC: 2.891 (Simulation time: 01 hr 48 min 12 sec)
Heartbeat CPU 1 instructions: 200000002 cycles: 122622827 heartbeat IPC: 1.417 cumulative IPC: 1.411 (Simulation time: 01 hr 50 min 16 sec)
Heartbeat CPU 2 instructions: 380000001 cycles: 123565885 heartbeat IPC: 2.878 cumulative IPC: 2.89 (Simulation time: 01 hr 51 min 04 sec)
Heartbeat CPU 2 instructions: 390000000 cycles: 127076744 heartbeat IPC: 2.848 cumulative IPC: 2.889 (Simulation time: 01 hr 53 min 56 sec)
Simulation finished CPU 1 instructions: 150000002 cycles: 106341164 cumulative IPC: 1.411 (Simulation time: 01 hr 54 min 03 sec)
Heartbeat CPU 3 instructions: 110000000 cycles: 127443354 heartbeat IPC: 0.4466 cumulative IPC: 0.3999 (Simulation time: 01 hr 54 min 14 sec)
Heartbeat CPU 1 instructions: 210000001 cycles: 129657691 heartbeat IPC: 1.421 cumulative IPC: 1.411 (Simulation time: 01 hr 56 min 05 sec)
Heartbeat CPU 2 instructions: 400000002 cycles: 130445908 heartbeat IPC: 2.968 cumulative IPC: 2.891 (Simulation time: 01 hr 56 min 42 sec)
Heartbeat CPU 2 instructions: 410000004 cycles: 133964688 heartbeat IPC: 2.842 cumulative IPC: 2.89 (Simulation time: 01 hr 59 min 35 sec)
Heartbeat CPU 1 instructions: 220000002 cycles: 136667366 heartbeat IPC: 1.427 cumulative IPC: 1.412 (Simulation time: 02 hr 01 min 47 sec)
Heartbeat CPU 2 instructions: 420000001 cycles: 137379611 heartbeat IPC: 2.928 cumulative IPC: 2.891 (Simulation time: 02 hr 02 min 21 sec)
Heartbeat CPU 0 instructions: 100000000 cycles: 137769798 heartbeat IPC: 0.4213 cumulative IPC: 0.4277 (Simulation time: 02 hr 02 min 40 sec)
Heartbeat CPU 2 instructions: 430000003 cycles: 141138409 heartbeat IPC: 2.66 cumulative IPC: 2.884 (Simulation time: 02 hr 05 min 22 sec)
Heartbeat CPU 1 instructions: 230000002 cycles: 143766899 heartbeat IPC: 1.409 cumulative IPC: 1.412 (Simulation time: 02 hr 07 min 33 sec)
Heartbeat CPU 2 instructions: 440000000 cycles: 144696586 heartbeat IPC: 2.81 cumulative IPC: 2.882 (Simulation time: 02 hr 08 min 18 sec)
Heartbeat CPU 2 instructions: 450000001 cycles: 148913448 heartbeat IPC: 2.371 cumulative IPC: 2.865 (Simulation time: 02 hr 11 min 38 sec)
Heartbeat CPU 3 instructions: 120000003 cycles: 150375161 heartbeat IPC: 0.4361 cumulative IPC: 0.4063 (Simulation time: 02 hr 12 min 49 sec)
Heartbeat CPU 1 instructions: 240000003 cycles: 151064486 heartbeat IPC: 1.37 cumulative IPC: 1.41 (Simulation time: 02 hr 13 min 23 sec)
Heartbeat CPU 2 instructions: 460000000 cycles: 152303872 heartbeat IPC: 2.949 cumulative IPC: 2.867 (Simulation time: 02 hr 14 min 24 sec)
Heartbeat CPU 2 instructions: 470000002 cycles: 155752105 heartbeat IPC: 2.9 cumulative IPC: 2.868 (Simulation time: 02 hr 17 min 12 sec)
Heartbeat CPU 1 instructions: 250000003 cycles: 158135397 heartbeat IPC: 1.414 cumulative IPC: 1.41 (Simulation time: 02 hr 19 min 11 sec)
Heartbeat CPU 2 instructions: 480000001 cycles: 159180293 heartbeat IPC: 2.917 cumulative IPC: 2.869 (Simulation time: 02 hr 20 min 03 sec)
Heartbeat CPU 0 instructions: 110000004 cycles: 160562555 heartbeat IPC: 0.4387 cumulative IPC: 0.4295 (Simulation time: 02 hr 21 min 11 sec)
Heartbeat CPU 1 instructions: 260000001 cycles: 167116172 heartbeat IPC: 1.113 cumulative IPC: 1.392 (Simulation time: 02 hr 25 min 20 sec)
Heartbeat CPU 2 instructions: 490000000 cycles: 172601196 heartbeat IPC: 0.7451 cumulative IPC: 2.681 (Simulation time: 02 hr 29 min 02 sec)
Heartbeat CPU 1 instructions: 270000002 cycles: 176317961 heartbeat IPC: 1.087 cumulative IPC: 1.374 (Simulation time: 02 hr 31 min 57 sec)
Heartbeat CPU 2 instructions: 500000003 cycles: 176922458 heartbeat IPC: 2.314 cumulative IPC: 2.671 (Simulation time: 02 hr 32 min 25 sec)
Heartbeat CPU 3 instructions: 130000000 cycles: 180453888 heartbeat IPC: 0.3325 cumulative IPC: 0.3924 (Simulation time: 02 hr 35 min 15 sec)
Heartbeat CPU 2 instructions: 510000001 cycles: 181164409 heartbeat IPC: 2.357 cumulative IPC: 2.663 (Simulation time: 02 hr 35 min 50 sec)
Heartbeat CPU 1 instructions: 280000000 cycles: 183582290 heartbeat IPC: 1.377 cumulative IPC: 1.374 (Simulation time: 02 hr 37 min 47 sec)
Heartbeat CPU 2 instructions: 520000001 cycles: 185408742 heartbeat IPC: 2.356 cumulative IPC: 2.655 (Simulation time: 02 hr 39 min 15 sec)
Heartbeat CPU 2 instructions: 530000000 cycles: 189716223 heartbeat IPC: 2.322 cumulative IPC: 2.646 (Simulation time: 02 hr 42 min 43 sec)
Heartbeat CPU 1 instructions: 290000001 cycles: 191036838 heartbeat IPC: 1.341 cumulative IPC: 1.372 (Simulation time: 02 hr 43 min 46 sec)
Heartbeat CPU 0 instructions: 120000004 cycles: 192782313 heartbeat IPC: 0.3104 cumulative IPC: 0.4072 (Simulation time: 02 hr 45 min 11 sec)
Heartbeat CPU 2 instructions: 540000004 cycles: 193978799 heartbeat IPC: 2.346 cumulative IPC: 2.639 (Simulation time: 02 hr 46 min 07 sec)
Heartbeat CPU 2 instructions: 550000001 cycles: 198180246 heartbeat IPC: 2.38 cumulative IPC: 2.633 (Simulation time: 02 hr 49 min 30 sec)
Heartbeat CPU 1 instructions: 300000003 cycles: 198371752 heartbeat IPC: 1.363 cumulative IPC: 1.372 (Simulation time: 02 hr 49 min 38 sec)
Heartbeat CPU 2 instructions: 560000000 cycles: 203498114 heartbeat IPC: 1.88 cumulative IPC: 2.611 (Simulation time: 02 hr 53 min 33 sec)
Heartbeat CPU 1 instructions: 310000004 cycles: 207098684 heartbeat IPC: 1.146 cumulative IPC: 1.361 (Simulation time: 02 hr 55 min 47 sec)
Heartbeat CPU 3 instructions: 140000002 cycles: 208199704 heartbeat IPC: 0.3604 cumulative IPC: 0.3876 (Simulation time: 02 hr 56 min 28 sec)
Heartbeat CPU 2 instructions: 570000001 cycles: 215916217 heartbeat IPC: 0.8053 cumulative IPC: 2.496 (Simulation time: 03 hr 01 min 56 sec)
Heartbeat CPU 1 instructions: 320000001 cycles: 216522397 heartbeat IPC: 1.061 cumulative IPC: 1.347 (Simulation time: 03 hr 02 min 25 sec)
Heartbeat CPU 2 instructions: 580000000 cycles: 220194571 heartbeat IPC: 2.337 cumulative IPC: 2.493 (Simulation time: 03 hr 05 min 20 sec)
Heartbeat CPU 1 instructions: 330000001 cycles: 223993488 heartbeat IPC: 1.338 cumulative IPC: 1.347 (Simulation time: 03 hr 08 min 22 sec)
Heartbeat CPU 2 instructions: 590000002 cycles: 224480318 heartbeat IPC: 2.333 cumulative IPC: 2.489 (Simulation time: 03 hr 08 min 47 sec)
Heartbeat CPU 0 instructions: 130000002 cycles: 225094007 heartbeat IPC: 0.3095 cumulative IPC: 0.3917 (Simulation time: 03 hr 09 min 16 sec)
Heartbeat CPU 2 instructions: 600000004 cycles: 228827613 heartbeat IPC: 2.3 cumulative IPC: 2.485 (Simulation time: 03 hr 12 min 13 sec)
Heartbeat CPU 1 instructions: 340000003 cycles: 231610745 heartbeat IPC: 1.313 cumulative IPC: 1.345 (Simulation time: 03 hr 14 min 28 sec)
Heartbeat CPU 2 instructions: 610000000 cycles: 233153524 heartbeat IPC: 2.312 cumulative IPC: 2.482 (Simulation time: 03 hr 15 min 41 sec)
Heartbeat CPU 3 instructions: 150000000 cycles: 236470550 heartbeat IPC: 0.3537 cumulative IPC: 0.3832 (Simulation time: 03 hr 18 min 21 sec)
Heartbeat CPU 2 instructions: 620000002 cycles: 237391968 heartbeat IPC: 2.359 cumulative IPC: 2.479 (Simulation time: 03 hr 19 min 05 sec)
Heartbeat CPU 1 instructions: 350000002 cycles: 239098046 heartbeat IPC: 1.336 cumulative IPC: 1.345 (Simulation time: 03 hr 20 min 28 sec)
Heartbeat CPU 2 instructions: 630000004 cycles: 241612987 heartbeat IPC: 2.369 cumulative IPC: 2.477 (Simulation time: 03 hr 22 min 29 sec)
Heartbeat CPU 1 instructions: 360000000 cycles: 247487430 heartbeat IPC: 1.192 cumulative IPC: 1.339 (Simulation time: 03 hr 26 min 28 sec)
Heartbeat CPU 2 instructions: 640000002 cycles: 254860056 heartbeat IPC: 0.7549 cumulative IPC: 2.38 (Simulation time: 03 hr 31 min 24 sec)
Heartbeat CPU 0 instructions: 140000001 cycles: 256666458 heartbeat IPC: 0.3167 cumulative IPC: 0.3817 (Simulation time: 03 hr 32 min 51 sec)
Heartbeat CPU 1 instructions: 370000004 cycles: 257044811 heartbeat IPC: 1.046 cumulative IPC: 1.328 (Simulation time: 03 hr 33 min 08 sec)
Heartbeat CPU 2 instructions: 650000003 cycles: 259245302 heartbeat IPC: 2.28 cumulative IPC: 2.378 (Simulation time: 03 hr 34 min 52 sec)
Heartbeat CPU 2 instructions: 660000000 cycles: 263487992 heartbeat IPC: 2.357 cumulative IPC: 2.378 (Simulation time: 03 hr 38 min 17 sec)
Heartbeat CPU 1 instructions: 380000001 cycles: 264526591 heartbeat IPC: 1.337 cumulative IPC: 1.328 (Simulation time: 03 hr 39 min 05 sec)
Heartbeat CPU 3 instructions: 160000002 cycles: 266656974 heartbeat IPC: 0.3313 cumulative IPC: 0.3768 (Simulation time: 03 hr 40 min 50 sec)
Heartbeat CPU 2 instructions: 670000000 cycles: 267699998 heartbeat IPC: 2.374 cumulative IPC: 2.377 (Simulation time: 03 hr 41 min 38 sec)
Heartbeat CPU 1 instructions: 390000001 cycles: 271881441 heartbeat IPC: 1.36 cumulative IPC: 1.329 (Simulation time: 03 hr 45 min 02 sec)
Heartbeat CPU 2 instructions: 680000002 cycles: 271953963 heartbeat IPC: 2.351 cumulative IPC: 2.377 (Simulation time: 03 hr 45 min 05 sec)
Heartbeat CPU 2 instructions: 690000001 cycles: 276138790 heartbeat IPC: 2.39 cumulative IPC: 2.377 (Simulation time: 03 hr 48 min 24 sec)
Heartbeat CPU 1 instructions: 400000003 cycles: 279358930 heartbeat IPC: 1.337 cumulative IPC: 1.329 (Simulation time: 03 hr 51 min 00 sec)
Heartbeat CPU 2 instructions: 700000000 cycles: 280282587 heartbeat IPC: 2.413 cumulative IPC: 2.378 (Simulation time: 03 hr 51 min 46 sec)
Heartbeat CPU 0 instructions: 150000003 cycles: 282456807 heartbeat IPC: 0.3877 cumulative IPC: 0.3823 (Simulation time: 03 hr 53 min 30 sec)
Heartbeat CPU 1 instructions: 410000002 cycles: 287955616 heartbeat IPC: 1.163 cumulative IPC: 1.324 (Simulation time: 03 hr 57 min 04 sec)
Heartbeat CPU 2 instructions: 710000000 cycles: 292625025 heartbeat IPC: 0.8102 cumulative IPC: 2.307 (Simulation time: 04 hr 00 min 02 sec)
Heartbeat CPU 1 instructions: 420000000 cycles: 298146555 heartbeat IPC: 0.9813 cumulative IPC: 1.311 (Simulation time: 04 hr 04 min 01 sec)
Heartbeat CPU 3 instructions: 170000000 cycles: 298744132 heartbeat IPC: 0.3117 cumulative IPC: 0.3693 (Simulation time: 04 hr 04 min 29 sec)
Heartbeat CPU 2 instructions: 720000000 cycles: 298988731 heartbeat IPC: 1.571 cumulative IPC: 2.29 (Simulation time: 04 hr 04 min 42 sec)
Heartbeat CPU 2 instructions: 730000004 cycles: 303393811 heartbeat IPC: 2.27 cumulative IPC: 2.289 (Simulation time: 04 hr 08 min 09 sec)
Heartbeat CPU 1 instructions: 430000002 cycles: 305875515 heartbeat IPC: 1.294 cumulative IPC: 1.311 (Simulation time: 04 hr 10 min 10 sec)
Heartbeat CPU 2 instructions: 740000003 cycles: 307639713 heartbeat IPC: 2.355 cumulative IPC: 2.29 (Simulation time: 04 hr 11 min 36 sec)
Heartbeat CPU 2 instructions: 750000003 cycles: 311840261 heartbeat IPC: 2.381 cumulative IPC: 2.292 (Simulation time: 04 hr 14 min 58 sec)
Heartbeat CPU 1 instructions: 440000002 cycles: 313254619 heartbeat IPC: 1.355 cumulative IPC: 1.312 (Simulation time: 04 hr 16 min 06 sec)
Heartbeat CPU 0 instructions: 160000002 cycles: 315934841 heartbeat IPC: 0.2987 cumulative IPC: 0.3728 (Simulation time: 04 hr 18 min 17 sec)
Heartbeat CPU 2 instructions: 760000000 cycles: 316034239 heartbeat IPC: 2.384 cumulative IPC: 2.293 (Simulation time: 04 hr 18 min 22 sec)
Heartbeat CPU 2 instructions: 770000004 cycles: 320217914 heartbeat IPC: 2.39 cumulative IPC: 2.294 (Simulation time: 04 hr 21 min 42 sec)
Heartbeat CPU 1 instructions: 450000002 cycles: 320729971 heartbeat IPC: 1.338 cumulative IPC: 1.312 (Simulation time: 04 hr 22 min 07 sec)
Heartbeat CPU 3 instructions: 180000001 cycles: 322947677 heartbeat IPC: 0.4132 cumulative IPC: 0.3728 (Simulation time: 04 hr 23 min 57 sec)
Heartbeat CPU 2 instructions: 780000003 cycles: 324495049 heartbeat IPC: 2.338 cumulative IPC: 2.295 (Simulation time: 04 hr 25 min 10 sec)
Heartbeat CPU 1 instructions: 460000001 cycles: 329061389 heartbeat IPC: 1.2 cumulative IPC: 1.309 (Simulation time: 04 hr 28 min 07 sec)
Heartbeat CPU 2 instructions: 790000003 cycles: 337823155 heartbeat IPC: 0.7503 cumulative IPC: 2.23 (Simulation time: 04 hr 34 min 05 sec)
Heartbeat CPU 1 instructions: 470000001 cycles: 338689891 heartbeat IPC: 1.039 cumulative IPC: 1.301 (Simulation time: 04 hr 34 min 47 sec)
Heartbeat CPU 2 instructions: 800000003 cycles: 342102098 heartbeat IPC: 2.337 cumulative IPC: 2.231 (Simulation time: 04 hr 37 min 31 sec)
Heartbeat CPU 1 instructions: 480000002 cycles: 346160817 heartbeat IPC: 1.339 cumulative IPC: 1.302 (Simulation time: 04 hr 40 min 47 sec)
Heartbeat CPU 2 instructions: 810000002 cycles: 346415435 heartbeat IPC: 2.318 cumulative IPC: 2.233 (Simulation time: 04 hr 40 min 58 sec)
Heartbeat CPU 0 instructions: 170000002 cycles: 347168877 heartbeat IPC: 0.3202 cumulative IPC: 0.3678 (Simulation time: 04 hr 41 min 36 sec)
Heartbeat CPU 2 instructions: 820000004 cycles: 350697874 heartbeat IPC: 2.335 cumulative IPC: 2.234 (Simulation time: 04 hr 44 min 25 sec)
Heartbeat CPU 1 instructions: 490000000 cycles: 353754592 heartbeat IPC: 1.317 cumulative IPC: 1.302 (Simulation time: 04 hr 46 min 50 sec)
Heartbeat CPU 3 instructions: 190000003 cycles: 354168406 heartbeat IPC: 0.3203 cumulative IPC: 0.3679 (Simulation time: 04 hr 47 min 12 sec)
Heartbeat CPU 2 instructions: 830000003 cycles: 355014649 heartbeat IPC: 2.317 cumulative IPC: 2.235 (Simulation time: 04 hr 47 min 51 sec)
Heartbeat CPU 2 instructions: 840000003 cycles: 359323380 heartbeat IPC: 2.321 cumulative IPC: 2.236 (Simulation time: 04 hr 51 min 20 sec)
Heartbeat CPU 1 instructions: 500000001 cycles: 361086080 heartbeat IPC: 1.364 cumulative IPC: 1.304 (Simulation time: 04 hr 52 min 45 sec)
Heartbeat CPU 2 instructions: 850000002 cycles: 363560432 heartbeat IPC: 2.36 cumulative IPC: 2.238 (Simulation time: 04 hr 54 min 43 sec)
Heartbeat CPU 1 instructions: 510000004 cycles: 369072249 heartbeat IPC: 1.252 cumulative IPC: 1.303 (Simulation time: 04 hr 58 min 41 sec)
Heartbeat CPU 2 instructions: 860000002 cycles: 376322650 heartbeat IPC: 0.7836 cumulative IPC: 2.185 (Simulation time: 05 hr 03 min 26 sec)
Heartbeat CPU 0 instructions: 180000001 cycles: 378482910 heartbeat IPC: 0.3193 cumulative IPC: 0.3635 (Simulation time: 05 hr 05 min 05 sec)
Heartbeat CPU 1 instructions: 520000001 cycles: 379091046 heartbeat IPC: 0.9981 cumulative IPC: 1.294 (Simulation time: 05 hr 05 min 32 sec)
Heartbeat CPU 2 instructions: 870000001 cycles: 380755232 heartbeat IPC: 2.256 cumulative IPC: 2.186 (Simulation time: 05 hr 06 min 51 sec)
Heartbeat CPU 3 instructions: 200000000 cycles: 384796439 heartbeat IPC: 0.3265 cumulative IPC: 0.3644 (Simulation time: 05 hr 10 min 07 sec)
Heartbeat CPU 2 instructions: 880000000 cycles: 385008994 heartbeat IPC: 2.351 cumulative IPC: 2.188 (Simulation time: 05 hr 10 min 18 sec)
Heartbeat CPU 1 instructions: 530000000 cycles: 386530171 heartbeat IPC: 1.344 cumulative IPC: 1.295 (Simulation time: 05 hr 11 min 31 sec)
Heartbeat CPU 2 instructions: 890000002 cycles: 389323164 heartbeat IPC: 2.318 cumulative IPC: 2.19 (Simulation time: 05 hr 13 min 44 sec)
Heartbeat CPU 2 instructions: 900000002 cycles: 393643605 heartbeat IPC: 2.315 cumulative IPC: 2.191 (Simulation time: 05 hr 17 min 12 sec)
Heartbeat CPU 1 instructions: 540000001 cycles: 393947667 heartbeat IPC: 1.348 cumulative IPC: 1.296 (Simulation time: 05 hr 17 min 27 sec)
Heartbeat CPU 2 instructions: 910000004 cycles: 397898988 heartbeat IPC: 2.35 cumulative IPC: 2.193 (Simulation time: 05 hr 20 min 37 sec)
Heartbeat CPU 1 instructions: 550000000 cycles: 401273395 heartbeat IPC: 1.365 cumulative IPC: 1.297 (Simulation time: 05 hr 23 min 20 sec)
Heartbeat CPU 2 instructions: 920000003 cycles: 402234158 heartbeat IPC: 2.307 cumulative IPC: 2.194 (Simulation time: 05 hr 24 min 06 sec)
Heartbeat CPU 0 instructions: 190000003 cycles: 403663917 heartbeat IPC: 0.3971 cumulative IPC: 0.3657 (Simulation time: 05 hr 25 min 15 sec)
Heartbeat CPU 2 instructions: 930000000 cycles: 406585961 heartbeat IPC: 2.298 cumulative IPC: 2.195 (Simulation time: 05 hr 27 min 36 sec)
Heartbeat CPU 1 instructions: 560000004 cycles: 409237181 heartbeat IPC: 1.256 cumulative IPC: 1.297 (Simulation time: 05 hr 29 min 18 sec)
Heartbeat CPU 3 instructions: 210000000 cycles: 411586204 heartbeat IPC: 0.3733 cumulative IPC: 0.365 (Simulation time: 05 hr 30 min 44 sec)
Heartbeat CPU 1 instructions: 570000000 cycles: 419046384 heartbeat IPC: 1.019 cumulative IPC: 1.29 (Simulation time: 05 hr 35 min 55 sec)
Heartbeat CPU 2 instructions: 940000002 cycles: 419815701 heartbeat IPC: 0.7559 cumulative IPC: 2.148 (Simulation time: 05 hr 36 min 30 sec)
Heartbeat CPU 2 instructions: 950000002 cycles: 424170866 heartbeat IPC: 2.296 cumulative IPC: 2.149 (Simulation time: 05 hr 40 min 00 sec)
Heartbeat CPU 1 instructions: 580000000 cycles: 426647542 heartbeat IPC: 1.316 cumulative IPC: 1.29 (Simulation time: 05 hr 41 min 58 sec)
Heartbeat CPU 2 instructions: 960000000 cycles: 428462387 heartbeat IPC: 2.33 cumulative IPC: 2.151 (Simulation time: 05 hr 43 min 26 sec)
Simulation finished CPU 3 instructions: 150000000 cycles: 411409688 cumulative IPC: 0.3646 (Simulation time: 05 hr 46 min 30 sec)
Heartbeat CPU 2 instructions: 970000000 cycles: 432776752 heartbeat IPC: 2.318 cumulative IPC: 2.153 (Simulation time: 05 hr 46 min 53 sec)
Heartbeat CPU 1 instructions: 590000003 cycles: 434065599 heartbeat IPC: 1.348 cumulative IPC: 1.291 (Simulation time: 05 hr 47 min 56 sec)
Heartbeat CPU 0 instructions: 200000001 cycles: 434940697 heartbeat IPC: 0.3197 cumulative IPC: 0.3623 (Simulation time: 05 hr 48 min 37 sec)
Simulation finished CPU 0 instructions: 150000001 cycles: 414066323 cumulative IPC: 0.3623 (Simulation time: 05 hr 48 min 37 sec)
Simulation complete CPU 0 instructions: 150000001 cycles: 414066323 cumulative IPC: 0.3623 (Simulation time: 05 hr 48 min 37 sec)
Simulation complete CPU 1 instructions: 534683411 cycles: 414066323 cumulative IPC: 1.291 (Simulation time: 05 hr 48 min 37 sec)
Simulation complete CPU 2 instructions: 891832945 cycles: 414066323 cumulative IPC: 2.154 (Simulation time: 05 hr 48 min 37 sec)
Simulation complete CPU 3 instructions: 150787401 cycles: 414066323 cumulative IPC: 0.3642 (Simulation time: 05 hr 48 min 37 sec)

ChampSim completed all CPUs

=== Simulation ===
CPU 0 runs /home/grads/r/rdas40/dpc3_traces/620.omnetpp_s-874B.champsimtrace.xzCPU 1 runs /home/grads/r/rdas40/dpc3_traces/607.cactuBSSN_s-2421B.champsimtrace.xzCPU 2 runs /home/grads/r/rdas40/dpc3_traces/654.roms_s-842B.champsimtrace.xzCPU 3 runs /home/grads/r/rdas40/dpc3_traces/605.mcf_s-665B.champsimtrace.xz
Total Simulation Statistics (not including warmup)

CPU 0 cumulative IPC: 0.3623 instructions: 150000001 cycles: 414066323
CPU 0 Branch Prediction Accuracy: 94.9% MPKI: 10.6 Average ROB Occupancy at Mispredict: 83.07
Branch type MPKI
BRANCH_DIRECT_JUMP: 0.923
BRANCH_INDIRECT: 0.128
BRANCH_CONDITIONAL: 8.42
BRANCH_DIRECT_CALL: 0.00016
BRANCH_INDIRECT_CALL: 0.734
BRANCH_RETURN: 0.399


CPU 1 cumulative IPC: 1.291 instructions: 534683411 cycles: 414066323
CPU 1 Branch Prediction Accuracy: 99.85% MPKI: 0.001805 Average ROB Occupancy at Mispredict: 348.6
Branch type MPKI
BRANCH_DIRECT_JUMP: 1.87e-06
BRANCH_INDIRECT: 9.35e-06
BRANCH_CONDITIONAL: 0.00179
BRANCH_DIRECT_CALL: 0
BRANCH_INDIRECT_CALL: 0
BRANCH_RETURN: 0


CPU 2 cumulative IPC: 2.154 instructions: 891832945 cycles: 414066323
CPU 2 Branch Prediction Accuracy: 91.24% MPKI: 11.43 Average ROB Occupancy at Mispredict: 96.11
Branch type MPKI
BRANCH_DIRECT_JUMP: 0.0699
BRANCH_INDIRECT: 0
BRANCH_CONDITIONAL: 6.95
BRANCH_DIRECT_CALL: 8.97e-06
BRANCH_INDIRECT_CALL: 0
BRANCH_RETURN: 4.41


CPU 3 cumulative IPC: 0.3642 instructions: 150787401 cycles: 414066323
CPU 3 Branch Prediction Accuracy: 90.35% MPKI: 23.85 Average ROB Occupancy at Mispredict: 18.61
Branch type MPKI
BRANCH_DIRECT_JUMP: 0.254
BRANCH_INDIRECT: 0
BRANCH_CONDITIONAL: 23.6
BRANCH_DIRECT_CALL: 0
BRANCH_INDIRECT_CALL: 0.00063
BRANCH_RETURN: 0

LLC TOTAL        ACCESS:    4529911 HIT:    1716773 MISS:    2813138
LLC LOAD         ACCESS:    1685267 HIT:     409390 MISS:    1275877
LLC RFO          ACCESS:     258430 HIT:     101701 MISS:     156729
LLC PREFETCH     ACCESS:    1020995 HIT:     218964 MISS:     802031
LLC WRITE        ACCESS:     968861 HIT:     935124 MISS:      33737
LLC TRANSLATION  ACCESS:     596358 HIT:      51594 MISS:     544764
LLC PREFETCH REQUESTED:          0 ISSUED:          0 USEFUL:          0 USELESS:          0
LLC AVERAGE MISS LATENCY: 500.5 cycles
LLC TOTAL        ACCESS:   16334731 HIT:   12123738 MISS:    4210993
LLC LOAD         ACCESS:    5314884 HIT:    2468110 MISS:    2846774
LLC RFO          ACCESS:      10244 HIT:      10244 MISS:          0
LLC PREFETCH     ACCESS:   10401360 HIT:    9087056 MISS:    1314304
LLC WRITE        ACCESS:     526643 HIT:     526533 MISS:        110
LLC TRANSLATION  ACCESS:      81600 HIT:      31795 MISS:      49805
LLC PREFETCH REQUESTED:          0 ISSUED:          0 USEFUL:          0 USELESS:          0
LLC AVERAGE MISS LATENCY: 500.5 cycles
LLC TOTAL        ACCESS:    5070377 HIT:    1378552 MISS:    3691825
LLC LOAD         ACCESS:     860180 HIT:     352623 MISS:     507557
LLC RFO          ACCESS:     706442 HIT:         31 MISS:     706411
LLC PREFETCH     ACCESS:    2789800 HIT:     379899 MISS:    2409901
LLC WRITE        ACCESS:     706765 HIT:     644372 MISS:      62393
LLC TRANSLATION  ACCESS:       7190 HIT:       1627 MISS:       5563
LLC PREFETCH REQUESTED:          0 ISSUED:          0 USEFUL:          0 USELESS:          0
LLC AVERAGE MISS LATENCY: 500.5 cycles
LLC TOTAL        ACCESS:    6189862 HIT:    3498322 MISS:    2691540
LLC LOAD         ACCESS:    2805755 HIT:    1893582 MISS:     912173
LLC RFO          ACCESS:     240369 HIT:     234184 MISS:       6185
LLC PREFETCH     ACCESS:    2749935 HIT:    1008257 MISS:    1741678
LLC WRITE        ACCESS:     379698 HIT:     354644 MISS:      25054
LLC TRANSLATION  ACCESS:      14105 HIT:       7655 MISS:       6450
LLC PREFETCH REQUESTED:          0 ISSUED:          0 USEFUL:          0 USELESS:          0
LLC AVERAGE MISS LATENCY: 500.5 cycles
cpu0_DTLB TOTAL        ACCESS:   38230753 HIT:   34933760 MISS:    3296993
cpu0_DTLB LOAD         ACCESS:   38230753 HIT:   34933760 MISS:    3296993
cpu0_DTLB RFO          ACCESS:          0 HIT:          0 MISS:          0
cpu0_DTLB PREFETCH     ACCESS:          0 HIT:          0 MISS:          0
cpu0_DTLB WRITE        ACCESS:          0 HIT:          0 MISS:          0
cpu0_DTLB TRANSLATION  ACCESS:          0 HIT:          0 MISS:          0
cpu0_DTLB PREFETCH REQUESTED:          0 ISSUED:          0 USEFUL:          0 USELESS:          0
cpu0_DTLB AVERAGE MISS LATENCY: 79.01 cycles
cpu0_DTLB TOTAL        ACCESS:          0 HIT:          0 MISS:          0
cpu0_DTLB LOAD         ACCESS:          0 HIT:          0 MISS:          0
cpu0_DTLB RFO          ACCESS:          0 HIT:          0 MISS:          0
cpu0_DTLB PREFETCH     ACCESS:          0 HIT:          0 MISS:          0
cpu0_DTLB WRITE        ACCESS:          0 HIT:          0 MISS:          0
cpu0_DTLB TRANSLATION  ACCESS:          0 HIT:          0 MISS:          0
cpu0_DTLB PREFETCH REQUESTED:          0 ISSUED:          0 USEFUL:          0 USELESS:          0
cpu0_DTLB AVERAGE MISS LATENCY: 79.01 cycles
cpu0_DTLB TOTAL        ACCESS:          0 HIT:          0 MISS:          0
cpu0_DTLB LOAD         ACCESS:          0 HIT:          0 MISS:          0
cpu0_DTLB RFO          ACCESS:          0 HIT:          0 MISS:          0
cpu0_DTLB PREFETCH     ACCESS:          0 HIT:          0 MISS:          0
cpu0_DTLB WRITE        ACCESS:          0 HIT:          0 MISS:          0
cpu0_DTLB TRANSLATION  ACCESS:          0 HIT:          0 MISS:          0
cpu0_DTLB PREFETCH REQUESTED:          0 ISSUED:          0 USEFUL:          0 USELESS:          0
cpu0_DTLB AVERAGE MISS LATENCY: 79.01 cycles
cpu0_DTLB TOTAL        ACCESS:          0 HIT:          0 MISS:          0
cpu0_DTLB LOAD         ACCESS:          0 HIT:          0 MISS:          0
cpu0_DTLB RFO          ACCESS:          0 HIT:          0 MISS:          0
cpu0_DTLB PREFETCH     ACCESS:          0 HIT:          0 MISS:          0
cpu0_DTLB WRITE        ACCESS:          0 HIT:          0 MISS:          0
cpu0_DTLB TRANSLATION  ACCESS:          0 HIT:          0 MISS:          0
cpu0_DTLB PREFETCH REQUESTED:          0 ISSUED:          0 USEFUL:          0 USELESS:          0
cpu0_DTLB AVERAGE MISS LATENCY: 79.01 cycles
cpu0_ITLB TOTAL        ACCESS:   10783924 HIT:   10511812 MISS:     272112
cpu0_ITLB LOAD         ACCESS:   10783924 HIT:   10511812 MISS:     272112
cpu0_ITLB RFO          ACCESS:          0 HIT:          0 MISS:          0
cpu0_ITLB PREFETCH     ACCESS:          0 HIT:          0 MISS:          0
cpu0_ITLB WRITE        ACCESS:          0 HIT:          0 MISS:          0
cpu0_ITLB TRANSLATION  ACCESS:          0 HIT:          0 MISS:          0
cpu0_ITLB PREFETCH REQUESTED:          0 ISSUED:          0 USEFUL:          0 USELESS:          0
cpu0_ITLB AVERAGE MISS LATENCY: 7.456 cycles
cpu0_ITLB TOTAL        ACCESS:          0 HIT:          0 MISS:          0
cpu0_ITLB LOAD         ACCESS:          0 HIT:          0 MISS:          0
cpu0_ITLB RFO          ACCESS:          0 HIT:          0 MISS:          0
cpu0_ITLB PREFETCH     ACCESS:          0 HIT:          0 MISS:          0
cpu0_ITLB WRITE        ACCESS:          0 HIT:          0 MISS:          0
cpu0_ITLB TRANSLATION  ACCESS:          0 HIT:          0 MISS:          0
cpu0_ITLB PREFETCH REQUESTED:          0 ISSUED:          0 USEFUL:          0 USELESS:          0
cpu0_ITLB AVERAGE MISS LATENCY: 7.456 cycles
cpu0_ITLB TOTAL        ACCESS:          0 HIT:          0 MISS:          0
cpu0_ITLB LOAD         ACCESS:          0 HIT:          0 MISS:          0
cpu0_ITLB RFO          ACCESS:          0 HIT:          0 MISS:          0
cpu0_ITLB PREFETCH     ACCESS:          0 HIT:          0 MISS:          0
cpu0_ITLB WRITE        ACCESS:          0 HIT:          0 MISS:          0
cpu0_ITLB TRANSLATION  ACCESS:          0 HIT:          0 MISS:          0
cpu0_ITLB PREFETCH REQUESTED:          0 ISSUED:          0 USEFUL:          0 USELESS:          0
cpu0_ITLB AVERAGE MISS LATENCY: 7.456 cycles
cpu0_ITLB TOTAL        ACCESS:          0 HIT:          0 MISS:          0
cpu0_ITLB LOAD         ACCESS:          0 HIT:          0 MISS:          0
cpu0_ITLB RFO          ACCESS:          0 HIT:          0 MISS:          0
cpu0_ITLB PREFETCH     ACCESS:          0 HIT:          0 MISS:          0
cpu0_ITLB WRITE        ACCESS:          0 HIT:          0 MISS:          0
cpu0_ITLB TRANSLATION  ACCESS:          0 HIT:          0 MISS:          0
cpu0_ITLB PREFETCH REQUESTED:          0 ISSUED:          0 USEFUL:          0 USELESS:          0
cpu0_ITLB AVERAGE MISS LATENCY: 7.456 cycles
cpu0_L1D TOTAL        ACCESS:   49764693 HIT:   44860143 MISS:    4904550
cpu0_L1D LOAD         ACCESS:   22921528 HIT:   19865994 MISS:    3055534
cpu0_L1D RFO          ACCESS:          0 HIT:          0 MISS:          0
cpu0_L1D PREFETCH     ACCESS:          0 HIT:          0 MISS:          0
cpu0_L1D WRITE        ACCESS:   25951948 HIT:   24848973 MISS:    1102975
cpu0_L1D TRANSLATION  ACCESS:     891217 HIT:     145176 MISS:     746041
cpu0_L1D PREFETCH REQUESTED:          0 ISSUED:          0 USEFUL:          0 USELESS:          0
cpu0_L1D AVERAGE MISS LATENCY: 174.8 cycles
cpu0_L1D TOTAL        ACCESS:          0 HIT:          0 MISS:          0
cpu0_L1D LOAD         ACCESS:          0 HIT:          0 MISS:          0
cpu0_L1D RFO          ACCESS:          0 HIT:          0 MISS:          0
cpu0_L1D PREFETCH     ACCESS:          0 HIT:          0 MISS:          0
cpu0_L1D WRITE        ACCESS:          0 HIT:          0 MISS:          0
cpu0_L1D TRANSLATION  ACCESS:          0 HIT:          0 MISS:          0
cpu0_L1D PREFETCH REQUESTED:          0 ISSUED:          0 USEFUL:          0 USELESS:          0
cpu0_L1D AVERAGE MISS LATENCY: 174.8 cycles
cpu0_L1D TOTAL        ACCESS:          0 HIT:          0 MISS:          0
cpu0_L1D LOAD         ACCESS:          0 HIT:          0 MISS:          0
cpu0_L1D RFO          ACCESS:          0 HIT:          0 MISS:          0
cpu0_L1D PREFETCH     ACCESS:          0 HIT:          0 MISS:          0
cpu0_L1D WRITE        ACCESS:          0 HIT:          0 MISS:          0
cpu0_L1D TRANSLATION  ACCESS:          0 HIT:          0 MISS:          0
cpu0_L1D PREFETCH REQUESTED:          0 ISSUED:          0 USEFUL:          0 USELESS:          0
cpu0_L1D AVERAGE MISS LATENCY: 174.8 cycles
cpu0_L1D TOTAL        ACCESS:          0 HIT:          0 MISS:          0
cpu0_L1D LOAD         ACCESS:          0 HIT:          0 MISS:          0
cpu0_L1D RFO          ACCESS:          0 HIT:          0 MISS:          0
cpu0_L1D PREFETCH     ACCESS:          0 HIT:          0 MISS:          0
cpu0_L1D WRITE        ACCESS:          0 HIT:          0 MISS:          0
cpu0_L1D TRANSLATION  ACCESS:          0 HIT:          0 MISS:          0
cpu0_L1D PREFETCH REQUESTED:          0 ISSUED:          0 USEFUL:          0 USELESS:          0
cpu0_L1D AVERAGE MISS LATENCY: 174.8 cycles
cpu0_L1I TOTAL        ACCESS:   12867832 HIT:   12793737 MISS:      74095
cpu0_L1I LOAD         ACCESS:   12867832 HIT:   12793737 MISS:      74095
cpu0_L1I RFO          ACCESS:          0 HIT:          0 MISS:          0
cpu0_L1I PREFETCH     ACCESS:          0 HIT:          0 MISS:          0
cpu0_L1I WRITE        ACCESS:          0 HIT:          0 MISS:          0
cpu0_L1I TRANSLATION  ACCESS:          0 HIT:          0 MISS:          0
cpu0_L1I PREFETCH REQUESTED:          0 ISSUED:          0 USEFUL:          0 USELESS:          0
cpu0_L1I AVERAGE MISS LATENCY: 36.55 cycles
cpu0_L1I TOTAL        ACCESS:          0 HIT:          0 MISS:          0
cpu0_L1I LOAD         ACCESS:          0 HIT:          0 MISS:          0
cpu0_L1I RFO          ACCESS:          0 HIT:          0 MISS:          0
cpu0_L1I PREFETCH     ACCESS:          0 HIT:          0 MISS:          0
cpu0_L1I WRITE        ACCESS:          0 HIT:          0 MISS:          0
cpu0_L1I TRANSLATION  ACCESS:          0 HIT:          0 MISS:          0
cpu0_L1I PREFETCH REQUESTED:          0 ISSUED:          0 USEFUL:          0 USELESS:          0
cpu0_L1I AVERAGE MISS LATENCY: 36.55 cycles
cpu0_L1I TOTAL        ACCESS:          0 HIT:          0 MISS:          0
cpu0_L1I LOAD         ACCESS:          0 HIT:          0 MISS:          0
cpu0_L1I RFO          ACCESS:          0 HIT:          0 MISS:          0
cpu0_L1I PREFETCH     ACCESS:          0 HIT:          0 MISS:          0
cpu0_L1I WRITE        ACCESS:          0 HIT:          0 MISS:          0
cpu0_L1I TRANSLATION  ACCESS:          0 HIT:          0 MISS:          0
cpu0_L1I PREFETCH REQUESTED:          0 ISSUED:          0 USEFUL:          0 USELESS:          0
cpu0_L1I AVERAGE MISS LATENCY: 36.55 cycles
cpu0_L1I TOTAL        ACCESS:          0 HIT:          0 MISS:          0
cpu0_L1I LOAD         ACCESS:          0 HIT:          0 MISS:          0
cpu0_L1I RFO          ACCESS:          0 HIT:          0 MISS:          0
cpu0_L1I PREFETCH     ACCESS:          0 HIT:          0 MISS:          0
cpu0_L1I WRITE        ACCESS:          0 HIT:          0 MISS:          0
cpu0_L1I TRANSLATION  ACCESS:          0 HIT:          0 MISS:          0
cpu0_L1I PREFETCH REQUESTED:          0 ISSUED:          0 USEFUL:          0 USELESS:          0
cpu0_L1I AVERAGE MISS LATENCY: 36.55 cycles
cpu0_L2C TOTAL        ACCESS:    7034137 HIT:    2903130 MISS:    4131007
cpu0_L2C LOAD         ACCESS:    2539439 HIT:     852116 MISS:    1687323
cpu0_L2C RFO          ACCESS:     365521 HIT:     107054 MISS:     258467
cpu0_L2C PREFETCH     ACCESS:    1983895 HIT:     397256 MISS:    1586639
cpu0_L2C WRITE        ACCESS:    1400035 HIT:    1397815 MISS:       2220
cpu0_L2C TRANSLATION  ACCESS:     745247 HIT:     148889 MISS:     596358
cpu0_L2C PREFETCH REQUESTED:    1983896 ISSUED:    1983896 USEFUL:       4173 USELESS:      16935
cpu0_L2C AVERAGE MISS LATENCY: 206.5 cycles
cpu0_L2C TOTAL        ACCESS:          0 HIT:          0 MISS:          0
cpu0_L2C LOAD         ACCESS:          0 HIT:          0 MISS:          0
cpu0_L2C RFO          ACCESS:          0 HIT:          0 MISS:          0
cpu0_L2C PREFETCH     ACCESS:          0 HIT:          0 MISS:          0
cpu0_L2C WRITE        ACCESS:          0 HIT:          0 MISS:          0
cpu0_L2C TRANSLATION  ACCESS:          0 HIT:          0 MISS:          0
cpu0_L2C PREFETCH REQUESTED:    1983896 ISSUED:    1983896 USEFUL:       4173 USELESS:      16935
cpu0_L2C AVERAGE MISS LATENCY: 206.5 cycles
cpu0_L2C TOTAL        ACCESS:          0 HIT:          0 MISS:          0
cpu0_L2C LOAD         ACCESS:          0 HIT:          0 MISS:          0
cpu0_L2C RFO          ACCESS:          0 HIT:          0 MISS:          0
cpu0_L2C PREFETCH     ACCESS:          0 HIT:          0 MISS:          0
cpu0_L2C WRITE        ACCESS:          0 HIT:          0 MISS:          0
cpu0_L2C TRANSLATION  ACCESS:          0 HIT:          0 MISS:          0
cpu0_L2C PREFETCH REQUESTED:    1983896 ISSUED:    1983896 USEFUL:       4173 USELESS:      16935
cpu0_L2C AVERAGE MISS LATENCY: 206.5 cycles
cpu0_L2C TOTAL        ACCESS:          0 HIT:          0 MISS:          0
cpu0_L2C LOAD         ACCESS:          0 HIT:          0 MISS:          0
cpu0_L2C RFO          ACCESS:          0 HIT:          0 MISS:          0
cpu0_L2C PREFETCH     ACCESS:          0 HIT:          0 MISS:          0
cpu0_L2C WRITE        ACCESS:          0 HIT:          0 MISS:          0
cpu0_L2C TRANSLATION  ACCESS:          0 HIT:          0 MISS:          0
cpu0_L2C PREFETCH REQUESTED:    1983896 ISSUED:    1983896 USEFUL:       4173 USELESS:      16935
cpu0_L2C AVERAGE MISS LATENCY: 206.5 cycles
cpu0_STLB TOTAL        ACCESS:    3014917 HIT:    2372471 MISS:     642446
cpu0_STLB LOAD         ACCESS:    3014917 HIT:    2372471 MISS:     642446
cpu0_STLB RFO          ACCESS:          0 HIT:          0 MISS:          0
cpu0_STLB PREFETCH     ACCESS:          0 HIT:          0 MISS:          0
cpu0_STLB WRITE        ACCESS:          0 HIT:          0 MISS:          0
cpu0_STLB TRANSLATION  ACCESS:          0 HIT:          0 MISS:          0
cpu0_STLB PREFETCH REQUESTED:          0 ISSUED:          0 USEFUL:          0 USELESS:          0
cpu0_STLB AVERAGE MISS LATENCY: 384 cycles
cpu0_STLB TOTAL        ACCESS:          0 HIT:          0 MISS:          0
cpu0_STLB LOAD         ACCESS:          0 HIT:          0 MISS:          0
cpu0_STLB RFO          ACCESS:          0 HIT:          0 MISS:          0
cpu0_STLB PREFETCH     ACCESS:          0 HIT:          0 MISS:          0
cpu0_STLB WRITE        ACCESS:          0 HIT:          0 MISS:          0
cpu0_STLB TRANSLATION  ACCESS:          0 HIT:          0 MISS:          0
cpu0_STLB PREFETCH REQUESTED:          0 ISSUED:          0 USEFUL:          0 USELESS:          0
cpu0_STLB AVERAGE MISS LATENCY: 384 cycles
cpu0_STLB TOTAL        ACCESS:          0 HIT:          0 MISS:          0
cpu0_STLB LOAD         ACCESS:          0 HIT:          0 MISS:          0
cpu0_STLB RFO          ACCESS:          0 HIT:          0 MISS:          0
cpu0_STLB PREFETCH     ACCESS:          0 HIT:          0 MISS:          0
cpu0_STLB WRITE        ACCESS:          0 HIT:          0 MISS:          0
cpu0_STLB TRANSLATION  ACCESS:          0 HIT:          0 MISS:          0
cpu0_STLB PREFETCH REQUESTED:          0 ISSUED:          0 USEFUL:          0 USELESS:          0
cpu0_STLB AVERAGE MISS LATENCY: 384 cycles
cpu0_STLB TOTAL        ACCESS:          0 HIT:          0 MISS:          0
cpu0_STLB LOAD         ACCESS:          0 HIT:          0 MISS:          0
cpu0_STLB RFO          ACCESS:          0 HIT:          0 MISS:          0
cpu0_STLB PREFETCH     ACCESS:          0 HIT:          0 MISS:          0
cpu0_STLB WRITE        ACCESS:          0 HIT:          0 MISS:          0
cpu0_STLB TRANSLATION  ACCESS:          0 HIT:          0 MISS:          0
cpu0_STLB PREFETCH REQUESTED:          0 ISSUED:          0 USEFUL:          0 USELESS:          0
cpu0_STLB AVERAGE MISS LATENCY: 384 cycles
cpu1_DTLB TOTAL        ACCESS:          0 HIT:          0 MISS:          0
cpu1_DTLB LOAD         ACCESS:          0 HIT:          0 MISS:          0
cpu1_DTLB RFO          ACCESS:          0 HIT:          0 MISS:          0
cpu1_DTLB PREFETCH     ACCESS:          0 HIT:          0 MISS:          0
cpu1_DTLB WRITE        ACCESS:          0 HIT:          0 MISS:          0
cpu1_DTLB TRANSLATION  ACCESS:          0 HIT:          0 MISS:          0
cpu1_DTLB PREFETCH REQUESTED:          0 ISSUED:          0 USEFUL:          0 USELESS:          0
cpu1_DTLB AVERAGE MISS LATENCY: 7.073 cycles
cpu1_DTLB TOTAL        ACCESS:  113331543 HIT:   66323263 MISS:   47008280
cpu1_DTLB LOAD         ACCESS:  113331543 HIT:   66323263 MISS:   47008280
cpu1_DTLB RFO          ACCESS:          0 HIT:          0 MISS:          0
cpu1_DTLB PREFETCH     ACCESS:          0 HIT:          0 MISS:          0
cpu1_DTLB WRITE        ACCESS:          0 HIT:          0 MISS:          0
cpu1_DTLB TRANSLATION  ACCESS:          0 HIT:          0 MISS:          0
cpu1_DTLB PREFETCH REQUESTED:          0 ISSUED:          0 USEFUL:          0 USELESS:          0
cpu1_DTLB AVERAGE MISS LATENCY: 7.073 cycles
cpu1_DTLB TOTAL        ACCESS:          0 HIT:          0 MISS:          0
cpu1_DTLB LOAD         ACCESS:          0 HIT:          0 MISS:          0
cpu1_DTLB RFO          ACCESS:          0 HIT:          0 MISS:          0
cpu1_DTLB PREFETCH     ACCESS:          0 HIT:          0 MISS:          0
cpu1_DTLB WRITE        ACCESS:          0 HIT:          0 MISS:          0
cpu1_DTLB TRANSLATION  ACCESS:          0 HIT:          0 MISS:          0
cpu1_DTLB PREFETCH REQUESTED:          0 ISSUED:          0 USEFUL:          0 USELESS:          0
cpu1_DTLB AVERAGE MISS LATENCY: 7.073 cycles
cpu1_DTLB TOTAL        ACCESS:          0 HIT:          0 MISS:          0
cpu1_DTLB LOAD         ACCESS:          0 HIT:          0 MISS:          0
cpu1_DTLB RFO          ACCESS:          0 HIT:          0 MISS:          0
cpu1_DTLB PREFETCH     ACCESS:          0 HIT:          0 MISS:          0
cpu1_DTLB WRITE        ACCESS:          0 HIT:          0 MISS:          0
cpu1_DTLB TRANSLATION  ACCESS:          0 HIT:          0 MISS:          0
cpu1_DTLB PREFETCH REQUESTED:          0 ISSUED:          0 USEFUL:          0 USELESS:          0
cpu1_DTLB AVERAGE MISS LATENCY: 7.073 cycles
cpu1_ITLB TOTAL        ACCESS:          0 HIT:          0 MISS:          0
cpu1_ITLB LOAD         ACCESS:          0 HIT:          0 MISS:          0
cpu1_ITLB RFO          ACCESS:          0 HIT:          0 MISS:          0
cpu1_ITLB PREFETCH     ACCESS:          0 HIT:          0 MISS:          0
cpu1_ITLB WRITE        ACCESS:          0 HIT:          0 MISS:          0
cpu1_ITLB TRANSLATION  ACCESS:          0 HIT:          0 MISS:          0
cpu1_ITLB PREFETCH REQUESTED:          0 ISSUED:          0 USEFUL:          0 USELESS:          0
cpu1_ITLB AVERAGE MISS LATENCY: -nan cycles
cpu1_ITLB TOTAL        ACCESS:   69757501 HIT:   69757501 MISS:          0
cpu1_ITLB LOAD         ACCESS:   69757501 HIT:   69757501 MISS:          0
cpu1_ITLB RFO          ACCESS:          0 HIT:          0 MISS:          0
cpu1_ITLB PREFETCH     ACCESS:          0 HIT:          0 MISS:          0
cpu1_ITLB WRITE        ACCESS:          0 HIT:          0 MISS:          0
cpu1_ITLB TRANSLATION  ACCESS:          0 HIT:          0 MISS:          0
cpu1_ITLB PREFETCH REQUESTED:          0 ISSUED:          0 USEFUL:          0 USELESS:          0
cpu1_ITLB AVERAGE MISS LATENCY: -nan cycles
cpu1_ITLB TOTAL        ACCESS:          0 HIT:          0 MISS:          0
cpu1_ITLB LOAD         ACCESS:          0 HIT:          0 MISS:          0
cpu1_ITLB RFO          ACCESS:          0 HIT:          0 MISS:          0
cpu1_ITLB PREFETCH     ACCESS:          0 HIT:          0 MISS:          0
cpu1_ITLB WRITE        ACCESS:          0 HIT:          0 MISS:          0
cpu1_ITLB TRANSLATION  ACCESS:          0 HIT:          0 MISS:          0
cpu1_ITLB PREFETCH REQUESTED:          0 ISSUED:          0 USEFUL:          0 USELESS:          0
cpu1_ITLB AVERAGE MISS LATENCY: -nan cycles
cpu1_ITLB TOTAL        ACCESS:          0 HIT:          0 MISS:          0
cpu1_ITLB LOAD         ACCESS:          0 HIT:          0 MISS:          0
cpu1_ITLB RFO          ACCESS:          0 HIT:          0 MISS:          0
cpu1_ITLB PREFETCH     ACCESS:          0 HIT:          0 MISS:          0
cpu1_ITLB WRITE        ACCESS:          0 HIT:          0 MISS:          0
cpu1_ITLB TRANSLATION  ACCESS:          0 HIT:          0 MISS:          0
cpu1_ITLB PREFETCH REQUESTED:          0 ISSUED:          0 USEFUL:          0 USELESS:          0
cpu1_ITLB AVERAGE MISS LATENCY: -nan cycles
cpu1_L1D TOTAL        ACCESS:          0 HIT:          0 MISS:          0
cpu1_L1D LOAD         ACCESS:          0 HIT:          0 MISS:          0
cpu1_L1D RFO          ACCESS:          0 HIT:          0 MISS:          0
cpu1_L1D PREFETCH     ACCESS:          0 HIT:          0 MISS:          0
cpu1_L1D WRITE        ACCESS:          0 HIT:          0 MISS:          0
cpu1_L1D TRANSLATION  ACCESS:          0 HIT:          0 MISS:          0
cpu1_L1D PREFETCH REQUESTED:          0 ISSUED:          0 USEFUL:          0 USELESS:          0
cpu1_L1D AVERAGE MISS LATENCY: 53.9 cycles
cpu1_L1D TOTAL        ACCESS:  139656242 HIT:   77335280 MISS:   62320962
cpu1_L1D LOAD         ACCESS:   78466613 HIT:   19432912 MISS:   59033701
cpu1_L1D RFO          ACCESS:          0 HIT:          0 MISS:          0
cpu1_L1D PREFETCH     ACCESS:          0 HIT:          0 MISS:          0
cpu1_L1D WRITE        ACCESS:   61088406 HIT:   57901483 MISS:    3186923
cpu1_L1D TRANSLATION  ACCESS:     101223 HIT:        885 MISS:     100338
cpu1_L1D PREFETCH REQUESTED:          0 ISSUED:          0 USEFUL:          0 USELESS:          0
cpu1_L1D AVERAGE MISS LATENCY: 53.9 cycles
cpu1_L1D TOTAL        ACCESS:          0 HIT:          0 MISS:          0
cpu1_L1D LOAD         ACCESS:          0 HIT:          0 MISS:          0
cpu1_L1D RFO          ACCESS:          0 HIT:          0 MISS:          0
cpu1_L1D PREFETCH     ACCESS:          0 HIT:          0 MISS:          0
cpu1_L1D WRITE        ACCESS:          0 HIT:          0 MISS:          0
cpu1_L1D TRANSLATION  ACCESS:          0 HIT:          0 MISS:          0
cpu1_L1D PREFETCH REQUESTED:          0 ISSUED:          0 USEFUL:          0 USELESS:          0
cpu1_L1D AVERAGE MISS LATENCY: 53.9 cycles
cpu1_L1D TOTAL        ACCESS:          0 HIT:          0 MISS:          0
cpu1_L1D LOAD         ACCESS:          0 HIT:          0 MISS:          0
cpu1_L1D RFO          ACCESS:          0 HIT:          0 MISS:          0
cpu1_L1D PREFETCH     ACCESS:          0 HIT:          0 MISS:          0
cpu1_L1D WRITE        ACCESS:          0 HIT:          0 MISS:          0
cpu1_L1D TRANSLATION  ACCESS:          0 HIT:          0 MISS:          0
cpu1_L1D PREFETCH REQUESTED:          0 ISSUED:          0 USEFUL:          0 USELESS:          0
cpu1_L1D AVERAGE MISS LATENCY: 53.9 cycles
cpu1_L1I TOTAL        ACCESS:          0 HIT:          0 MISS:          0
cpu1_L1I LOAD         ACCESS:          0 HIT:          0 MISS:          0
cpu1_L1I RFO          ACCESS:          0 HIT:          0 MISS:          0
cpu1_L1I PREFETCH     ACCESS:          0 HIT:          0 MISS:          0
cpu1_L1I WRITE        ACCESS:          0 HIT:          0 MISS:          0
cpu1_L1I TRANSLATION  ACCESS:          0 HIT:          0 MISS:          0
cpu1_L1I PREFETCH REQUESTED:          0 ISSUED:          0 USEFUL:          0 USELESS:          0
cpu1_L1I AVERAGE MISS LATENCY: -nan cycles
cpu1_L1I TOTAL        ACCESS:   91624031 HIT:   91624031 MISS:          0
cpu1_L1I LOAD         ACCESS:   91624031 HIT:   91624031 MISS:          0
cpu1_L1I RFO          ACCESS:          0 HIT:          0 MISS:          0
cpu1_L1I PREFETCH     ACCESS:          0 HIT:          0 MISS:          0
cpu1_L1I WRITE        ACCESS:          0 HIT:          0 MISS:          0
cpu1_L1I TRANSLATION  ACCESS:          0 HIT:          0 MISS:          0
cpu1_L1I PREFETCH REQUESTED:          0 ISSUED:          0 USEFUL:          0 USELESS:          0
cpu1_L1I AVERAGE MISS LATENCY: -nan cycles
cpu1_L1I TOTAL        ACCESS:          0 HIT:          0 MISS:          0
cpu1_L1I LOAD         ACCESS:          0 HIT:          0 MISS:          0
cpu1_L1I RFO          ACCESS:          0 HIT:          0 MISS:          0
cpu1_L1I PREFETCH     ACCESS:          0 HIT:          0 MISS:          0
cpu1_L1I WRITE        ACCESS:          0 HIT:          0 MISS:          0
cpu1_L1I TRANSLATION  ACCESS:          0 HIT:          0 MISS:          0
cpu1_L1I PREFETCH REQUESTED:          0 ISSUED:          0 USEFUL:          0 USELESS:          0
cpu1_L1I AVERAGE MISS LATENCY: -nan cycles
cpu1_L1I TOTAL        ACCESS:          0 HIT:          0 MISS:          0
cpu1_L1I LOAD         ACCESS:          0 HIT:          0 MISS:          0
cpu1_L1I RFO          ACCESS:          0 HIT:          0 MISS:          0
cpu1_L1I PREFETCH     ACCESS:          0 HIT:          0 MISS:          0
cpu1_L1I WRITE        ACCESS:          0 HIT:          0 MISS:          0
cpu1_L1I TRANSLATION  ACCESS:          0 HIT:          0 MISS:          0
cpu1_L1I PREFETCH REQUESTED:          0 ISSUED:          0 USEFUL:          0 USELESS:          0
cpu1_L1I AVERAGE MISS LATENCY: -nan cycles
cpu1_L2C TOTAL        ACCESS:          0 HIT:          0 MISS:          0
cpu1_L2C LOAD         ACCESS:          0 HIT:          0 MISS:          0
cpu1_L2C RFO          ACCESS:          0 HIT:          0 MISS:          0
cpu1_L2C PREFETCH     ACCESS:          0 HIT:          0 MISS:          0
cpu1_L2C WRITE        ACCESS:          0 HIT:          0 MISS:          0
cpu1_L2C TRANSLATION  ACCESS:          0 HIT:          0 MISS:          0
cpu1_L2C PREFETCH REQUESTED:   34239503 ISSUED:   34237223 USEFUL:      31712 USELESS:      21044
cpu1_L2C AVERAGE MISS LATENCY: 153.6 cycles
cpu1_L2C TOTAL        ACCESS:   99618584 HIT:   81763953 MISS:   17854631
cpu1_L2C LOAD         ACCESS:   58252620 HIT:   52937123 MISS:    5315497
cpu1_L2C RFO          ACCESS:    2385318 HIT:    2374981 MISS:      10337
cpu1_L2C PREFETCH     ACCESS:   34237221 HIT:   21790026 MISS:   12447195
cpu1_L2C WRITE        ACCESS:    4643135 HIT:    4643133 MISS:          2
cpu1_L2C TRANSLATION  ACCESS:     100290 HIT:      18690 MISS:      81600
cpu1_L2C PREFETCH REQUESTED:   34239503 ISSUED:   34237223 USEFUL:      31712 USELESS:      21044
cpu1_L2C AVERAGE MISS LATENCY: 153.6 cycles
cpu1_L2C TOTAL        ACCESS:          0 HIT:          0 MISS:          0
cpu1_L2C LOAD         ACCESS:          0 HIT:          0 MISS:          0
cpu1_L2C RFO          ACCESS:          0 HIT:          0 MISS:          0
cpu1_L2C PREFETCH     ACCESS:          0 HIT:          0 MISS:          0
cpu1_L2C WRITE        ACCESS:          0 HIT:          0 MISS:          0
cpu1_L2C TRANSLATION  ACCESS:          0 HIT:          0 MISS:          0
cpu1_L2C PREFETCH REQUESTED:   34239503 ISSUED:   34237223 USEFUL:      31712 USELESS:      21044
cpu1_L2C AVERAGE MISS LATENCY: 153.6 cycles
cpu1_L2C TOTAL        ACCESS:          0 HIT:          0 MISS:          0
cpu1_L2C LOAD         ACCESS:          0 HIT:          0 MISS:          0
cpu1_L2C RFO          ACCESS:          0 HIT:          0 MISS:          0
cpu1_L2C PREFETCH     ACCESS:          0 HIT:          0 MISS:          0
cpu1_L2C WRITE        ACCESS:          0 HIT:          0 MISS:          0
cpu1_L2C TRANSLATION  ACCESS:          0 HIT:          0 MISS:          0
cpu1_L2C PREFETCH REQUESTED:   34239503 ISSUED:   34237223 USEFUL:      31712 USELESS:      21044
cpu1_L2C AVERAGE MISS LATENCY: 153.6 cycles
cpu1_STLB TOTAL        ACCESS:          0 HIT:          0 MISS:          0
cpu1_STLB LOAD         ACCESS:          0 HIT:          0 MISS:          0
cpu1_STLB RFO          ACCESS:          0 HIT:          0 MISS:          0
cpu1_STLB PREFETCH     ACCESS:          0 HIT:          0 MISS:          0
cpu1_STLB WRITE        ACCESS:          0 HIT:          0 MISS:          0
cpu1_STLB TRANSLATION  ACCESS:          0 HIT:          0 MISS:          0
cpu1_STLB PREFETCH REQUESTED:          0 ISSUED:          0 USEFUL:          0 USELESS:          0
cpu1_STLB AVERAGE MISS LATENCY: 687.8 cycles
cpu1_STLB TOTAL        ACCESS:   40339824 HIT:   40274849 MISS:      64975
cpu1_STLB LOAD         ACCESS:   40339824 HIT:   40274849 MISS:      64975
cpu1_STLB RFO          ACCESS:          0 HIT:          0 MISS:          0
cpu1_STLB PREFETCH     ACCESS:          0 HIT:          0 MISS:          0
cpu1_STLB WRITE        ACCESS:          0 HIT:          0 MISS:          0
cpu1_STLB TRANSLATION  ACCESS:          0 HIT:          0 MISS:          0
cpu1_STLB PREFETCH REQUESTED:          0 ISSUED:          0 USEFUL:          0 USELESS:          0
cpu1_STLB AVERAGE MISS LATENCY: 687.8 cycles
cpu1_STLB TOTAL        ACCESS:          0 HIT:          0 MISS:          0
cpu1_STLB LOAD         ACCESS:          0 HIT:          0 MISS:          0
cpu1_STLB RFO          ACCESS:          0 HIT:          0 MISS:          0
cpu1_STLB PREFETCH     ACCESS:          0 HIT:          0 MISS:          0
cpu1_STLB WRITE        ACCESS:          0 HIT:          0 MISS:          0
cpu1_STLB TRANSLATION  ACCESS:          0 HIT:          0 MISS:          0
cpu1_STLB PREFETCH REQUESTED:          0 ISSUED:          0 USEFUL:          0 USELESS:          0
cpu1_STLB AVERAGE MISS LATENCY: 687.8 cycles
cpu1_STLB TOTAL        ACCESS:          0 HIT:          0 MISS:          0
cpu1_STLB LOAD         ACCESS:          0 HIT:          0 MISS:          0
cpu1_STLB RFO          ACCESS:          0 HIT:          0 MISS:          0
cpu1_STLB PREFETCH     ACCESS:          0 HIT:          0 MISS:          0
cpu1_STLB WRITE        ACCESS:          0 HIT:          0 MISS:          0
cpu1_STLB TRANSLATION  ACCESS:          0 HIT:          0 MISS:          0
cpu1_STLB PREFETCH REQUESTED:          0 ISSUED:          0 USEFUL:          0 USELESS:          0
cpu1_STLB AVERAGE MISS LATENCY: 687.8 cycles
cpu2_DTLB TOTAL        ACCESS:          0 HIT:          0 MISS:          0
cpu2_DTLB LOAD         ACCESS:          0 HIT:          0 MISS:          0
cpu2_DTLB RFO          ACCESS:          0 HIT:          0 MISS:          0
cpu2_DTLB PREFETCH     ACCESS:          0 HIT:          0 MISS:          0
cpu2_DTLB WRITE        ACCESS:          0 HIT:          0 MISS:          0
cpu2_DTLB TRANSLATION  ACCESS:          0 HIT:          0 MISS:          0
cpu2_DTLB PREFETCH REQUESTED:          0 ISSUED:          0 USEFUL:          0 USELESS:          0
cpu2_DTLB AVERAGE MISS LATENCY: 27.52 cycles
cpu2_DTLB TOTAL        ACCESS:          0 HIT:          0 MISS:          0
cpu2_DTLB LOAD         ACCESS:          0 HIT:          0 MISS:          0
cpu2_DTLB RFO          ACCESS:          0 HIT:          0 MISS:          0
cpu2_DTLB PREFETCH     ACCESS:          0 HIT:          0 MISS:          0
cpu2_DTLB WRITE        ACCESS:          0 HIT:          0 MISS:          0
cpu2_DTLB TRANSLATION  ACCESS:          0 HIT:          0 MISS:          0
cpu2_DTLB PREFETCH REQUESTED:          0 ISSUED:          0 USEFUL:          0 USELESS:          0
cpu2_DTLB AVERAGE MISS LATENCY: 27.52 cycles
cpu2_DTLB TOTAL        ACCESS:  126895520 HIT:  126693477 MISS:     202043
cpu2_DTLB LOAD         ACCESS:  126895520 HIT:  126693477 MISS:     202043
cpu2_DTLB RFO          ACCESS:          0 HIT:          0 MISS:          0
cpu2_DTLB PREFETCH     ACCESS:          0 HIT:          0 MISS:          0
cpu2_DTLB WRITE        ACCESS:          0 HIT:          0 MISS:          0
cpu2_DTLB TRANSLATION  ACCESS:          0 HIT:          0 MISS:          0
cpu2_DTLB PREFETCH REQUESTED:          0 ISSUED:          0 USEFUL:          0 USELESS:          0
cpu2_DTLB AVERAGE MISS LATENCY: 27.52 cycles
cpu2_DTLB TOTAL        ACCESS:          0 HIT:          0 MISS:          0
cpu2_DTLB LOAD         ACCESS:          0 HIT:          0 MISS:          0
cpu2_DTLB RFO          ACCESS:          0 HIT:          0 MISS:          0
cpu2_DTLB PREFETCH     ACCESS:          0 HIT:          0 MISS:          0
cpu2_DTLB WRITE        ACCESS:          0 HIT:          0 MISS:          0
cpu2_DTLB TRANSLATION  ACCESS:          0 HIT:          0 MISS:          0
cpu2_DTLB PREFETCH REQUESTED:          0 ISSUED:          0 USEFUL:          0 USELESS:          0
cpu2_DTLB AVERAGE MISS LATENCY: 27.52 cycles
cpu2_ITLB TOTAL        ACCESS:          0 HIT:          0 MISS:          0
cpu2_ITLB LOAD         ACCESS:          0 HIT:          0 MISS:          0
cpu2_ITLB RFO          ACCESS:          0 HIT:          0 MISS:          0
cpu2_ITLB PREFETCH     ACCESS:          0 HIT:          0 MISS:          0
cpu2_ITLB WRITE        ACCESS:          0 HIT:          0 MISS:          0
cpu2_ITLB TRANSLATION  ACCESS:          0 HIT:          0 MISS:          0
cpu2_ITLB PREFETCH REQUESTED:          0 ISSUED:          0 USEFUL:          0 USELESS:          0
cpu2_ITLB AVERAGE MISS LATENCY: 595.9 cycles
cpu2_ITLB TOTAL        ACCESS:          0 HIT:          0 MISS:          0
cpu2_ITLB LOAD         ACCESS:          0 HIT:          0 MISS:          0
cpu2_ITLB RFO          ACCESS:          0 HIT:          0 MISS:          0
cpu2_ITLB PREFETCH     ACCESS:          0 HIT:          0 MISS:          0
cpu2_ITLB WRITE        ACCESS:          0 HIT:          0 MISS:          0
cpu2_ITLB TRANSLATION  ACCESS:          0 HIT:          0 MISS:          0
cpu2_ITLB PREFETCH REQUESTED:          0 ISSUED:          0 USEFUL:          0 USELESS:          0
cpu2_ITLB AVERAGE MISS LATENCY: 595.9 cycles
cpu2_ITLB TOTAL        ACCESS:    3898972 HIT:    3898965 MISS:          7
cpu2_ITLB LOAD         ACCESS:    3898972 HIT:    3898965 MISS:          7
cpu2_ITLB RFO          ACCESS:          0 HIT:          0 MISS:          0
cpu2_ITLB PREFETCH     ACCESS:          0 HIT:          0 MISS:          0
cpu2_ITLB WRITE        ACCESS:          0 HIT:          0 MISS:          0
cpu2_ITLB TRANSLATION  ACCESS:          0 HIT:          0 MISS:          0
cpu2_ITLB PREFETCH REQUESTED:          0 ISSUED:          0 USEFUL:          0 USELESS:          0
cpu2_ITLB AVERAGE MISS LATENCY: 595.9 cycles
cpu2_ITLB TOTAL        ACCESS:          0 HIT:          0 MISS:          0
cpu2_ITLB LOAD         ACCESS:          0 HIT:          0 MISS:          0
cpu2_ITLB RFO          ACCESS:          0 HIT:          0 MISS:          0
cpu2_ITLB PREFETCH     ACCESS:          0 HIT:          0 MISS:          0
cpu2_ITLB WRITE        ACCESS:          0 HIT:          0 MISS:          0
cpu2_ITLB TRANSLATION  ACCESS:          0 HIT:          0 MISS:          0
cpu2_ITLB PREFETCH REQUESTED:          0 ISSUED:          0 USEFUL:          0 USELESS:          0
cpu2_ITLB AVERAGE MISS LATENCY: 595.9 cycles
cpu2_L1D TOTAL        ACCESS:          0 HIT:          0 MISS:          0
cpu2_L1D LOAD         ACCESS:          0 HIT:          0 MISS:          0
cpu2_L1D RFO          ACCESS:          0 HIT:          0 MISS:          0
cpu2_L1D PREFETCH     ACCESS:          0 HIT:          0 MISS:          0
cpu2_L1D WRITE        ACCESS:          0 HIT:          0 MISS:          0
cpu2_L1D TRANSLATION  ACCESS:          0 HIT:          0 MISS:          0
cpu2_L1D PREFETCH REQUESTED:          0 ISSUED:          0 USEFUL:          0 USELESS:          0
cpu2_L1D AVERAGE MISS LATENCY: 139 cycles
cpu2_L1D TOTAL        ACCESS:          0 HIT:          0 MISS:          0
cpu2_L1D LOAD         ACCESS:          0 HIT:          0 MISS:          0
cpu2_L1D RFO          ACCESS:          0 HIT:          0 MISS:          0
cpu2_L1D PREFETCH     ACCESS:          0 HIT:          0 MISS:          0
cpu2_L1D WRITE        ACCESS:          0 HIT:          0 MISS:          0
cpu2_L1D TRANSLATION  ACCESS:          0 HIT:          0 MISS:          0
cpu2_L1D PREFETCH REQUESTED:          0 ISSUED:          0 USEFUL:          0 USELESS:          0
cpu2_L1D AVERAGE MISS LATENCY: 139 cycles
cpu2_L1D TOTAL        ACCESS:  166358991 HIT:  160292243 MISS:    6066748
cpu2_L1D LOAD         ACCESS:   89776904 HIT:   88343140 MISS:    1433764
cpu2_L1D RFO          ACCESS:          0 HIT:          0 MISS:          0
cpu2_L1D PREFETCH     ACCESS:          0 HIT:          0 MISS:          0
cpu2_L1D WRITE        ACCESS:   76546463 HIT:   71920766 MISS:    4625697
cpu2_L1D TRANSLATION  ACCESS:      35624 HIT:      28337 MISS:       7287
cpu2_L1D PREFETCH REQUESTED:          0 ISSUED:          0 USEFUL:          0 USELESS:          0
cpu2_L1D AVERAGE MISS LATENCY: 139 cycles
cpu2_L1D TOTAL        ACCESS:          0 HIT:          0 MISS:          0
cpu2_L1D LOAD         ACCESS:          0 HIT:          0 MISS:          0
cpu2_L1D RFO          ACCESS:          0 HIT:          0 MISS:          0
cpu2_L1D PREFETCH     ACCESS:          0 HIT:          0 MISS:          0
cpu2_L1D WRITE        ACCESS:          0 HIT:          0 MISS:          0
cpu2_L1D TRANSLATION  ACCESS:          0 HIT:          0 MISS:          0
cpu2_L1D PREFETCH REQUESTED:          0 ISSUED:          0 USEFUL:          0 USELESS:          0
cpu2_L1D AVERAGE MISS LATENCY: 139 cycles
cpu2_L1I TOTAL        ACCESS:          0 HIT:          0 MISS:          0
cpu2_L1I LOAD         ACCESS:          0 HIT:          0 MISS:          0
cpu2_L1I RFO          ACCESS:          0 HIT:          0 MISS:          0
cpu2_L1I PREFETCH     ACCESS:          0 HIT:          0 MISS:          0
cpu2_L1I WRITE        ACCESS:          0 HIT:          0 MISS:          0
cpu2_L1I TRANSLATION  ACCESS:          0 HIT:          0 MISS:          0
cpu2_L1I PREFETCH REQUESTED:          0 ISSUED:          0 USEFUL:          0 USELESS:          0
cpu2_L1I AVERAGE MISS LATENCY: 390 cycles
cpu2_L1I TOTAL        ACCESS:          0 HIT:          0 MISS:          0
cpu2_L1I LOAD         ACCESS:          0 HIT:          0 MISS:          0
cpu2_L1I RFO          ACCESS:          0 HIT:          0 MISS:          0
cpu2_L1I PREFETCH     ACCESS:          0 HIT:          0 MISS:          0
cpu2_L1I WRITE        ACCESS:          0 HIT:          0 MISS:          0
cpu2_L1I TRANSLATION  ACCESS:          0 HIT:          0 MISS:          0
cpu2_L1I PREFETCH REQUESTED:          0 ISSUED:          0 USEFUL:          0 USELESS:          0
cpu2_L1I AVERAGE MISS LATENCY: 390 cycles
cpu2_L1I TOTAL        ACCESS:    4632030 HIT:    4631950 MISS:         80
cpu2_L1I LOAD         ACCESS:    4632030 HIT:    4631950 MISS:         80
cpu2_L1I RFO          ACCESS:          0 HIT:          0 MISS:          0
cpu2_L1I PREFETCH     ACCESS:          0 HIT:          0 MISS:          0
cpu2_L1I WRITE        ACCESS:          0 HIT:          0 MISS:          0
cpu2_L1I TRANSLATION  ACCESS:          0 HIT:          0 MISS:          0
cpu2_L1I PREFETCH REQUESTED:          0 ISSUED:          0 USEFUL:          0 USELESS:          0
cpu2_L1I AVERAGE MISS LATENCY: 390 cycles
cpu2_L1I TOTAL        ACCESS:          0 HIT:          0 MISS:          0
cpu2_L1I LOAD         ACCESS:          0 HIT:          0 MISS:          0
cpu2_L1I RFO          ACCESS:          0 HIT:          0 MISS:          0
cpu2_L1I PREFETCH     ACCESS:          0 HIT:          0 MISS:          0
cpu2_L1I WRITE        ACCESS:          0 HIT:          0 MISS:          0
cpu2_L1I TRANSLATION  ACCESS:          0 HIT:          0 MISS:          0
cpu2_L1I PREFETCH REQUESTED:          0 ISSUED:          0 USEFUL:          0 USELESS:          0
cpu2_L1I AVERAGE MISS LATENCY: 390 cycles
cpu2_L2C TOTAL        ACCESS:          0 HIT:          0 MISS:          0
cpu2_L2C LOAD         ACCESS:          0 HIT:          0 MISS:          0
cpu2_L2C RFO          ACCESS:          0 HIT:          0 MISS:          0
cpu2_L2C PREFETCH     ACCESS:          0 HIT:          0 MISS:          0
cpu2_L2C WRITE        ACCESS:          0 HIT:          0 MISS:          0
cpu2_L2C TRANSLATION  ACCESS:          0 HIT:          0 MISS:          0
cpu2_L2C PREFETCH REQUESTED:    4023771 ISSUED:    3824011 USEFUL:     202254 USELESS:       6102
cpu2_L2C AVERAGE MISS LATENCY: 177.8 cycles
cpu2_L2C TOTAL        ACCESS:          0 HIT:          0 MISS:          0
cpu2_L2C LOAD         ACCESS:          0 HIT:          0 MISS:          0
cpu2_L2C RFO          ACCESS:          0 HIT:          0 MISS:          0
cpu2_L2C PREFETCH     ACCESS:          0 HIT:          0 MISS:          0
cpu2_L2C WRITE        ACCESS:          0 HIT:          0 MISS:          0
cpu2_L2C TRANSLATION  ACCESS:          0 HIT:          0 MISS:          0
cpu2_L2C PREFETCH REQUESTED:    4023771 ISSUED:    3824011 USEFUL:     202254 USELESS:       6102
cpu2_L2C AVERAGE MISS LATENCY: 177.8 cycles
cpu2_L2C TOTAL        ACCESS:    6310577 HIT:     795135 MISS:    5515442
cpu2_L2C LOAD         ACCESS:    1062690 HIT:      58802 MISS:    1003888
cpu2_L2C RFO          ACCESS:     708242 HIT:       1800 MISS:     706442
cpu2_L2C PREFETCH     ACCESS:    3824011 HIT:      27496 MISS:    3796515
cpu2_L2C WRITE        ACCESS:     708347 HIT:     706940 MISS:       1407
cpu2_L2C TRANSLATION  ACCESS:       7287 HIT:         97 MISS:       7190
cpu2_L2C PREFETCH REQUESTED:    4023771 ISSUED:    3824011 USEFUL:     202254 USELESS:       6102
cpu2_L2C AVERAGE MISS LATENCY: 177.8 cycles
cpu2_L2C TOTAL        ACCESS:          0 HIT:          0 MISS:          0
cpu2_L2C LOAD         ACCESS:          0 HIT:          0 MISS:          0
cpu2_L2C RFO          ACCESS:          0 HIT:          0 MISS:          0
cpu2_L2C PREFETCH     ACCESS:          0 HIT:          0 MISS:          0
cpu2_L2C WRITE        ACCESS:          0 HIT:          0 MISS:          0
cpu2_L2C TRANSLATION  ACCESS:          0 HIT:          0 MISS:          0
cpu2_L2C PREFETCH REQUESTED:    4023771 ISSUED:    3824011 USEFUL:     202254 USELESS:       6102
cpu2_L2C AVERAGE MISS LATENCY: 177.8 cycles
cpu2_STLB TOTAL        ACCESS:          0 HIT:          0 MISS:          0
cpu2_STLB LOAD         ACCESS:          0 HIT:          0 MISS:          0
cpu2_STLB RFO          ACCESS:          0 HIT:          0 MISS:          0
cpu2_STLB PREFETCH     ACCESS:          0 HIT:          0 MISS:          0
cpu2_STLB WRITE        ACCESS:          0 HIT:          0 MISS:          0
cpu2_STLB TRANSLATION  ACCESS:          0 HIT:          0 MISS:          0
cpu2_STLB PREFETCH REQUESTED:          0 ISSUED:          0 USEFUL:          0 USELESS:          0
cpu2_STLB AVERAGE MISS LATENCY: 231.6 cycles
cpu2_STLB TOTAL        ACCESS:          0 HIT:          0 MISS:          0
cpu2_STLB LOAD         ACCESS:          0 HIT:          0 MISS:          0
cpu2_STLB RFO          ACCESS:          0 HIT:          0 MISS:          0
cpu2_STLB PREFETCH     ACCESS:          0 HIT:          0 MISS:          0
cpu2_STLB WRITE        ACCESS:          0 HIT:          0 MISS:          0
cpu2_STLB TRANSLATION  ACCESS:          0 HIT:          0 MISS:          0
cpu2_STLB PREFETCH REQUESTED:          0 ISSUED:          0 USEFUL:          0 USELESS:          0
cpu2_STLB AVERAGE MISS LATENCY: 231.6 cycles
cpu2_STLB TOTAL        ACCESS:      38909 HIT:       3335 MISS:      35574
cpu2_STLB LOAD         ACCESS:      38909 HIT:       3335 MISS:      35574
cpu2_STLB RFO          ACCESS:          0 HIT:          0 MISS:          0
cpu2_STLB PREFETCH     ACCESS:          0 HIT:          0 MISS:          0
cpu2_STLB WRITE        ACCESS:          0 HIT:          0 MISS:          0
cpu2_STLB TRANSLATION  ACCESS:          0 HIT:          0 MISS:          0
cpu2_STLB PREFETCH REQUESTED:          0 ISSUED:          0 USEFUL:          0 USELESS:          0
cpu2_STLB AVERAGE MISS LATENCY: 231.6 cycles
cpu2_STLB TOTAL        ACCESS:          0 HIT:          0 MISS:          0
cpu2_STLB LOAD         ACCESS:          0 HIT:          0 MISS:          0
cpu2_STLB RFO          ACCESS:          0 HIT:          0 MISS:          0
cpu2_STLB PREFETCH     ACCESS:          0 HIT:          0 MISS:          0
cpu2_STLB WRITE        ACCESS:          0 HIT:          0 MISS:          0
cpu2_STLB TRANSLATION  ACCESS:          0 HIT:          0 MISS:          0
cpu2_STLB PREFETCH REQUESTED:          0 ISSUED:          0 USEFUL:          0 USELESS:          0
cpu2_STLB AVERAGE MISS LATENCY: 231.6 cycles
cpu3_DTLB TOTAL        ACCESS:          0 HIT:          0 MISS:          0
cpu3_DTLB LOAD         ACCESS:          0 HIT:          0 MISS:          0
cpu3_DTLB RFO          ACCESS:          0 HIT:          0 MISS:          0
cpu3_DTLB PREFETCH     ACCESS:          0 HIT:          0 MISS:          0
cpu3_DTLB WRITE        ACCESS:          0 HIT:          0 MISS:          0
cpu3_DTLB TRANSLATION  ACCESS:          0 HIT:          0 MISS:          0
cpu3_DTLB PREFETCH REQUESTED:          0 ISSUED:          0 USEFUL:          0 USELESS:          0
cpu3_DTLB AVERAGE MISS LATENCY: 9.126 cycles
cpu3_DTLB TOTAL        ACCESS:          0 HIT:          0 MISS:          0
cpu3_DTLB LOAD         ACCESS:          0 HIT:          0 MISS:          0
cpu3_DTLB RFO          ACCESS:          0 HIT:          0 MISS:          0
cpu3_DTLB PREFETCH     ACCESS:          0 HIT:          0 MISS:          0
cpu3_DTLB WRITE        ACCESS:          0 HIT:          0 MISS:          0
cpu3_DTLB TRANSLATION  ACCESS:          0 HIT:          0 MISS:          0
cpu3_DTLB PREFETCH REQUESTED:          0 ISSUED:          0 USEFUL:          0 USELESS:          0
cpu3_DTLB AVERAGE MISS LATENCY: 9.126 cycles
cpu3_DTLB TOTAL        ACCESS:          0 HIT:          0 MISS:          0
cpu3_DTLB LOAD         ACCESS:          0 HIT:          0 MISS:          0
cpu3_DTLB RFO          ACCESS:          0 HIT:          0 MISS:          0
cpu3_DTLB PREFETCH     ACCESS:          0 HIT:          0 MISS:          0
cpu3_DTLB WRITE        ACCESS:          0 HIT:          0 MISS:          0
cpu3_DTLB TRANSLATION  ACCESS:          0 HIT:          0 MISS:          0
cpu3_DTLB PREFETCH REQUESTED:          0 ISSUED:          0 USEFUL:          0 USELESS:          0
cpu3_DTLB AVERAGE MISS LATENCY: 9.126 cycles
cpu3_DTLB TOTAL        ACCESS:   41525392 HIT:   38918701 MISS:    2606691
cpu3_DTLB LOAD         ACCESS:   41525392 HIT:   38918701 MISS:    2606691
cpu3_DTLB RFO          ACCESS:          0 HIT:          0 MISS:          0
cpu3_DTLB PREFETCH     ACCESS:          0 HIT:          0 MISS:          0
cpu3_DTLB WRITE        ACCESS:          0 HIT:          0 MISS:          0
cpu3_DTLB TRANSLATION  ACCESS:          0 HIT:          0 MISS:          0
cpu3_DTLB PREFETCH REQUESTED:          0 ISSUED:          0 USEFUL:          0 USELESS:          0
[...]
cpu2_L1I PREFETCH REQUESTED:          0 ISSUED:          0 USEFUL:          0 USELESS:          0
cpu2_L1I AVERAGE MISS LATENCY: 390 cycles
cpu2_L1I TOTAL        ACCESS:          0 HIT:          0 MISS:          0
cpu2_L1I LOAD         ACCESS:          0 HIT:          0 MISS:          0
cpu2_L1I RFO          ACCESS:          0 HIT:          0 MISS:          0
cpu2_L1I PREFETCH     ACCESS:          0 HIT:          0 MISS:          0
cpu2_L1I WRITE        ACCESS:          0 HIT:          0 MISS:          0
cpu2_L1I TRANSLATION  ACCESS:          0 HIT:          0 MISS:          0
cpu2_L1I PREFETCH REQUESTED:          0 ISSUED:          0 USEFUL:          0 USELESS:          0
cpu2_L1I AVERAGE MISS LATENCY: 390 cycles
cpu2_L2C TOTAL        ACCESS:          0 HIT:          0 MISS:          0
cpu2_L2C LOAD         ACCESS:          0 HIT:          0 MISS:          0
cpu2_L2C RFO          ACCESS:          0 HIT:          0 MISS:          0
cpu2_L2C PREFETCH     ACCESS:          0 HIT:          0 MISS:          0
cpu2_L2C WRITE        ACCESS:          0 HIT:          0 MISS:          0
cpu2_L2C TRANSLATION  ACCESS:          0 HIT:          0 MISS:          0
cpu2_L2C PREFETCH REQUESTED:    4023771 ISSUED:    3824011 USEFUL:     202254 USELESS:       6102
cpu2_L2C AVERAGE MISS LATENCY: 177.8 cycles
cpu2_L2C TOTAL        ACCESS:          0 HIT:          0 MISS:          0
cpu2_L2C LOAD         ACCESS:          0 HIT:          0 MISS:          0
cpu2_L2C RFO          ACCESS:          0 HIT:          0 MISS:          0
cpu2_L2C PREFETCH     ACCESS:          0 HIT:          0 MISS:          0
cpu2_L2C WRITE        ACCESS:          0 HIT:          0 MISS:          0
cpu2_L2C TRANSLATION  ACCESS:          0 HIT:          0 MISS:          0
cpu2_L2C PREFETCH REQUESTED:    4023771 ISSUED:    3824011 USEFUL:     202254 USELESS:       6102
cpu2_L2C AVERAGE MISS LATENCY: 177.8 cycles
cpu2_L2C TOTAL        ACCESS:      51572 HIT:      10367 MISS:      41205
cpu2_L2C LOAD         ACCESS:      12737 HIT:        885 MISS:      11852
cpu2_L2C RFO          ACCESS:       8730 HIT:        367 MISS:       8363
cpu2_L2C PREFETCH     ACCESS:      21321 HIT:        380 MISS:      20941
cpu2_L2C WRITE        ACCESS:       8735 HIT:       8735 MISS:          0
cpu2_L2C TRANSLATION  ACCESS:         49 HIT:          0 MISS:         49
cpu2_L2C PREFETCH REQUESTED:    4023771 ISSUED:    3824011 USEFUL:     202254 USELESS:       6102
cpu2_L2C AVERAGE MISS LATENCY: 177.8 cycles
cpu2_L2C TOTAL        ACCESS:          0 HIT:          0 MISS:          0
cpu2_L2C LOAD         ACCESS:          0 HIT:          0 MISS:          0
cpu2_L2C RFO          ACCESS:          0 HIT:          0 MISS:          0
cpu2_L2C PREFETCH     ACCESS:          0 HIT:          0 MISS:          0
cpu2_L2C WRITE        ACCESS:          0 HIT:          0 MISS:          0
cpu2_L2C TRANSLATION  ACCESS:          0 HIT:          0 MISS:          0
cpu2_L2C PREFETCH REQUESTED:    4023771 ISSUED:    3824011 USEFUL:     202254 USELESS:       6102
cpu2_L2C AVERAGE MISS LATENCY: 177.8 cycles
cpu2_STLB TOTAL        ACCESS:          0 HIT:          0 MISS:          0
cpu2_STLB LOAD         ACCESS:          0 HIT:          0 MISS:          0
cpu2_STLB RFO          ACCESS:          0 HIT:          0 MISS:          0
cpu2_STLB PREFETCH     ACCESS:          0 HIT:          0 MISS:          0
cpu2_STLB WRITE        ACCESS:          0 HIT:          0 MISS:          0
cpu2_STLB TRANSLATION  ACCESS:          0 HIT:          0 MISS:          0
cpu2_STLB PREFETCH REQUESTED:          0 ISSUED:          0 USEFUL:          0 USELESS:          0
cpu2_STLB AVERAGE MISS LATENCY: 231.6 cycles
cpu2_STLB TOTAL        ACCESS:          0 HIT:          0 MISS:          0
cpu2_STLB LOAD         ACCESS:          0 HIT:          0 MISS:          0
cpu2_STLB RFO          ACCESS:          0 HIT:          0 MISS:          0
cpu2_STLB PREFETCH     ACCESS:          0 HIT:          0 MISS:          0
cpu2_STLB WRITE        ACCESS:          0 HIT:          0 MISS:          0
cpu2_STLB TRANSLATION  ACCESS:          0 HIT:          0 MISS:          0
cpu2_STLB PREFETCH REQUESTED:          0 ISSUED:          0 USEFUL:          0 USELESS:          0
cpu2_STLB AVERAGE MISS LATENCY: 231.6 cycles
cpu2_STLB TOTAL        ACCESS:        484 HIT:         49 MISS:        435
cpu2_STLB LOAD         ACCESS:        484 HIT:         49 MISS:        435
cpu2_STLB RFO          ACCESS:          0 HIT:          0 MISS:          0
cpu2_STLB PREFETCH     ACCESS:          0 HIT:          0 MISS:          0
cpu2_STLB WRITE        ACCESS:          0 HIT:          0 MISS:          0
cpu2_STLB TRANSLATION  ACCESS:          0 HIT:          0 MISS:          0
cpu2_STLB PREFETCH REQUESTED:          0 ISSUED:          0 USEFUL:          0 USELESS:          0
cpu2_STLB AVERAGE MISS LATENCY: 231.6 cycles
cpu2_STLB TOTAL        ACCESS:          0 HIT:          0 MISS:          0
cpu2_STLB LOAD         ACCESS:          0 HIT:          0 MISS:          0
cpu2_STLB RFO          ACCESS:          0 HIT:          0 MISS:          0
cpu2_STLB PREFETCH     ACCESS:          0 HIT:          0 MISS:          0
cpu2_STLB WRITE        ACCESS:          0 HIT:          0 MISS:          0
cpu2_STLB TRANSLATION  ACCESS:          0 HIT:          0 MISS:          0
cpu2_STLB PREFETCH REQUESTED:          0 ISSUED:          0 USEFUL:          0 USELESS:          0
cpu2_STLB AVERAGE MISS LATENCY: 231.6 cycles
cpu3_DTLB TOTAL        ACCESS:          0 HIT:          0 MISS:          0
cpu3_DTLB LOAD         ACCESS:          0 HIT:          0 MISS:          0
cpu3_DTLB RFO          ACCESS:          0 HIT:          0 MISS:          0
cpu3_DTLB PREFETCH     ACCESS:          0 HIT:          0 MISS:          0
cpu3_DTLB WRITE        ACCESS:          0 HIT:          0 MISS:          0
cpu3_DTLB TRANSLATION  ACCESS:          0 HIT:          0 MISS:          0
cpu3_DTLB PREFETCH REQUESTED:          0 ISSUED:          0 USEFUL:          0 USELESS:          0
cpu3_DTLB AVERAGE MISS LATENCY: 9.126 cycles
cpu3_DTLB TOTAL        ACCESS:          0 HIT:          0 MISS:          0
cpu3_DTLB LOAD         ACCESS:          0 HIT:          0 MISS:          0
cpu3_DTLB RFO          ACCESS:          0 HIT:          0 MISS:          0
cpu3_DTLB PREFETCH     ACCESS:          0 HIT:          0 MISS:          0
cpu3_DTLB WRITE        ACCESS:          0 HIT:          0 MISS:          0
cpu3_DTLB TRANSLATION  ACCESS:          0 HIT:          0 MISS:          0
cpu3_DTLB PREFETCH REQUESTED:          0 ISSUED:          0 USEFUL:          0 USELESS:          0
cpu3_DTLB AVERAGE MISS LATENCY: 9.126 cycles
cpu3_DTLB TOTAL        ACCESS:          0 HIT:          0 MISS:          0
cpu3_DTLB LOAD         ACCESS:          0 HIT:          0 MISS:          0
cpu3_DTLB RFO          ACCESS:          0 HIT:          0 MISS:          0
cpu3_DTLB PREFETCH     ACCESS:          0 HIT:          0 MISS:          0
cpu3_DTLB WRITE        ACCESS:          0 HIT:          0 MISS:          0
cpu3_DTLB TRANSLATION  ACCESS:          0 HIT:          0 MISS:          0
cpu3_DTLB PREFETCH REQUESTED:          0 ISSUED:          0 USEFUL:          0 USELESS:          0
cpu3_DTLB AVERAGE MISS LATENCY: 9.126 cycles
cpu3_DTLB TOTAL        ACCESS:   41309107 HIT:   38722330 MISS:    2586777
cpu3_DTLB LOAD         ACCESS:   41309107 HIT:   38722330 MISS:    2586777
cpu3_DTLB RFO          ACCESS:          0 HIT:          0 MISS:          0
cpu3_DTLB PREFETCH     ACCESS:          0 HIT:          0 MISS:          0
cpu3_DTLB WRITE        ACCESS:          0 HIT:          0 MISS:          0
cpu3_DTLB TRANSLATION  ACCESS:          0 HIT:          0 MISS:          0
cpu3_DTLB PREFETCH REQUESTED:          0 ISSUED:          0 USEFUL:          0 USELESS:          0
cpu3_DTLB AVERAGE MISS LATENCY: 9.126 cycles
cpu3_ITLB TOTAL        ACCESS:          0 HIT:          0 MISS:          0
cpu3_ITLB LOAD         ACCESS:          0 HIT:          0 MISS:          0
cpu3_ITLB RFO          ACCESS:          0 HIT:          0 MISS:          0
cpu3_ITLB PREFETCH     ACCESS:          0 HIT:          0 MISS:          0
cpu3_ITLB WRITE        ACCESS:          0 HIT:          0 MISS:          0
cpu3_ITLB TRANSLATION  ACCESS:          0 HIT:          0 MISS:          0
cpu3_ITLB PREFETCH REQUESTED:          0 ISSUED:          0 USEFUL:          0 USELESS:          0
cpu3_ITLB AVERAGE MISS LATENCY: -nan cycles
cpu3_ITLB TOTAL        ACCESS:          0 HIT:          0 MISS:          0
cpu3_ITLB LOAD         ACCESS:          0 HIT:          0 MISS:          0
cpu3_ITLB RFO          ACCESS:          0 HIT:          0 MISS:          0
cpu3_ITLB PREFETCH     ACCESS:          0 HIT:          0 MISS:          0
cpu3_ITLB WRITE        ACCESS:          0 HIT:          0 MISS:          0
cpu3_ITLB TRANSLATION  ACCESS:          0 HIT:          0 MISS:          0
cpu3_ITLB PREFETCH REQUESTED:          0 ISSUED:          0 USEFUL:          0 USELESS:          0
cpu3_ITLB AVERAGE MISS LATENCY: -nan cycles
cpu3_ITLB TOTAL        ACCESS:          0 HIT:          0 MISS:          0
cpu3_ITLB LOAD         ACCESS:          0 HIT:          0 MISS:          0
cpu3_ITLB RFO          ACCESS:          0 HIT:          0 MISS:          0
cpu3_ITLB PREFETCH     ACCESS:          0 HIT:          0 MISS:          0
cpu3_ITLB WRITE        ACCESS:          0 HIT:          0 MISS:          0
cpu3_ITLB TRANSLATION  ACCESS:          0 HIT:          0 MISS:          0
cpu3_ITLB PREFETCH REQUESTED:          0 ISSUED:          0 USEFUL:          0 USELESS:          0
cpu3_ITLB AVERAGE MISS LATENCY: -nan cycles
cpu3_ITLB TOTAL        ACCESS:      47222 HIT:      47222 MISS:          0
cpu3_ITLB LOAD         ACCESS:      47222 HIT:      47222 MISS:          0
cpu3_ITLB RFO          ACCESS:          0 HIT:          0 MISS:          0
cpu3_ITLB PREFETCH     ACCESS:          0 HIT:          0 MISS:          0
cpu3_ITLB WRITE        ACCESS:          0 HIT:          0 MISS:          0
cpu3_ITLB TRANSLATION  ACCESS:          0 HIT:          0 MISS:          0
cpu3_ITLB PREFETCH REQUESTED:          0 ISSUED:          0 USEFUL:          0 USELESS:          0
cpu3_ITLB AVERAGE MISS LATENCY: -nan cycles
cpu3_L1D TOTAL        ACCESS:          0 HIT:          0 MISS:          0
cpu3_L1D LOAD         ACCESS:          0 HIT:          0 MISS:          0
cpu3_L1D RFO          ACCESS:          0 HIT:          0 MISS:          0
cpu3_L1D PREFETCH     ACCESS:          0 HIT:          0 MISS:          0
cpu3_L1D WRITE        ACCESS:          0 HIT:          0 MISS:          0
cpu3_L1D TRANSLATION  ACCESS:          0 HIT:          0 MISS:          0
cpu3_L1D PREFETCH REQUESTED:          0 ISSUED:          0 USEFUL:          0 USELESS:          0
cpu3_L1D AVERAGE MISS LATENCY: 71.71 cycles
cpu3_L1D TOTAL        ACCESS:          0 HIT:          0 MISS:          0
cpu3_L1D LOAD         ACCESS:          0 HIT:          0 MISS:          0
cpu3_L1D RFO          ACCESS:          0 HIT:          0 MISS:          0
cpu3_L1D PREFETCH     ACCESS:          0 HIT:          0 MISS:          0
cpu3_L1D WRITE        ACCESS:          0 HIT:          0 MISS:          0
cpu3_L1D TRANSLATION  ACCESS:          0 HIT:          0 MISS:          0
cpu3_L1D PREFETCH REQUESTED:          0 ISSUED:          0 USEFUL:          0 USELESS:          0
cpu3_L1D AVERAGE MISS LATENCY: 71.71 cycles
cpu3_L1D TOTAL        ACCESS:          0 HIT:          0 MISS:          0
cpu3_L1D LOAD         ACCESS:          0 HIT:          0 MISS:          0
cpu3_L1D RFO          ACCESS:          0 HIT:          0 MISS:          0
cpu3_L1D PREFETCH     ACCESS:          0 HIT:          0 MISS:          0
cpu3_L1D WRITE        ACCESS:          0 HIT:          0 MISS:          0
cpu3_L1D TRANSLATION  ACCESS:          0 HIT:          0 MISS:          0
cpu3_L1D PREFETCH REQUESTED:          0 ISSUED:          0 USEFUL:          0 USELESS:          0
cpu3_L1D AVERAGE MISS LATENCY: 71.71 cycles
cpu3_L1D TOTAL        ACCESS:   52519423 HIT:   45406484 MISS:    7112939
cpu3_L1D LOAD         ACCESS:   34794076 HIT:   29265947 MISS:    5528129
cpu3_L1D RFO          ACCESS:          0 HIT:          0 MISS:          0
cpu3_L1D PREFETCH     ACCESS:          0 HIT:          0 MISS:          0
cpu3_L1D WRITE        ACCESS:   17693937 HIT:   16126072 MISS:    1567865
cpu3_L1D TRANSLATION  ACCESS:      31410 HIT:      14465 MISS:      16945
cpu3_L1D PREFETCH REQUESTED:          0 ISSUED:          0 USEFUL:          0 USELESS:          0
cpu3_L1D AVERAGE MISS LATENCY: 71.71 cycles
cpu3_L1I TOTAL        ACCESS:          0 HIT:          0 MISS:          0
cpu3_L1I LOAD         ACCESS:          0 HIT:          0 MISS:          0
cpu3_L1I RFO          ACCESS:          0 HIT:          0 MISS:          0
cpu3_L1I PREFETCH     ACCESS:          0 HIT:          0 MISS:          0
cpu3_L1I WRITE        ACCESS:          0 HIT:          0 MISS:          0
cpu3_L1I TRANSLATION  ACCESS:          0 HIT:          0 MISS:          0
cpu3_L1I PREFETCH REQUESTED:          0 ISSUED:          0 USEFUL:          0 USELESS:          0
cpu3_L1I AVERAGE MISS LATENCY: 247.5 cycles
cpu3_L1I TOTAL        ACCESS:          0 HIT:          0 MISS:          0
cpu3_L1I LOAD         ACCESS:          0 HIT:          0 MISS:          0
cpu3_L1I RFO          ACCESS:          0 HIT:          0 MISS:          0
cpu3_L1I PREFETCH     ACCESS:          0 HIT:          0 MISS:          0
cpu3_L1I WRITE        ACCESS:          0 HIT:          0 MISS:          0
cpu3_L1I TRANSLATION  ACCESS:          0 HIT:          0 MISS:          0
cpu3_L1I PREFETCH REQUESTED:          0 ISSUED:          0 USEFUL:          0 USELESS:          0
cpu3_L1I AVERAGE MISS LATENCY: 247.5 cycles
cpu3_L1I TOTAL        ACCESS:          0 HIT:          0 MISS:          0
cpu3_L1I LOAD         ACCESS:          0 HIT:          0 MISS:          0
cpu3_L1I RFO          ACCESS:          0 HIT:          0 MISS:          0
cpu3_L1I PREFETCH     ACCESS:          0 HIT:          0 MISS:          0
cpu3_L1I WRITE        ACCESS:          0 HIT:          0 MISS:          0
cpu3_L1I TRANSLATION  ACCESS:          0 HIT:          0 MISS:          0
cpu3_L1I PREFETCH REQUESTED:          0 ISSUED:          0 USEFUL:          0 USELESS:          0
cpu3_L1I AVERAGE MISS LATENCY: 247.5 cycles
cpu3_L1I TOTAL        ACCESS:      53779 HIT:      53777 MISS:          2
cpu3_L1I LOAD         ACCESS:      53779 HIT:      53777 MISS:          2
cpu3_L1I RFO          ACCESS:          0 HIT:          0 MISS:          0
cpu3_L1I PREFETCH     ACCESS:          0 HIT:          0 MISS:          0
cpu3_L1I WRITE        ACCESS:          0 HIT:          0 MISS:          0
cpu3_L1I TRANSLATION  ACCESS:          0 HIT:          0 MISS:          0
cpu3_L1I PREFETCH REQUESTED:          0 ISSUED:          0 USEFUL:          0 USELESS:          0
cpu3_L1I AVERAGE MISS LATENCY: 247.5 cycles
cpu3_L2C TOTAL        ACCESS:          0 HIT:          0 MISS:          0
cpu3_L2C LOAD         ACCESS:          0 HIT:          0 MISS:          0
cpu3_L2C RFO          ACCESS:          0 HIT:          0 MISS:          0
cpu3_L2C PREFETCH     ACCESS:          0 HIT:          0 MISS:          0
cpu3_L2C WRITE        ACCESS:          0 HIT:          0 MISS:          0
cpu3_L2C TRANSLATION  ACCESS:          0 HIT:          0 MISS:          0
cpu3_L2C PREFETCH REQUESTED:    4707376 ISSUED:    4706908 USEFUL:     214233 USELESS:       6422
cpu3_L2C AVERAGE MISS LATENCY: 73.22 cycles
cpu3_L2C TOTAL        ACCESS:          0 HIT:          0 MISS:          0
cpu3_L2C LOAD         ACCESS:          0 HIT:          0 MISS:          0
cpu3_L2C RFO          ACCESS:          0 HIT:          0 MISS:          0
cpu3_L2C PREFETCH     ACCESS:          0 HIT:          0 MISS:          0
cpu3_L2C WRITE        ACCESS:          0 HIT:          0 MISS:          0
cpu3_L2C TRANSLATION  ACCESS:          0 HIT:          0 MISS:          0
cpu3_L2C PREFETCH REQUESTED:    4707376 ISSUED:    4706908 USEFUL:     214233 USELESS:       6422
cpu3_L2C AVERAGE MISS LATENCY: 73.22 cycles
cpu3_L2C TOTAL        ACCESS:          0 HIT:          0 MISS:          0
cpu3_L2C LOAD         ACCESS:          0 HIT:          0 MISS:          0
cpu3_L2C RFO          ACCESS:          0 HIT:          0 MISS:          0
cpu3_L2C PREFETCH     ACCESS:          0 HIT:          0 MISS:          0
cpu3_L2C WRITE        ACCESS:          0 HIT:          0 MISS:          0
cpu3_L2C TRANSLATION  ACCESS:          0 HIT:          0 MISS:          0
cpu3_L2C PREFETCH REQUESTED:    4707376 ISSUED:    4706908 USEFUL:     214233 USELESS:       6422
cpu3_L2C AVERAGE MISS LATENCY: 73.22 cycles
cpu3_L2C TOTAL        ACCESS:   10671538 HIT:    4023117 MISS:    6648421
cpu3_L2C LOAD         ACCESS:    4619119 HIT:    1768526 MISS:    2850593
cpu3_L2C RFO          ACCESS:     572927 HIT:     334315 MISS:     238612
cpu3_L2C PREFETCH     ACCESS:    4677657 HIT:    1132902 MISS:    3544755
cpu3_L2C WRITE        ACCESS:     784892 HIT:     784463 MISS:        429
cpu3_L2C TRANSLATION  ACCESS:      16943 HIT:       2911 MISS:      14032
cpu3_L2C PREFETCH REQUESTED:    4707376 ISSUED:    4706908 USEFUL:     214233 USELESS:       6422
cpu3_L2C AVERAGE MISS LATENCY: 73.22 cycles
cpu3_STLB TOTAL        ACCESS:          0 HIT:          0 MISS:          0
cpu3_STLB LOAD         ACCESS:          0 HIT:          0 MISS:          0
cpu3_STLB RFO          ACCESS:          0 HIT:          0 MISS:          0
cpu3_STLB PREFETCH     ACCESS:          0 HIT:          0 MISS:          0
cpu3_STLB WRITE        ACCESS:          0 HIT:          0 MISS:          0
cpu3_STLB TRANSLATION  ACCESS:          0 HIT:          0 MISS:          0
cpu3_STLB PREFETCH REQUESTED:          0 ISSUED:          0 USEFUL:          0 USELESS:          0
cpu3_STLB AVERAGE MISS LATENCY: 230.9 cycles
cpu3_STLB TOTAL        ACCESS:          0 HIT:          0 MISS:          0
cpu3_STLB LOAD         ACCESS:          0 HIT:          0 MISS:          0
cpu3_STLB RFO          ACCESS:          0 HIT:          0 MISS:          0
cpu3_STLB PREFETCH     ACCESS:          0 HIT:          0 MISS:          0
cpu3_STLB WRITE        ACCESS:          0 HIT:          0 MISS:          0
cpu3_STLB TRANSLATION  ACCESS:          0 HIT:          0 MISS:          0
cpu3_STLB PREFETCH REQUESTED:          0 ISSUED:          0 USEFUL:          0 USELESS:          0
cpu3_STLB AVERAGE MISS LATENCY: 230.9 cycles
cpu3_STLB TOTAL        ACCESS:          0 HIT:          0 MISS:          0
cpu3_STLB LOAD         ACCESS:          0 HIT:          0 MISS:          0
cpu3_STLB RFO          ACCESS:          0 HIT:          0 MISS:          0
cpu3_STLB PREFETCH     ACCESS:          0 HIT:          0 MISS:          0
cpu3_STLB WRITE        ACCESS:          0 HIT:          0 MISS:          0
cpu3_STLB TRANSLATION  ACCESS:          0 HIT:          0 MISS:          0
cpu3_STLB PREFETCH REQUESTED:          0 ISSUED:          0 USEFUL:          0 USELESS:          0
cpu3_STLB AVERAGE MISS LATENCY: 230.9 cycles
cpu3_STLB TOTAL        ACCESS:    2225413 HIT:    2194241 MISS:      31172
cpu3_STLB LOAD         ACCESS:    2225413 HIT:    2194241 MISS:      31172
cpu3_STLB RFO          ACCESS:          0 HIT:          0 MISS:          0
cpu3_STLB PREFETCH     ACCESS:          0 HIT:          0 MISS:          0
cpu3_STLB WRITE        ACCESS:          0 HIT:          0 MISS:          0
cpu3_STLB TRANSLATION  ACCESS:          0 HIT:          0 MISS:          0
cpu3_STLB PREFETCH REQUESTED:          0 ISSUED:          0 USEFUL:          0 USELESS:          0
cpu3_STLB AVERAGE MISS LATENCY: 230.9 cycles

DRAM Statistics

Channel 0 RQ ROW_BUFFER_HIT:    1465443
  ROW_BUFFER_MISS:    3896999
 AVG DBUS CONGESTED CYCLE: 3.938
WQ ROW_BUFFER_HIT: Channel 0 
  ROW_BUFFER_MISS:      54427
  FULL:     945712

Channel 1 RQ ROW_BUFFER_HIT:    1477130
  ROW_BUFFER_MISS:    3873570
 AVG DBUS CONGESTED CYCLE: 3.939
WQ ROW_BUFFER_HIT: Channel 1 
  ROW_BUFFER_MISS:      53779
  FULL:     945874
