Original cmd-> /home/grads/r/rdas40/ECEN676/ChampSim/bin/multi_core/spp_2ch --warmup_instructions=50000000 --simulation_instructions=150000000  /home/grads/r/rdas40/dpc3_traces/644.nab_s-5853B.champsimtrace.xz /home/grads/r/rdas40/dpc3_traces/649.fotonik3d_s-1176B.champsimtrace.xz /home/grads/r/rdas40/dpc3_traces/623.xalancbmk_s-700B.champsimtrace.xz /home/grads/r/rdas40/dpc3_traces/621.wrf_s-575B.champsimtrace.xz
WARNING: physical memory size is smaller than virtual memory size.
WARNING: option --warmup_instructions is deprecated. Use --warmup-instructions instead.
WARNING: option --simulation_instructions is deprecated. Use --simulation-instructions instead.

*** ChampSim Multicore Out-of-Order Simulator ***
Warmup Instructions: 50000000
Simulation Instructions: 150000000
Number of CPUs: 4
Page size: 4096

Initialize SIGNATURE TABLE
ST_SET: 1
ST_WAY: 256
ST_TAG_BIT: 16
ST_TAG_MASK: ffff

Initialize PATTERN TABLE
PT_SET: 512
PT_WAY: 4
SIG_DELTA_BIT: 7
C_SIG_BIT: 4
C_DELTA_BIT: 4

Initialize PREFETCH FILTER
FILTER_SET: 1024
Initialize SIGNATURE TABLE
ST_SET: 1
ST_WAY: 256
ST_TAG_BIT: 16
ST_TAG_MASK: ffff

Initialize PATTERN TABLE
PT_SET: 512
PT_WAY: 4
SIG_DELTA_BIT: 7
C_SIG_BIT: 4
C_DELTA_BIT: 4

Initialize PREFETCH FILTER
FILTER_SET: 1024
Initialize SIGNATURE TABLE
ST_SET: 1
ST_WAY: 256
ST_TAG_BIT: 16
ST_TAG_MASK: ffff

Initialize PATTERN TABLE
PT_SET: 512
PT_WAY: 4
SIG_DELTA_BIT: 7
C_SIG_BIT: 4
C_DELTA_BIT: 4

Initialize PREFETCH FILTER
FILTER_SET: 1024
Initialize SIGNATURE TABLE
ST_SET: 1
ST_WAY: 256
ST_TAG_BIT: 16
ST_TAG_MASK: ffff

Initialize PATTERN TABLE
PT_SET: 512
PT_WAY: 4
SIG_DELTA_BIT: 7
C_SIG_BIT: 4
C_DELTA_BIT: 4

Initialize PREFETCH FILTER
FILTER_SET: 1024
Off-chip DRAM Size: 8 GiB Channels: 2 Width: 64-bit Data Race: 3200 MT/s
Heartbeat CPU 1 instructions: 10000000 cycles: 2500043 heartbeat IPC: 4 cumulative IPC: 4 (Simulation time: 00 hr 03 min 01 sec)
Heartbeat CPU 3 instructions: 10000000 cycles: 2502745 heartbeat IPC: 3.996 cumulative IPC: 3.996 (Simulation time: 00 hr 03 min 02 sec)
Heartbeat CPU 2 instructions: 10000001 cycles: 3064055 heartbeat IPC: 3.264 cumulative IPC: 3.264 (Simulation time: 00 hr 03 min 42 sec)
Heartbeat CPU 0 instructions: 10000001 cycles: 3458251 heartbeat IPC: 2.892 cumulative IPC: 2.892 (Simulation time: 00 hr 04 min 10 sec)
Heartbeat CPU 1 instructions: 20000000 cycles: 5000043 heartbeat IPC: 4 cumulative IPC: 4 (Simulation time: 00 hr 06 min 01 sec)
Heartbeat CPU 3 instructions: 20000000 cycles: 5005445 heartbeat IPC: 3.996 cumulative IPC: 3.996 (Simulation time: 00 hr 06 min 01 sec)
Heartbeat CPU 2 instructions: 20000002 cycles: 5748881 heartbeat IPC: 3.725 cumulative IPC: 3.479 (Simulation time: 00 hr 06 min 55 sec)
Heartbeat CPU 0 instructions: 20000001 cycles: 6910076 heartbeat IPC: 2.897 cumulative IPC: 2.894 (Simulation time: 00 hr 08 min 22 sec)
Heartbeat CPU 1 instructions: 30000000 cycles: 7500043 heartbeat IPC: 4 cumulative IPC: 4 (Simulation time: 00 hr 09 min 05 sec)
Heartbeat CPU 3 instructions: 30000003 cycles: 7507721 heartbeat IPC: 3.996 cumulative IPC: 3.996 (Simulation time: 00 hr 09 min 06 sec)
Heartbeat CPU 2 instructions: 30000001 cycles: 8967444 heartbeat IPC: 3.107 cumulative IPC: 3.345 (Simulation time: 00 hr 10 min 53 sec)
Heartbeat CPU 1 instructions: 40000000 cycles: 10000043 heartbeat IPC: 4 cumulative IPC: 4 (Simulation time: 00 hr 12 min 10 sec)
Heartbeat CPU 3 instructions: 40000001 cycles: 10010444 heartbeat IPC: 3.996 cumulative IPC: 3.996 (Simulation time: 00 hr 12 min 10 sec)
Heartbeat CPU 0 instructions: 30000001 cycles: 10367031 heartbeat IPC: 2.893 cumulative IPC: 2.894 (Simulation time: 00 hr 12 min 37 sec)
Heartbeat CPU 2 instructions: 40000004 cycles: 12221168 heartbeat IPC: 3.073 cumulative IPC: 3.273 (Simulation time: 00 hr 14 min 53 sec)
Heartbeat CPU 1 instructions: 50000000 cycles: 12500043 heartbeat IPC: 4 cumulative IPC: 4 (Simulation time: 00 hr 15 min 13 sec)
Warmup finished CPU 1 instructions: 50000000 cycles: 12500044 cumulative IPC: 4 (Simulation time: 00 hr 15 min 13 sec)
Heartbeat CPU 3 instructions: 50000001 cycles: 12513163 heartbeat IPC: 3.996 cumulative IPC: 3.996 (Simulation time: 00 hr 15 min 14 sec)
Warmup finished CPU 3 instructions: 50000001 cycles: 12513164 cumulative IPC: 3.996 (Simulation time: 00 hr 15 min 14 sec)
Heartbeat CPU 0 instructions: 40000004 cycles: 13796536 heartbeat IPC: 2.916 cumulative IPC: 2.899 (Simulation time: 00 hr 16 min 48 sec)
Heartbeat CPU 1 instructions: 60000000 cycles: 15000043 heartbeat IPC: 4 cumulative IPC: 4 (Simulation time: 00 hr 18 min 16 sec)
Heartbeat CPU 3 instructions: 60000002 cycles: 15015854 heartbeat IPC: 3.996 cumulative IPC: 3.996 (Simulation time: 00 hr 18 min 17 sec)
Heartbeat CPU 2 instructions: 50000000 cycles: 15374914 heartbeat IPC: 3.171 cumulative IPC: 3.252 (Simulation time: 00 hr 18 min 44 sec)
Warmup finished CPU 2 instructions: 50000000 cycles: 15374915 cumulative IPC: 3.252 (Simulation time: 00 hr 18 min 44 sec)
Heartbeat CPU 0 instructions: 50000002 cycles: 17224639 heartbeat IPC: 2.917 cumulative IPC: 2.903 (Simulation time: 00 hr 20 min 57 sec)
Warmup finished CPU 0 instructions: 50000002 cycles: 17224640 cumulative IPC: 2.903 (Simulation time: 00 hr 20 min 57 sec)
Warmup complete CPU 0 instructions: 50000002 cycles: 17224640 cumulative IPC: 2.903 (Simulation time: 00 hr 20 min 57 sec)
Warmup complete CPU 1 instructions: 68898384 cycles: 17224640 cumulative IPC: 4 (Simulation time: 00 hr 20 min 57 sec)
Warmup complete CPU 2 instructions: 56754502 cycles: 17224640 cumulative IPC: 3.295 (Simulation time: 00 hr 20 min 57 sec)
Warmup complete CPU 3 instructions: 68824885 cycles: 17224640 cumulative IPC: 3.996 (Simulation time: 00 hr 20 min 57 sec)
Heartbeat CPU 3 instructions: 70000000 cycles: 17787040 heartbeat IPC: 3.609 cumulative IPC: 2.089 (Simulation time: 00 hr 21 min 33 sec)
Heartbeat CPU 1 instructions: 70000004 cycles: 17806753 heartbeat IPC: 3.563 cumulative IPC: 1.892 (Simulation time: 00 hr 21 min 34 sec)
Heartbeat CPU 2 instructions: 60000003 cycles: 18875158 heartbeat IPC: 2.857 cumulative IPC: 1.966 (Simulation time: 00 hr 22 min 43 sec)
Heartbeat CPU 0 instructions: 60000001 cycles: 20785265 heartbeat IPC: 2.808 cumulative IPC: 2.808 (Simulation time: 00 hr 24 min 44 sec)
Heartbeat CPU 3 instructions: 80000001 cycles: 22482493 heartbeat IPC: 2.13 cumulative IPC: 2.125 (Simulation time: 00 hr 26 min 32 sec)
Heartbeat CPU 1 instructions: 80000000 cycles: 23526758 heartbeat IPC: 1.748 cumulative IPC: 1.762 (Simulation time: 00 hr 27 min 36 sec)
Heartbeat CPU 0 instructions: 70000000 cycles: 24381844 heartbeat IPC: 2.78 cumulative IPC: 2.794 (Simulation time: 00 hr 28 min 28 sec)
Heartbeat CPU 2 instructions: 70000001 cycles: 24661876 heartbeat IPC: 1.728 cumulative IPC: 1.781 (Simulation time: 00 hr 28 min 46 sec)
Heartbeat CPU 3 instructions: 90000002 cycles: 27195448 heartbeat IPC: 2.122 cumulative IPC: 2.124 (Simulation time: 00 hr 31 min 02 sec)
Heartbeat CPU 0 instructions: 80000003 cycles: 28887012 heartbeat IPC: 2.22 cumulative IPC: 2.572 (Simulation time: 00 hr 32 min 39 sec)
Heartbeat CPU 1 instructions: 90000003 cycles: 29447906 heartbeat IPC: 1.689 cumulative IPC: 1.726 (Simulation time: 00 hr 33 min 11 sec)
Heartbeat CPU 3 instructions: 100000000 cycles: 31908835 heartbeat IPC: 2.122 cumulative IPC: 2.123 (Simulation time: 00 hr 35 min 29 sec)
Heartbeat CPU 2 instructions: 80000001 cycles: 32576571 heartbeat IPC: 1.263 cumulative IPC: 1.514 (Simulation time: 00 hr 36 min 08 sec)
Heartbeat CPU 0 instructions: 90000002 cycles: 33709799 heartbeat IPC: 2.073 cumulative IPC: 2.426 (Simulation time: 00 hr 37 min 13 sec)
Heartbeat CPU 1 instructions: 100000002 cycles: 34967261 heartbeat IPC: 1.812 cumulative IPC: 1.753 (Simulation time: 00 hr 38 min 24 sec)
Heartbeat CPU 3 instructions: 110000001 cycles: 36609148 heartbeat IPC: 2.128 cumulative IPC: 2.124 (Simulation time: 00 hr 39 min 57 sec)
Heartbeat CPU 0 instructions: 100000000 cycles: 38906101 heartbeat IPC: 1.924 cumulative IPC: 2.306 (Simulation time: 00 hr 42 min 07 sec)
Heartbeat CPU 2 instructions: 90000001 cycles: 39019354 heartbeat IPC: 1.552 cumulative IPC: 1.525 (Simulation time: 00 hr 42 min 14 sec)
Heartbeat CPU 1 instructions: 110000001 cycles: 40475617 heartbeat IPC: 1.815 cumulative IPC: 1.768 (Simulation time: 00 hr 43 min 29 sec)
Heartbeat CPU 3 instructions: 120000000 cycles: 41230906 heartbeat IPC: 2.164 cumulative IPC: 2.132 (Simulation time: 00 hr 44 min 10 sec)
Heartbeat CPU 0 instructions: 110000003 cycles: 43938567 heartbeat IPC: 1.987 cumulative IPC: 2.246 (Simulation time: 00 hr 46 min 44 sec)
Heartbeat CPU 3 instructions: 130000002 cycles: 45885319 heartbeat IPC: 2.148 cumulative IPC: 2.134 (Simulation time: 00 hr 48 min 31 sec)
Heartbeat CPU 1 instructions: 120000004 cycles: 46506306 heartbeat IPC: 1.658 cumulative IPC: 1.745 (Simulation time: 00 hr 49 min 06 sec)
Heartbeat CPU 2 instructions: 100000002 cycles: 46541047 heartbeat IPC: 1.329 cumulative IPC: 1.475 (Simulation time: 00 hr 49 min 07 sec)
Heartbeat CPU 0 instructions: 120000000 cycles: 48590487 heartbeat IPC: 2.15 cumulative IPC: 2.232 (Simulation time: 00 hr 51 min 02 sec)
Heartbeat CPU 3 instructions: 140000000 cycles: 50560199 heartbeat IPC: 2.139 cumulative IPC: 2.135 (Simulation time: 00 hr 52 min 55 sec)
Heartbeat CPU 1 instructions: 130000002 cycles: 52243955 heartbeat IPC: 1.743 cumulative IPC: 1.745 (Simulation time: 00 hr 54 min 31 sec)
Heartbeat CPU 0 instructions: 130000001 cycles: 53217629 heartbeat IPC: 2.161 cumulative IPC: 2.223 (Simulation time: 00 hr 55 min 26 sec)
Heartbeat CPU 2 instructions: 110000004 cycles: 53219000 heartbeat IPC: 1.497 cumulative IPC: 1.479 (Simulation time: 00 hr 55 min 26 sec)
Heartbeat CPU 3 instructions: 150000004 cycles: 55167175 heartbeat IPC: 2.171 cumulative IPC: 2.139 (Simulation time: 00 hr 57 min 17 sec)
Heartbeat CPU 0 instructions: 140000000 cycles: 57953068 heartbeat IPC: 2.112 cumulative IPC: 2.21 (Simulation time: 00 hr 59 min 53 sec)
Heartbeat CPU 1 instructions: 140000002 cycles: 58039302 heartbeat IPC: 1.726 cumulative IPC: 1.742 (Simulation time: 00 hr 59 min 58 sec)
Heartbeat CPU 2 instructions: 120000000 cycles: 59705923 heartbeat IPC: 1.542 cumulative IPC: 1.489 (Simulation time: 01 hr 01 min 32 sec)
Heartbeat CPU 3 instructions: 160000003 cycles: 59774045 heartbeat IPC: 2.171 cumulative IPC: 2.143 (Simulation time: 01 hr 01 min 36 sec)
Heartbeat CPU 0 instructions: 150000003 cycles: 62696186 heartbeat IPC: 2.108 cumulative IPC: 2.199 (Simulation time: 01 hr 04 min 20 sec)
Heartbeat CPU 1 instructions: 150000004 cycles: 64151278 heartbeat IPC: 1.636 cumulative IPC: 1.728 (Simulation time: 01 hr 05 min 49 sec)
Heartbeat CPU 3 instructions: 170000003 cycles: 64378733 heartbeat IPC: 2.172 cumulative IPC: 2.146 (Simulation time: 01 hr 06 min 03 sec)
Heartbeat CPU 2 instructions: 130000001 cycles: 65204279 heartbeat IPC: 1.819 cumulative IPC: 1.527 (Simulation time: 01 hr 06 min 52 sec)
Heartbeat CPU 0 instructions: 160000000 cycles: 67468510 heartbeat IPC: 2.095 cumulative IPC: 2.189 (Simulation time: 01 hr 09 min 07 sec)
Heartbeat CPU 3 instructions: 180000004 cycles: 68980055 heartbeat IPC: 2.173 cumulative IPC: 2.148 (Simulation time: 01 hr 10 min 35 sec)
Heartbeat CPU 1 instructions: 160000003 cycles: 69915730 heartbeat IPC: 1.735 cumulative IPC: 1.729 (Simulation time: 01 hr 11 min 30 sec)
Heartbeat CPU 2 instructions: 140000000 cycles: 70844968 heartbeat IPC: 1.773 cumulative IPC: 1.552 (Simulation time: 01 hr 12 min 24 sec)
Heartbeat CPU 0 instructions: 170000003 cycles: 72212936 heartbeat IPC: 2.108 cumulative IPC: 2.182 (Simulation time: 01 hr 13 min 37 sec)
Heartbeat CPU 3 instructions: 190000002 cycles: 73593828 heartbeat IPC: 2.167 cumulative IPC: 2.15 (Simulation time: 01 hr 14 min 49 sec)
Heartbeat CPU 1 instructions: 170000003 cycles: 76062711 heartbeat IPC: 1.627 cumulative IPC: 1.718 (Simulation time: 01 hr 17 min 06 sec)
Heartbeat CPU 0 instructions: 180000002 cycles: 76972005 heartbeat IPC: 2.101 cumulative IPC: 2.176 (Simulation time: 01 hr 17 min 58 sec)
Heartbeat CPU 3 instructions: 200000000 cycles: 78215275 heartbeat IPC: 2.164 cumulative IPC: 2.151 (Simulation time: 01 hr 19 min 10 sec)
Heartbeat CPU 2 instructions: 150000004 cycles: 78716731 heartbeat IPC: 1.27 cumulative IPC: 1.516 (Simulation time: 01 hr 19 min 38 sec)
Heartbeat CPU 1 instructions: 180000002 cycles: 81473158 heartbeat IPC: 1.848 cumulative IPC: 1.729 (Simulation time: 01 hr 22 min 12 sec)
Heartbeat CPU 0 instructions: 190000000 cycles: 81719104 heartbeat IPC: 2.107 cumulative IPC: 2.171 (Simulation time: 01 hr 22 min 27 sec)
Heartbeat CPU 3 instructions: 210000000 cycles: 82792175 heartbeat IPC: 2.185 cumulative IPC: 2.153 (Simulation time: 01 hr 23 min 33 sec)
Heartbeat CPU 2 instructions: 160000002 cycles: 85809645 heartbeat IPC: 1.41 cumulative IPC: 1.505 (Simulation time: 01 hr 26 min 20 sec)
Heartbeat CPU 0 instructions: 200000004 cycles: 86466363 heartbeat IPC: 2.106 cumulative IPC: 2.166 (Simulation time: 01 hr 26 min 58 sec)
Simulation finished CPU 0 instructions: 150000002 cycles: 69241724 cumulative IPC: 2.166 (Simulation time: 01 hr 26 min 58 sec)
Simulation finished CPU 3 instructions: 150000000 cycles: 69611090 cumulative IPC: 2.155 (Simulation time: 01 hr 27 min 19 sec)
Heartbeat CPU 1 instructions: 190000001 cycles: 87075152 heartbeat IPC: 1.785 cumulative IPC: 1.734 (Simulation time: 01 hr 27 min 32 sec)
Heartbeat CPU 3 instructions: 220000000 cycles: 87359343 heartbeat IPC: 2.19 cumulative IPC: 2.155 (Simulation time: 01 hr 27 min 48 sec)
Heartbeat CPU 0 instructions: 210000003 cycles: 91222311 heartbeat IPC: 2.103 cumulative IPC: 2.162 (Simulation time: 01 hr 31 min 29 sec)
Heartbeat CPU 3 instructions: 230000001 cycles: 91945371 heartbeat IPC: 2.181 cumulative IPC: 2.157 (Simulation time: 01 hr 32 min 09 sec)
Heartbeat CPU 2 instructions: 170000004 cycles: 92451534 heartbeat IPC: 1.506 cumulative IPC: 1.505 (Simulation time: 01 hr 32 min 37 sec)
Heartbeat CPU 1 instructions: 200000004 cycles: 92869056 heartbeat IPC: 1.726 cumulative IPC: 1.733 (Simulation time: 01 hr 33 min 00 sec)
Heartbeat CPU 0 instructions: 220000004 cycles: 95874016 heartbeat IPC: 2.15 cumulative IPC: 2.161 (Simulation time: 01 hr 35 min 48 sec)
Heartbeat CPU 3 instructions: 240000000 cycles: 96557240 heartbeat IPC: 2.168 cumulative IPC: 2.158 (Simulation time: 01 hr 36 min 27 sec)
Heartbeat CPU 1 instructions: 210000004 cycles: 98859164 heartbeat IPC: 1.669 cumulative IPC: 1.728 (Simulation time: 01 hr 38 min 38 sec)
Heartbeat CPU 2 instructions: 180000002 cycles: 99114711 heartbeat IPC: 1.501 cumulative IPC: 1.505 (Simulation time: 01 hr 38 min 52 sec)
Heartbeat CPU 0 instructions: 230000002 cycles: 100500267 heartbeat IPC: 2.162 cumulative IPC: 2.161 (Simulation time: 01 hr 40 min 11 sec)
Heartbeat CPU 3 instructions: 250000002 cycles: 101176830 heartbeat IPC: 2.165 cumulative IPC: 2.158 (Simulation time: 01 hr 40 min 49 sec)
Simulation finished CPU 1 instructions: 150000000 cycles: 87295661 cumulative IPC: 1.718 (Simulation time: 01 hr 43 min 57 sec)
Heartbeat CPU 0 instructions: 240000002 cycles: 105163074 heartbeat IPC: 2.145 cumulative IPC: 2.161 (Simulation time: 01 hr 44 min 33 sec)
Heartbeat CPU 1 instructions: 220000000 cycles: 105213209 heartbeat IPC: 1.574 cumulative IPC: 1.717 (Simulation time: 01 hr 44 min 36 sec)
Heartbeat CPU 2 instructions: 190000001 cycles: 105611104 heartbeat IPC: 1.539 cumulative IPC: 1.508 (Simulation time: 01 hr 44 min 58 sec)
Heartbeat CPU 3 instructions: 260000000 cycles: 105821664 heartbeat IPC: 2.153 cumulative IPC: 2.158 (Simulation time: 01 hr 45 min 10 sec)
Heartbeat CPU 0 instructions: 250000000 cycles: 109754699 heartbeat IPC: 2.178 cumulative IPC: 2.161 (Simulation time: 01 hr 48 min 56 sec)
Heartbeat CPU 3 instructions: 270000000 cycles: 110453032 heartbeat IPC: 2.159 cumulative IPC: 2.158 (Simulation time: 01 hr 49 min 32 sec)
Heartbeat CPU 1 instructions: 230000000 cycles: 111438139 heartbeat IPC: 1.606 cumulative IPC: 1.71 (Simulation time: 01 hr 50 min 35 sec)
Heartbeat CPU 2 instructions: 200000002 cycles: 111590313 heartbeat IPC: 1.672 cumulative IPC: 1.518 (Simulation time: 01 hr 50 min 44 sec)
Heartbeat CPU 0 instructions: 260000003 cycles: 114467404 heartbeat IPC: 2.122 cumulative IPC: 2.16 (Simulation time: 01 hr 53 min 38 sec)
Simulation finished CPU 2 instructions: 150000000 cycles: 97813135 cumulative IPC: 1.534 (Simulation time: 01 hr 54 min 12 sec)
Simulation complete CPU 0 instructions: 211206243 cycles: 97813135 cumulative IPC: 2.159 (Simulation time: 01 hr 54 min 12 sec)
Simulation complete CPU 1 instructions: 167735026 cycles: 97813135 cumulative IPC: 1.715 (Simulation time: 01 hr 54 min 12 sec)
Simulation complete CPU 2 instructions: 150000000 cycles: 97813135 cumulative IPC: 1.534 (Simulation time: 01 hr 54 min 12 sec)
Simulation complete CPU 3 instructions: 211072151 cycles: 97813135 cumulative IPC: 2.158 (Simulation time: 01 hr 54 min 12 sec)

ChampSim completed all CPUs

=== Simulation ===
CPU 0 runs /home/grads/r/rdas40/dpc3_traces/644.nab_s-5853B.champsimtrace.xzCPU 1 runs /home/grads/r/rdas40/dpc3_traces/649.fotonik3d_s-1176B.champsimtrace.xzCPU 2 runs /home/grads/r/rdas40/dpc3_traces/623.xalancbmk_s-700B.champsimtrace.xzCPU 3 runs /home/grads/r/rdas40/dpc3_traces/621.wrf_s-575B.champsimtrace.xz
Total Simulation Statistics (not including warmup)

CPU 0 cumulative IPC: 2.159 instructions: 211206243 cycles: 97813135
CPU 0 Branch Prediction Accuracy: 85.85% MPKI: 13.7 Average ROB Occupancy at Mispredict: 100.5
Branch type MPKI
BRANCH_DIRECT_JUMP: 9.94e-05
BRANCH_INDIRECT: 4.73e-06
BRANCH_CONDITIONAL: 8.17
BRANCH_DIRECT_CALL: 0
BRANCH_INDIRECT_CALL: 0
BRANCH_RETURN: 5.53


CPU 1 cumulative IPC: 1.715 instructions: 167735026 cycles: 97813135
CPU 1 Branch Prediction Accuracy: 99.98% MPKI: 0.004382 Average ROB Occupancy at Mispredict: 352
Branch type MPKI
BRANCH_DIRECT_JUMP: 0
BRANCH_INDIRECT: 0
BRANCH_CONDITIONAL: 0.00438
BRANCH_DIRECT_CALL: 0
BRANCH_INDIRECT_CALL: 0
BRANCH_RETURN: 0


CPU 2 cumulative IPC: 1.534 instructions: 150000000 cycles: 97813135
CPU 2 Branch Prediction Accuracy: 96.96% MPKI: 8.474 Average ROB Occupancy at Mispredict: 39.47
Branch type MPKI
BRANCH_DIRECT_JUMP: 0.12
BRANCH_INDIRECT: 0.36
BRANCH_CONDITIONAL: 6.02
BRANCH_DIRECT_CALL: 0.000787
BRANCH_INDIRECT_CALL: 0.409
BRANCH_RETURN: 1.56


CPU 3 cumulative IPC: 2.158 instructions: 211072151 cycles: 97813135
CPU 3 Branch Prediction Accuracy: 94.95% MPKI: 6.762 Average ROB Occupancy at Mispredict: 79.6
Branch type MPKI
BRANCH_DIRECT_JUMP: 0
BRANCH_INDIRECT: 0
BRANCH_CONDITIONAL: 6.74
BRANCH_DIRECT_CALL: 0
BRANCH_INDIRECT_CALL: 0
BRANCH_RETURN: 0.0173

LLC TOTAL        ACCESS:     214243 HIT:     162776 MISS:      51467
LLC LOAD         ACCESS:      25693 HIT:      20363 MISS:       5330
LLC RFO          ACCESS:         41 HIT:          4 MISS:         37
LLC PREFETCH     ACCESS:     186949 HIT:     142361 MISS:      44588
LLC WRITE        ACCESS:       1060 HIT:         46 MISS:       1014
LLC TRANSLATION  ACCESS:        500 HIT:          2 MISS:        498
LLC PREFETCH REQUESTED:          0 ISSUED:          0 USEFUL:          0 USELESS:          0
LLC AVERAGE MISS LATENCY: 109.6 cycles
LLC TOTAL        ACCESS:    8201105 HIT:    2904951 MISS:    5296154
LLC LOAD         ACCESS:     590643 HIT:     227722 MISS:     362921
LLC RFO          ACCESS:          8 HIT:          8 MISS:          0
LLC PREFETCH     ACCESS:    6139963 HIT:    1206867 MISS:    4933096
LLC WRITE        ACCESS:    1470254 HIT:    1470247 MISS:          7
LLC TRANSLATION  ACCESS:        237 HIT:        107 MISS:        130
LLC PREFETCH REQUESTED:          0 ISSUED:          0 USEFUL:          0 USELESS:          0
LLC AVERAGE MISS LATENCY: 109.6 cycles
LLC TOTAL        ACCESS:    3964978 HIT:    3658919 MISS:     306059
LLC LOAD         ACCESS:     318608 HIT:     272634 MISS:      45974
LLC RFO          ACCESS:     148319 HIT:      21762 MISS:     126557
LLC PREFETCH     ACCESS:    3274928 HIT:    3157380 MISS:     117548
LLC WRITE        ACCESS:     191411 HIT:     187315 MISS:       4096
LLC TRANSLATION  ACCESS:      31712 HIT:      19828 MISS:      11884
LLC PREFETCH REQUESTED:          0 ISSUED:          0 USEFUL:          0 USELESS:          0
LLC AVERAGE MISS LATENCY: 109.6 cycles
LLC TOTAL        ACCESS:      10549 HIT:       1933 MISS:       8616
LLC LOAD         ACCESS:       2159 HIT:        917 MISS:       1242
LLC RFO          ACCESS:       3633 HIT:         90 MISS:       3543
LLC PREFETCH     ACCESS:       3999 HIT:        926 MISS:       3073
LLC WRITE        ACCESS:        615 HIT:          0 MISS:        615
LLC TRANSLATION  ACCESS:        143 HIT:          0 MISS:        143
LLC PREFETCH REQUESTED:          0 ISSUED:          0 USEFUL:          0 USELESS:          0
LLC AVERAGE MISS LATENCY: 109.6 cycles
cpu0_DTLB TOTAL        ACCESS:   42986020 HIT:   42904987 MISS:      81033
cpu0_DTLB LOAD         ACCESS:   42986020 HIT:   42904987 MISS:      81033
cpu0_DTLB RFO          ACCESS:          0 HIT:          0 MISS:          0
cpu0_DTLB PREFETCH     ACCESS:          0 HIT:          0 MISS:          0
cpu0_DTLB WRITE        ACCESS:          0 HIT:          0 MISS:          0
cpu0_DTLB TRANSLATION  ACCESS:          0 HIT:          0 MISS:          0
cpu0_DTLB PREFETCH REQUESTED:          0 ISSUED:          0 USEFUL:          0 USELESS:          0
cpu0_DTLB AVERAGE MISS LATENCY: 13.31 cycles
cpu0_DTLB TOTAL        ACCESS:          0 HIT:          0 MISS:          0
cpu0_DTLB LOAD         ACCESS:          0 HIT:          0 MISS:          0
cpu0_DTLB RFO          ACCESS:          0 HIT:          0 MISS:          0
cpu0_DTLB PREFETCH     ACCESS:          0 HIT:          0 MISS:          0
cpu0_DTLB WRITE        ACCESS:          0 HIT:          0 MISS:          0
cpu0_DTLB TRANSLATION  ACCESS:          0 HIT:          0 MISS:          0
cpu0_DTLB PREFETCH REQUESTED:          0 ISSUED:          0 USEFUL:          0 USELESS:          0
cpu0_DTLB AVERAGE MISS LATENCY: 13.31 cycles
cpu0_DTLB TOTAL        ACCESS:          0 HIT:          0 MISS:          0
cpu0_DTLB LOAD         ACCESS:          0 HIT:          0 MISS:          0
cpu0_DTLB RFO          ACCESS:          0 HIT:          0 MISS:          0
cpu0_DTLB PREFETCH     ACCESS:          0 HIT:          0 MISS:          0
cpu0_DTLB WRITE        ACCESS:          0 HIT:          0 MISS:          0
cpu0_DTLB TRANSLATION  ACCESS:          0 HIT:          0 MISS:          0
cpu0_DTLB PREFETCH REQUESTED:          0 ISSUED:          0 USEFUL:          0 USELESS:          0
cpu0_DTLB AVERAGE MISS LATENCY: 13.31 cycles
cpu0_DTLB TOTAL        ACCESS:          0 HIT:          0 MISS:          0
cpu0_DTLB LOAD         ACCESS:          0 HIT:          0 MISS:          0
cpu0_DTLB RFO          ACCESS:          0 HIT:          0 MISS:          0
cpu0_DTLB PREFETCH     ACCESS:          0 HIT:          0 MISS:          0
cpu0_DTLB WRITE        ACCESS:          0 HIT:          0 MISS:          0
cpu0_DTLB TRANSLATION  ACCESS:          0 HIT:          0 MISS:          0
cpu0_DTLB PREFETCH REQUESTED:          0 ISSUED:          0 USEFUL:          0 USELESS:          0
cpu0_DTLB AVERAGE MISS LATENCY: 13.31 cycles
cpu0_ITLB TOTAL        ACCESS:       1700 HIT:       1700 MISS:          0
cpu0_ITLB LOAD         ACCESS:       1700 HIT:       1700 MISS:          0
cpu0_ITLB RFO          ACCESS:          0 HIT:          0 MISS:          0
cpu0_ITLB PREFETCH     ACCESS:          0 HIT:          0 MISS:          0
cpu0_ITLB WRITE        ACCESS:          0 HIT:          0 MISS:          0
cpu0_ITLB TRANSLATION  ACCESS:          0 HIT:          0 MISS:          0
cpu0_ITLB PREFETCH REQUESTED:          0 ISSUED:          0 USEFUL:          0 USELESS:          0
cpu0_ITLB AVERAGE MISS LATENCY: -nan cycles
cpu0_ITLB TOTAL        ACCESS:          0 HIT:          0 MISS:          0
cpu0_ITLB LOAD         ACCESS:          0 HIT:          0 MISS:          0
cpu0_ITLB RFO          ACCESS:          0 HIT:          0 MISS:          0
cpu0_ITLB PREFETCH     ACCESS:          0 HIT:          0 MISS:          0
cpu0_ITLB WRITE        ACCESS:          0 HIT:          0 MISS:          0
cpu0_ITLB TRANSLATION  ACCESS:          0 HIT:          0 MISS:          0
cpu0_ITLB PREFETCH REQUESTED:          0 ISSUED:          0 USEFUL:          0 USELESS:          0
cpu0_ITLB AVERAGE MISS LATENCY: -nan cycles
cpu0_ITLB TOTAL        ACCESS:          0 HIT:          0 MISS:          0
cpu0_ITLB LOAD         ACCESS:          0 HIT:          0 MISS:          0
cpu0_ITLB RFO          ACCESS:          0 HIT:          0 MISS:          0
cpu0_ITLB PREFETCH     ACCESS:          0 HIT:          0 MISS:          0
cpu0_ITLB WRITE        ACCESS:          0 HIT:          0 MISS:          0
cpu0_ITLB TRANSLATION  ACCESS:          0 HIT:          0 MISS:          0
cpu0_ITLB PREFETCH REQUESTED:          0 ISSUED:          0 USEFUL:          0 USELESS:          0
cpu0_ITLB AVERAGE MISS LATENCY: -nan cycles
cpu0_ITLB TOTAL        ACCESS:          0 HIT:          0 MISS:          0
cpu0_ITLB LOAD         ACCESS:          0 HIT:          0 MISS:          0
cpu0_ITLB RFO          ACCESS:          0 HIT:          0 MISS:          0
cpu0_ITLB PREFETCH     ACCESS:          0 HIT:          0 MISS:          0
cpu0_ITLB WRITE        ACCESS:          0 HIT:          0 MISS:          0
cpu0_ITLB TRANSLATION  ACCESS:          0 HIT:          0 MISS:          0
cpu0_ITLB PREFETCH REQUESTED:          0 ISSUED:          0 USEFUL:          0 USELESS:          0
cpu0_ITLB AVERAGE MISS LATENCY: -nan cycles
cpu0_L1D TOTAL        ACCESS:   55865087 HIT:   54951492 MISS:     913595
cpu0_L1D LOAD         ACCESS:   32777815 HIT:   31870833 MISS:     906982
cpu0_L1D RFO          ACCESS:          0 HIT:          0 MISS:          0
cpu0_L1D PREFETCH     ACCESS:          0 HIT:          0 MISS:          0
cpu0_L1D WRITE        ACCESS:   23085787 HIT:   23080646 MISS:       5141
cpu0_L1D TRANSLATION  ACCESS:       1485 HIT:         13 MISS:       1472
cpu0_L1D PREFETCH REQUESTED:          0 ISSUED:          0 USEFUL:          0 USELESS:          0
cpu0_L1D AVERAGE MISS LATENCY: 12.66 cycles
cpu0_L1D TOTAL        ACCESS:          0 HIT:          0 MISS:          0
cpu0_L1D LOAD         ACCESS:          0 HIT:          0 MISS:          0
cpu0_L1D RFO          ACCESS:          0 HIT:          0 MISS:          0
cpu0_L1D PREFETCH     ACCESS:          0 HIT:          0 MISS:          0
cpu0_L1D WRITE        ACCESS:          0 HIT:          0 MISS:          0
cpu0_L1D TRANSLATION  ACCESS:          0 HIT:          0 MISS:          0
cpu0_L1D PREFETCH REQUESTED:          0 ISSUED:          0 USEFUL:          0 USELESS:          0
cpu0_L1D AVERAGE MISS LATENCY: 12.66 cycles
cpu0_L1D TOTAL        ACCESS:          0 HIT:          0 MISS:          0
cpu0_L1D LOAD         ACCESS:          0 HIT:          0 MISS:          0
cpu0_L1D RFO          ACCESS:          0 HIT:          0 MISS:          0
cpu0_L1D PREFETCH     ACCESS:          0 HIT:          0 MISS:          0
cpu0_L1D WRITE        ACCESS:          0 HIT:          0 MISS:          0
cpu0_L1D TRANSLATION  ACCESS:          0 HIT:          0 MISS:          0
cpu0_L1D PREFETCH REQUESTED:          0 ISSUED:          0 USEFUL:          0 USELESS:          0
cpu0_L1D AVERAGE MISS LATENCY: 12.66 cycles
cpu0_L1D TOTAL        ACCESS:          0 HIT:          0 MISS:          0
cpu0_L1D LOAD         ACCESS:          0 HIT:          0 MISS:          0
cpu0_L1D RFO          ACCESS:          0 HIT:          0 MISS:          0
cpu0_L1D PREFETCH     ACCESS:          0 HIT:          0 MISS:          0
cpu0_L1D WRITE        ACCESS:          0 HIT:          0 MISS:          0
cpu0_L1D TRANSLATION  ACCESS:          0 HIT:          0 MISS:          0
cpu0_L1D PREFETCH REQUESTED:          0 ISSUED:          0 USEFUL:          0 USELESS:          0
cpu0_L1D AVERAGE MISS LATENCY: 12.66 cycles
cpu0_L1I TOTAL        ACCESS:       2049 HIT:       2049 MISS:          0
cpu0_L1I LOAD         ACCESS:       2049 HIT:       2049 MISS:          0
cpu0_L1I RFO          ACCESS:          0 HIT:          0 MISS:          0
cpu0_L1I PREFETCH     ACCESS:          0 HIT:          0 MISS:          0
cpu0_L1I WRITE        ACCESS:          0 HIT:          0 MISS:          0
cpu0_L1I TRANSLATION  ACCESS:          0 HIT:          0 MISS:          0
cpu0_L1I PREFETCH REQUESTED:          0 ISSUED:          0 USEFUL:          0 USELESS:          0
cpu0_L1I AVERAGE MISS LATENCY: -nan cycles
cpu0_L1I TOTAL        ACCESS:          0 HIT:          0 MISS:          0
cpu0_L1I LOAD         ACCESS:          0 HIT:          0 MISS:          0
cpu0_L1I RFO          ACCESS:          0 HIT:          0 MISS:          0
cpu0_L1I PREFETCH     ACCESS:          0 HIT:          0 MISS:          0
cpu0_L1I WRITE        ACCESS:          0 HIT:          0 MISS:          0
cpu0_L1I TRANSLATION  ACCESS:          0 HIT:          0 MISS:          0
cpu0_L1I PREFETCH REQUESTED:          0 ISSUED:          0 USEFUL:          0 USELESS:          0
cpu0_L1I AVERAGE MISS LATENCY: -nan cycles
cpu0_L1I TOTAL        ACCESS:          0 HIT:          0 MISS:          0
cpu0_L1I LOAD         ACCESS:          0 HIT:          0 MISS:          0
cpu0_L1I RFO          ACCESS:          0 HIT:          0 MISS:          0
cpu0_L1I PREFETCH     ACCESS:          0 HIT:          0 MISS:          0
cpu0_L1I WRITE        ACCESS:          0 HIT:          0 MISS:          0
cpu0_L1I TRANSLATION  ACCESS:          0 HIT:          0 MISS:          0
cpu0_L1I PREFETCH REQUESTED:          0 ISSUED:          0 USEFUL:          0 USELESS:          0
cpu0_L1I AVERAGE MISS LATENCY: -nan cycles
cpu0_L1I TOTAL        ACCESS:          0 HIT:          0 MISS:          0
cpu0_L1I LOAD         ACCESS:          0 HIT:          0 MISS:          0
cpu0_L1I RFO          ACCESS:          0 HIT:          0 MISS:          0
cpu0_L1I PREFETCH     ACCESS:          0 HIT:          0 MISS:          0
cpu0_L1I WRITE        ACCESS:          0 HIT:          0 MISS:          0
cpu0_L1I TRANSLATION  ACCESS:          0 HIT:          0 MISS:          0
cpu0_L1I PREFETCH REQUESTED:          0 ISSUED:          0 USEFUL:          0 USELESS:          0
cpu0_L1I AVERAGE MISS LATENCY: -nan cycles
cpu0_L2C TOTAL        ACCESS:    4192780 HIT:    3964238 MISS:     228542
cpu0_L2C LOAD         ACCESS:     900052 HIT:     874351 MISS:      25701
cpu0_L2C RFO          ACCESS:       1488 HIT:       1447 MISS:         41
cpu0_L2C PREFETCH     ACCESS:    2979822 HIT:    2777523 MISS:     202299
cpu0_L2C WRITE        ACCESS:     309946 HIT:     309945 MISS:          1
cpu0_L2C TRANSLATION  ACCESS:       1472 HIT:        972 MISS:        500
cpu0_L2C PREFETCH REQUESTED:    2979841 ISSUED:    2979821 USEFUL:      15754 USELESS:        404
cpu0_L2C AVERAGE MISS LATENCY: 15.12 cycles
cpu0_L2C TOTAL        ACCESS:          0 HIT:          0 MISS:          0
cpu0_L2C LOAD         ACCESS:          0 HIT:          0 MISS:          0
cpu0_L2C RFO          ACCESS:          0 HIT:          0 MISS:          0
cpu0_L2C PREFETCH     ACCESS:          0 HIT:          0 MISS:          0
cpu0_L2C WRITE        ACCESS:          0 HIT:          0 MISS:          0
cpu0_L2C TRANSLATION  ACCESS:          0 HIT:          0 MISS:          0
cpu0_L2C PREFETCH REQUESTED:    2979841 ISSUED:    2979821 USEFUL:      15754 USELESS:        404
cpu0_L2C AVERAGE MISS LATENCY: 15.12 cycles
cpu0_L2C TOTAL        ACCESS:          0 HIT:          0 MISS:          0
cpu0_L2C LOAD         ACCESS:          0 HIT:          0 MISS:          0
cpu0_L2C RFO          ACCESS:          0 HIT:          0 MISS:          0
cpu0_L2C PREFETCH     ACCESS:          0 HIT:          0 MISS:          0
cpu0_L2C WRITE        ACCESS:          0 HIT:          0 MISS:          0
cpu0_L2C TRANSLATION  ACCESS:          0 HIT:          0 MISS:          0
cpu0_L2C PREFETCH REQUESTED:    2979841 ISSUED:    2979821 USEFUL:      15754 USELESS:        404
cpu0_L2C AVERAGE MISS LATENCY: 15.12 cycles
cpu0_L2C TOTAL        ACCESS:          0 HIT:          0 MISS:          0
cpu0_L2C LOAD         ACCESS:          0 HIT:          0 MISS:          0
cpu0_L2C RFO          ACCESS:          0 HIT:          0 MISS:          0
cpu0_L2C PREFETCH     ACCESS:          0 HIT:          0 MISS:          0
cpu0_L2C WRITE        ACCESS:          0 HIT:          0 MISS:          0
cpu0_L2C TRANSLATION  ACCESS:          0 HIT:          0 MISS:          0
cpu0_L2C PREFETCH REQUESTED:    2979841 ISSUED:    2979821 USEFUL:      15754 USELESS:        404
cpu0_L2C AVERAGE MISS LATENCY: 15.12 cycles
cpu0_STLB TOTAL        ACCESS:      74722 HIT:      73258 MISS:       1464
cpu0_STLB LOAD         ACCESS:      74722 HIT:      73258 MISS:       1464
cpu0_STLB RFO          ACCESS:          0 HIT:          0 MISS:          0
cpu0_STLB PREFETCH     ACCESS:          0 HIT:          0 MISS:          0
cpu0_STLB WRITE        ACCESS:          0 HIT:          0 MISS:          0
cpu0_STLB TRANSLATION  ACCESS:          0 HIT:          0 MISS:          0
cpu0_STLB PREFETCH REQUESTED:          0 ISSUED:          0 USEFUL:          0 USELESS:          0
cpu0_STLB AVERAGE MISS LATENCY: 356.4 cycles
cpu0_STLB TOTAL        ACCESS:          0 HIT:          0 MISS:          0
cpu0_STLB LOAD         ACCESS:          0 HIT:          0 MISS:          0
cpu0_STLB RFO          ACCESS:          0 HIT:          0 MISS:          0
cpu0_STLB PREFETCH     ACCESS:          0 HIT:          0 MISS:          0
cpu0_STLB WRITE        ACCESS:          0 HIT:          0 MISS:          0
cpu0_STLB TRANSLATION  ACCESS:          0 HIT:          0 MISS:          0
cpu0_STLB PREFETCH REQUESTED:          0 ISSUED:          0 USEFUL:          0 USELESS:          0
cpu0_STLB AVERAGE MISS LATENCY: 356.4 cycles
cpu0_STLB TOTAL        ACCESS:          0 HIT:          0 MISS:          0
cpu0_STLB LOAD         ACCESS:          0 HIT:          0 MISS:          0
cpu0_STLB RFO          ACCESS:          0 HIT:          0 MISS:          0
cpu0_STLB PREFETCH     ACCESS:          0 HIT:          0 MISS:          0
cpu0_STLB WRITE        ACCESS:          0 HIT:          0 MISS:          0
cpu0_STLB TRANSLATION  ACCESS:          0 HIT:          0 MISS:          0
cpu0_STLB PREFETCH REQUESTED:          0 ISSUED:          0 USEFUL:          0 USELESS:          0
cpu0_STLB AVERAGE MISS LATENCY: 356.4 cycles
cpu0_STLB TOTAL        ACCESS:          0 HIT:          0 MISS:          0
cpu0_STLB LOAD         ACCESS:          0 HIT:          0 MISS:          0
cpu0_STLB RFO          ACCESS:          0 HIT:          0 MISS:          0
cpu0_STLB PREFETCH     ACCESS:          0 HIT:          0 MISS:          0
cpu0_STLB WRITE        ACCESS:          0 HIT:          0 MISS:          0
cpu0_STLB TRANSLATION  ACCESS:          0 HIT:          0 MISS:          0
cpu0_STLB PREFETCH REQUESTED:          0 ISSUED:          0 USEFUL:          0 USELESS:          0
cpu0_STLB AVERAGE MISS LATENCY: 356.4 cycles
cpu1_DTLB TOTAL        ACCESS:          0 HIT:          0 MISS:          0
cpu1_DTLB LOAD         ACCESS:          0 HIT:          0 MISS:          0
cpu1_DTLB RFO          ACCESS:          0 HIT:          0 MISS:          0
cpu1_DTLB PREFETCH     ACCESS:          0 HIT:          0 MISS:          0
cpu1_DTLB WRITE        ACCESS:          0 HIT:          0 MISS:          0
cpu1_DTLB TRANSLATION  ACCESS:          0 HIT:          0 MISS:          0
cpu1_DTLB PREFETCH REQUESTED:          0 ISSUED:          0 USEFUL:          0 USELESS:          0
cpu1_DTLB AVERAGE MISS LATENCY: 21.69 cycles
cpu1_DTLB TOTAL        ACCESS:   18217244 HIT:   18066384 MISS:     150860
cpu1_DTLB LOAD         ACCESS:   18217244 HIT:   18066384 MISS:     150860
cpu1_DTLB RFO          ACCESS:          0 HIT:          0 MISS:          0
cpu1_DTLB PREFETCH     ACCESS:          0 HIT:          0 MISS:          0
cpu1_DTLB WRITE        ACCESS:          0 HIT:          0 MISS:          0
cpu1_DTLB TRANSLATION  ACCESS:          0 HIT:          0 MISS:          0
cpu1_DTLB PREFETCH REQUESTED:          0 ISSUED:          0 USEFUL:          0 USELESS:          0
cpu1_DTLB AVERAGE MISS LATENCY: 21.69 cycles
cpu1_DTLB TOTAL        ACCESS:          0 HIT:          0 MISS:          0
cpu1_DTLB LOAD         ACCESS:          0 HIT:          0 MISS:          0
cpu1_DTLB RFO          ACCESS:          0 HIT:          0 MISS:          0
cpu1_DTLB PREFETCH     ACCESS:          0 HIT:          0 MISS:          0
cpu1_DTLB WRITE        ACCESS:          0 HIT:          0 MISS:          0
cpu1_DTLB TRANSLATION  ACCESS:          0 HIT:          0 MISS:          0
cpu1_DTLB PREFETCH REQUESTED:          0 ISSUED:          0 USEFUL:          0 USELESS:          0
cpu1_DTLB AVERAGE MISS LATENCY: 21.69 cycles
cpu1_DTLB TOTAL        ACCESS:          0 HIT:          0 MISS:          0
cpu1_DTLB LOAD         ACCESS:          0 HIT:          0 MISS:          0
cpu1_DTLB RFO          ACCESS:          0 HIT:          0 MISS:          0
cpu1_DTLB PREFETCH     ACCESS:          0 HIT:          0 MISS:          0
cpu1_DTLB WRITE        ACCESS:          0 HIT:          0 MISS:          0
cpu1_DTLB TRANSLATION  ACCESS:          0 HIT:          0 MISS:          0
cpu1_DTLB PREFETCH REQUESTED:          0 ISSUED:          0 USEFUL:          0 USELESS:          0
cpu1_DTLB AVERAGE MISS LATENCY: 21.69 cycles
cpu1_ITLB TOTAL        ACCESS:          0 HIT:          0 MISS:          0
cpu1_ITLB LOAD         ACCESS:          0 HIT:          0 MISS:          0
cpu1_ITLB RFO          ACCESS:          0 HIT:          0 MISS:          0
cpu1_ITLB PREFETCH     ACCESS:          0 HIT:          0 MISS:          0
cpu1_ITLB WRITE        ACCESS:          0 HIT:          0 MISS:          0
cpu1_ITLB TRANSLATION  ACCESS:          0 HIT:          0 MISS:          0
cpu1_ITLB PREFETCH REQUESTED:          0 ISSUED:          0 USEFUL:          0 USELESS:          0
cpu1_ITLB AVERAGE MISS LATENCY: -nan cycles
cpu1_ITLB TOTAL        ACCESS:          0 HIT:          0 MISS:          0
cpu1_ITLB LOAD         ACCESS:          0 HIT:          0 MISS:          0
cpu1_ITLB RFO          ACCESS:          0 HIT:          0 MISS:          0
cpu1_ITLB PREFETCH     ACCESS:          0 HIT:          0 MISS:          0
cpu1_ITLB WRITE        ACCESS:          0 HIT:          0 MISS:          0
cpu1_ITLB TRANSLATION  ACCESS:          0 HIT:          0 MISS:          0
cpu1_ITLB PREFETCH REQUESTED:          0 ISSUED:          0 USEFUL:          0 USELESS:          0
cpu1_ITLB AVERAGE MISS LATENCY: -nan cycles
cpu1_ITLB TOTAL        ACCESS:          0 HIT:          0 MISS:          0
cpu1_ITLB LOAD         ACCESS:          0 HIT:          0 MISS:          0
cpu1_ITLB RFO          ACCESS:          0 HIT:          0 MISS:          0
cpu1_ITLB PREFETCH     ACCESS:          0 HIT:          0 MISS:          0
cpu1_ITLB WRITE        ACCESS:          0 HIT:          0 MISS:          0
cpu1_ITLB TRANSLATION  ACCESS:          0 HIT:          0 MISS:          0
cpu1_ITLB PREFETCH REQUESTED:          0 ISSUED:          0 USEFUL:          0 USELESS:          0
cpu1_ITLB AVERAGE MISS LATENCY: -nan cycles
cpu1_ITLB TOTAL        ACCESS:          0 HIT:          0 MISS:          0
cpu1_ITLB LOAD         ACCESS:          0 HIT:          0 MISS:          0
cpu1_ITLB RFO          ACCESS:          0 HIT:          0 MISS:          0
cpu1_ITLB PREFETCH     ACCESS:          0 HIT:          0 MISS:          0
cpu1_ITLB WRITE        ACCESS:          0 HIT:          0 MISS:          0
cpu1_ITLB TRANSLATION  ACCESS:          0 HIT:          0 MISS:          0
cpu1_ITLB PREFETCH REQUESTED:          0 ISSUED:          0 USEFUL:          0 USELESS:          0
cpu1_ITLB AVERAGE MISS LATENCY: -nan cycles
cpu1_L1D TOTAL        ACCESS:          0 HIT:          0 MISS:          0
cpu1_L1D LOAD         ACCESS:          0 HIT:          0 MISS:          0
cpu1_L1D RFO          ACCESS:          0 HIT:          0 MISS:          0
cpu1_L1D PREFETCH     ACCESS:          0 HIT:          0 MISS:          0
cpu1_L1D WRITE        ACCESS:          0 HIT:          0 MISS:          0
cpu1_L1D TRANSLATION  ACCESS:          0 HIT:          0 MISS:          0
cpu1_L1D PREFETCH REQUESTED:          0 ISSUED:          0 USEFUL:          0 USELESS:          0
cpu1_L1D AVERAGE MISS LATENCY: 52.66 cycles
cpu1_L1D TOTAL        ACCESS:   27117580 HIT:   23384069 MISS:    3733511
cpu1_L1D LOAD         ACCESS:   15318562 HIT:   11594649 MISS:    3723913
cpu1_L1D RFO          ACCESS:          0 HIT:          0 MISS:          0
cpu1_L1D PREFETCH     ACCESS:          0 HIT:          0 MISS:          0
cpu1_L1D WRITE        ACCESS:   11775914 HIT:   11767228 MISS:       8686
cpu1_L1D TRANSLATION  ACCESS:      23104 HIT:      22192 MISS:        912
cpu1_L1D PREFETCH REQUESTED:          0 ISSUED:          0 USEFUL:          0 USELESS:          0
cpu1_L1D AVERAGE MISS LATENCY: 52.66 cycles
cpu1_L1D TOTAL        ACCESS:          0 HIT:          0 MISS:          0
cpu1_L1D LOAD         ACCESS:          0 HIT:          0 MISS:          0
cpu1_L1D RFO          ACCESS:          0 HIT:          0 MISS:          0
cpu1_L1D PREFETCH     ACCESS:          0 HIT:          0 MISS:          0
cpu1_L1D WRITE        ACCESS:          0 HIT:          0 MISS:          0
cpu1_L1D TRANSLATION  ACCESS:          0 HIT:          0 MISS:          0
cpu1_L1D PREFETCH REQUESTED:          0 ISSUED:          0 USEFUL:          0 USELESS:          0
cpu1_L1D AVERAGE MISS LATENCY: 52.66 cycles
cpu1_L1D TOTAL        ACCESS:          0 HIT:          0 MISS:          0
cpu1_L1D LOAD         ACCESS:          0 HIT:          0 MISS:          0
cpu1_L1D RFO          ACCESS:          0 HIT:          0 MISS:          0
cpu1_L1D PREFETCH     ACCESS:          0 HIT:          0 MISS:          0
cpu1_L1D WRITE        ACCESS:          0 HIT:          0 MISS:          0
cpu1_L1D TRANSLATION  ACCESS:          0 HIT:          0 MISS:          0
cpu1_L1D PREFETCH REQUESTED:          0 ISSUED:          0 USEFUL:          0 USELESS:          0
cpu1_L1D AVERAGE MISS LATENCY: 52.66 cycles
cpu1_L1I TOTAL        ACCESS:          0 HIT:          0 MISS:          0
cpu1_L1I LOAD         ACCESS:          0 HIT:          0 MISS:          0
cpu1_L1I RFO          ACCESS:          0 HIT:          0 MISS:          0
cpu1_L1I PREFETCH     ACCESS:          0 HIT:          0 MISS:          0
cpu1_L1I WRITE        ACCESS:          0 HIT:          0 MISS:          0
cpu1_L1I TRANSLATION  ACCESS:          0 HIT:          0 MISS:          0
cpu1_L1I PREFETCH REQUESTED:          0 ISSUED:          0 USEFUL:          0 USELESS:          0
cpu1_L1I AVERAGE MISS LATENCY: -nan cycles
cpu1_L1I TOTAL        ACCESS:          0 HIT:          0 MISS:          0
cpu1_L1I LOAD         ACCESS:          0 HIT:          0 MISS:          0
cpu1_L1I RFO          ACCESS:          0 HIT:          0 MISS:          0
cpu1_L1I PREFETCH     ACCESS:          0 HIT:          0 MISS:          0
cpu1_L1I WRITE        ACCESS:          0 HIT:          0 MISS:          0
cpu1_L1I TRANSLATION  ACCESS:          0 HIT:          0 MISS:          0
cpu1_L1I PREFETCH REQUESTED:          0 ISSUED:          0 USEFUL:          0 USELESS:          0
cpu1_L1I AVERAGE MISS LATENCY: -nan cycles
cpu1_L1I TOTAL        ACCESS:          0 HIT:          0 MISS:          0
cpu1_L1I LOAD         ACCESS:          0 HIT:          0 MISS:          0
cpu1_L1I RFO          ACCESS:          0 HIT:          0 MISS:          0
cpu1_L1I PREFETCH     ACCESS:          0 HIT:          0 MISS:          0
cpu1_L1I WRITE        ACCESS:          0 HIT:          0 MISS:          0
cpu1_L1I TRANSLATION  ACCESS:          0 HIT:          0 MISS:          0
cpu1_L1I PREFETCH REQUESTED:          0 ISSUED:          0 USEFUL:          0 USELESS:          0
cpu1_L1I AVERAGE MISS LATENCY: -nan cycles
cpu1_L1I TOTAL        ACCESS:          0 HIT:          0 MISS:          0
cpu1_L1I LOAD         ACCESS:          0 HIT:          0 MISS:          0
cpu1_L1I RFO          ACCESS:          0 HIT:          0 MISS:          0
cpu1_L1I PREFETCH     ACCESS:          0 HIT:          0 MISS:          0
cpu1_L1I WRITE        ACCESS:          0 HIT:          0 MISS:          0
cpu1_L1I TRANSLATION  ACCESS:          0 HIT:          0 MISS:          0
cpu1_L1I PREFETCH REQUESTED:          0 ISSUED:          0 USEFUL:          0 USELESS:          0
cpu1_L1I AVERAGE MISS LATENCY: -nan cycles
cpu1_L2C TOTAL        ACCESS:          0 HIT:          0 MISS:          0
cpu1_L2C LOAD         ACCESS:          0 HIT:          0 MISS:          0
cpu1_L2C RFO          ACCESS:          0 HIT:          0 MISS:          0
cpu1_L2C PREFETCH     ACCESS:          0 HIT:          0 MISS:          0
cpu1_L2C WRITE        ACCESS:          0 HIT:          0 MISS:          0
cpu1_L2C TRANSLATION  ACCESS:          0 HIT:          0 MISS:          0
cpu1_L2C PREFETCH REQUESTED:    9608497 ISSUED:    9602145 USEFUL:     954273 USELESS:         55
cpu1_L2C AVERAGE MISS LATENCY: 29.29 cycles
cpu1_L2C TOTAL        ACCESS:   13296361 HIT:    5217502 MISS:    8078859
cpu1_L2C LOAD         ACCESS:    2217189 HIT:     850300 MISS:    1366889
cpu1_L2C RFO          ACCESS:       2569 HIT:       2561 MISS:          8
cpu1_L2C PREFETCH     ACCESS:    9602145 HIT:    2890420 MISS:    6711725
cpu1_L2C WRITE        ACCESS:    1473549 HIT:    1473549 MISS:          0
cpu1_L2C TRANSLATION  ACCESS:        909 HIT:        672 MISS:        237
cpu1_L2C PREFETCH REQUESTED:    9608497 ISSUED:    9602145 USEFUL:     954273 USELESS:         55
cpu1_L2C AVERAGE MISS LATENCY: 29.29 cycles
cpu1_L2C TOTAL        ACCESS:          0 HIT:          0 MISS:          0
cpu1_L2C LOAD         ACCESS:          0 HIT:          0 MISS:          0
cpu1_L2C RFO          ACCESS:          0 HIT:          0 MISS:          0
cpu1_L2C PREFETCH     ACCESS:          0 HIT:          0 MISS:          0
cpu1_L2C WRITE        ACCESS:          0 HIT:          0 MISS:          0
cpu1_L2C TRANSLATION  ACCESS:          0 HIT:          0 MISS:          0
cpu1_L2C PREFETCH REQUESTED:    9608497 ISSUED:    9602145 USEFUL:     954273 USELESS:         55
cpu1_L2C AVERAGE MISS LATENCY: 29.29 cycles
cpu1_L2C TOTAL        ACCESS:          0 HIT:          0 MISS:          0
cpu1_L2C LOAD         ACCESS:          0 HIT:          0 MISS:          0
cpu1_L2C RFO          ACCESS:          0 HIT:          0 MISS:          0
cpu1_L2C PREFETCH     ACCESS:          0 HIT:          0 MISS:          0
cpu1_L2C WRITE        ACCESS:          0 HIT:          0 MISS:          0
cpu1_L2C TRANSLATION  ACCESS:          0 HIT:          0 MISS:          0
cpu1_L2C PREFETCH REQUESTED:    9608497 ISSUED:    9602145 USEFUL:     954273 USELESS:         55
cpu1_L2C AVERAGE MISS LATENCY: 29.29 cycles
cpu1_STLB TOTAL        ACCESS:          0 HIT:          0 MISS:          0
cpu1_STLB LOAD         ACCESS:          0 HIT:          0 MISS:          0
cpu1_STLB RFO          ACCESS:          0 HIT:          0 MISS:          0
cpu1_STLB PREFETCH     ACCESS:          0 HIT:          0 MISS:          0
cpu1_STLB WRITE        ACCESS:          0 HIT:          0 MISS:          0
cpu1_STLB TRANSLATION  ACCESS:          0 HIT:          0 MISS:          0
cpu1_STLB PREFETCH REQUESTED:          0 ISSUED:          0 USEFUL:          0 USELESS:          0
cpu1_STLB AVERAGE MISS LATENCY: 209.7 cycles
cpu1_STLB TOTAL        ACCESS:      39155 HIT:      16138 MISS:      23017
cpu1_STLB LOAD         ACCESS:      39155 HIT:      16138 MISS:      23017
cpu1_STLB RFO          ACCESS:          0 HIT:          0 MISS:          0
cpu1_STLB PREFETCH     ACCESS:          0 HIT:          0 MISS:          0
cpu1_STLB WRITE        ACCESS:          0 HIT:          0 MISS:          0
cpu1_STLB TRANSLATION  ACCESS:          0 HIT:          0 MISS:          0
cpu1_STLB PREFETCH REQUESTED:          0 ISSUED:          0 USEFUL:          0 USELESS:          0
cpu1_STLB AVERAGE MISS LATENCY: 209.7 cycles
cpu1_STLB TOTAL        ACCESS:          0 HIT:          0 MISS:          0
cpu1_STLB LOAD         ACCESS:          0 HIT:          0 MISS:          0
cpu1_STLB RFO          ACCESS:          0 HIT:          0 MISS:          0
cpu1_STLB PREFETCH     ACCESS:          0 HIT:          0 MISS:          0
cpu1_STLB WRITE        ACCESS:          0 HIT:          0 MISS:          0
cpu1_STLB TRANSLATION  ACCESS:          0 HIT:          0 MISS:          0
cpu1_STLB PREFETCH REQUESTED:          0 ISSUED:          0 USEFUL:          0 USELESS:          0
cpu1_STLB AVERAGE MISS LATENCY: 209.7 cycles
cpu1_STLB TOTAL        ACCESS:          0 HIT:          0 MISS:          0
cpu1_STLB LOAD         ACCESS:          0 HIT:          0 MISS:          0
cpu1_STLB RFO          ACCESS:          0 HIT:          0 MISS:          0
cpu1_STLB PREFETCH     ACCESS:          0 HIT:          0 MISS:          0
cpu1_STLB WRITE        ACCESS:          0 HIT:          0 MISS:          0
cpu1_STLB TRANSLATION  ACCESS:          0 HIT:          0 MISS:          0
cpu1_STLB PREFETCH REQUESTED:          0 ISSUED:          0 USEFUL:          0 USELESS:          0
cpu1_STLB AVERAGE MISS LATENCY: 209.7 cycles
cpu2_DTLB TOTAL        ACCESS:          0 HIT:          0 MISS:          0
cpu2_DTLB LOAD         ACCESS:          0 HIT:          0 MISS:          0
cpu2_DTLB RFO          ACCESS:          0 HIT:          0 MISS:          0
cpu2_DTLB PREFETCH     ACCESS:          0 HIT:          0 MISS:          0
cpu2_DTLB WRITE        ACCESS:          0 HIT:          0 MISS:          0
cpu2_DTLB TRANSLATION  ACCESS:          0 HIT:          0 MISS:          0
cpu2_DTLB PREFETCH REQUESTED:          0 ISSUED:          0 USEFUL:          0 USELESS:          0
cpu2_DTLB AVERAGE MISS LATENCY: 6.848 cycles
cpu2_DTLB TOTAL        ACCESS:          0 HIT:          0 MISS:          0
cpu2_DTLB LOAD         ACCESS:          0 HIT:          0 MISS:          0
cpu2_DTLB RFO          ACCESS:          0 HIT:          0 MISS:          0
cpu2_DTLB PREFETCH     ACCESS:          0 HIT:          0 MISS:          0
cpu2_DTLB WRITE        ACCESS:          0 HIT:          0 MISS:          0
cpu2_DTLB TRANSLATION  ACCESS:          0 HIT:          0 MISS:          0
cpu2_DTLB PREFETCH REQUESTED:          0 ISSUED:          0 USEFUL:          0 USELESS:          0
cpu2_DTLB AVERAGE MISS LATENCY: 6.848 cycles
cpu2_DTLB TOTAL        ACCESS:   29986489 HIT:   24022988 MISS:    5963501
cpu2_DTLB LOAD         ACCESS:   29986489 HIT:   24022988 MISS:    5963501
cpu2_DTLB RFO          ACCESS:          0 HIT:          0 MISS:          0
cpu2_DTLB PREFETCH     ACCESS:          0 HIT:          0 MISS:          0
cpu2_DTLB WRITE        ACCESS:          0 HIT:          0 MISS:          0
cpu2_DTLB TRANSLATION  ACCESS:          0 HIT:          0 MISS:          0
cpu2_DTLB PREFETCH REQUESTED:          0 ISSUED:          0 USEFUL:          0 USELESS:          0
cpu2_DTLB AVERAGE MISS LATENCY: 6.848 cycles
cpu2_DTLB TOTAL        ACCESS:          0 HIT:          0 MISS:          0
cpu2_DTLB LOAD         ACCESS:          0 HIT:          0 MISS:          0
cpu2_DTLB RFO          ACCESS:          0 HIT:          0 MISS:          0
cpu2_DTLB PREFETCH     ACCESS:          0 HIT:          0 MISS:          0
cpu2_DTLB WRITE        ACCESS:          0 HIT:          0 MISS:          0
cpu2_DTLB TRANSLATION  ACCESS:          0 HIT:          0 MISS:          0
cpu2_DTLB PREFETCH REQUESTED:          0 ISSUED:          0 USEFUL:          0 USELESS:          0
cpu2_DTLB AVERAGE MISS LATENCY: 6.848 cycles
cpu2_ITLB TOTAL        ACCESS:          0 HIT:          0 MISS:          0
cpu2_ITLB LOAD         ACCESS:          0 HIT:          0 MISS:          0
cpu2_ITLB RFO          ACCESS:          0 HIT:          0 MISS:          0
cpu2_ITLB PREFETCH     ACCESS:          0 HIT:          0 MISS:          0
cpu2_ITLB WRITE        ACCESS:          0 HIT:          0 MISS:          0
cpu2_ITLB TRANSLATION  ACCESS:          0 HIT:          0 MISS:          0
cpu2_ITLB PREFETCH REQUESTED:          0 ISSUED:          0 USEFUL:          0 USELESS:          0
cpu2_ITLB AVERAGE MISS LATENCY: 5.037 cycles
cpu2_ITLB TOTAL        ACCESS:          0 HIT:          0 MISS:          0
cpu2_ITLB LOAD         ACCESS:          0 HIT:          0 MISS:          0
cpu2_ITLB RFO          ACCESS:          0 HIT:          0 MISS:          0
cpu2_ITLB PREFETCH     ACCESS:          0 HIT:          0 MISS:          0
cpu2_ITLB WRITE        ACCESS:          0 HIT:          0 MISS:          0
cpu2_ITLB TRANSLATION  ACCESS:          0 HIT:          0 MISS:          0
cpu2_ITLB PREFETCH REQUESTED:          0 ISSUED:          0 USEFUL:          0 USELESS:          0
cpu2_ITLB AVERAGE MISS LATENCY: 5.037 cycles
cpu2_ITLB TOTAL        ACCESS:    5137383 HIT:    5020338 MISS:     117045
cpu2_ITLB LOAD         ACCESS:    5137383 HIT:    5020338 MISS:     117045
cpu2_ITLB RFO          ACCESS:          0 HIT:          0 MISS:          0
cpu2_ITLB PREFETCH     ACCESS:          0 HIT:          0 MISS:          0
cpu2_ITLB WRITE        ACCESS:          0 HIT:          0 MISS:          0
cpu2_ITLB TRANSLATION  ACCESS:          0 HIT:          0 MISS:          0
cpu2_ITLB PREFETCH REQUESTED:          0 ISSUED:          0 USEFUL:          0 USELESS:          0
cpu2_ITLB AVERAGE MISS LATENCY: 5.037 cycles
cpu2_ITLB TOTAL        ACCESS:          0 HIT:          0 MISS:          0
cpu2_ITLB LOAD         ACCESS:          0 HIT:          0 MISS:          0
cpu2_ITLB RFO          ACCESS:          0 HIT:          0 MISS:          0
cpu2_ITLB PREFETCH     ACCESS:          0 HIT:          0 MISS:          0
cpu2_ITLB WRITE        ACCESS:          0 HIT:          0 MISS:          0
cpu2_ITLB TRANSLATION  ACCESS:          0 HIT:          0 MISS:          0
cpu2_ITLB PREFETCH REQUESTED:          0 ISSUED:          0 USEFUL:          0 USELESS:          0
cpu2_ITLB AVERAGE MISS LATENCY: 5.037 cycles
cpu2_L1D TOTAL        ACCESS:          0 HIT:          0 MISS:          0
cpu2_L1D LOAD         ACCESS:          0 HIT:          0 MISS:          0
cpu2_L1D RFO          ACCESS:          0 HIT:          0 MISS:          0
cpu2_L1D PREFETCH     ACCESS:          0 HIT:          0 MISS:          0
cpu2_L1D WRITE        ACCESS:          0 HIT:          0 MISS:          0
cpu2_L1D TRANSLATION  ACCESS:          0 HIT:          0 MISS:          0
cpu2_L1D PREFETCH REQUESTED:          0 ISSUED:          0 USEFUL:          0 USELESS:          0
cpu2_L1D AVERAGE MISS LATENCY: 19.68 cycles
cpu2_L1D TOTAL        ACCESS:          0 HIT:          0 MISS:          0
cpu2_L1D LOAD         ACCESS:          0 HIT:          0 MISS:          0
cpu2_L1D RFO          ACCESS:          0 HIT:          0 MISS:          0
cpu2_L1D PREFETCH     ACCESS:          0 HIT:          0 MISS:          0
cpu2_L1D WRITE        ACCESS:          0 HIT:          0 MISS:          0
cpu2_L1D TRANSLATION  ACCESS:          0 HIT:          0 MISS:          0
cpu2_L1D PREFETCH REQUESTED:          0 ISSUED:          0 USEFUL:          0 USELESS:          0
cpu2_L1D AVERAGE MISS LATENCY: 19.68 cycles
cpu2_L1D TOTAL        ACCESS:   38280318 HIT:   28714316 MISS:    9566002
cpu2_L1D LOAD         ACCESS:   26996234 HIT:   18408996 MISS:    8587238
cpu2_L1D RFO          ACCESS:          0 HIT:          0 MISS:          0
cpu2_L1D PREFETCH     ACCESS:          0 HIT:          0 MISS:          0
cpu2_L1D WRITE        ACCESS:   11019817 HIT:   10292983 MISS:     726834
cpu2_L1D TRANSLATION  ACCESS:     264267 HIT:      12337 MISS:     251930
cpu2_L1D PREFETCH REQUESTED:          0 ISSUED:          0 USEFUL:          0 USELESS:          0
cpu2_L1D AVERAGE MISS LATENCY: 19.68 cycles
cpu2_L1D TOTAL        ACCESS:          0 HIT:          0 MISS:          0
cpu2_L1D LOAD         ACCESS:          0 HIT:          0 MISS:          0
cpu2_L1D RFO          ACCESS:          0 HIT:          0 MISS:          0
cpu2_L1D PREFETCH     ACCESS:          0 HIT:          0 MISS:          0
cpu2_L1D WRITE        ACCESS:          0 HIT:          0 MISS:          0
cpu2_L1D TRANSLATION  ACCESS:          0 HIT:          0 MISS:          0
cpu2_L1D PREFETCH REQUESTED:          0 ISSUED:          0 USEFUL:          0 USELESS:          0
cpu2_L1D AVERAGE MISS LATENCY: 19.68 cycles
cpu2_L1I TOTAL        ACCESS:          0 HIT:          0 MISS:          0
cpu2_L1I LOAD         ACCESS:          0 HIT:          0 MISS:          0
cpu2_L1I RFO          ACCESS:          0 HIT:          0 MISS:          0
cpu2_L1I PREFETCH     ACCESS:          0 HIT:          0 MISS:          0
cpu2_L1I WRITE        ACCESS:          0 HIT:          0 MISS:          0
cpu2_L1I TRANSLATION  ACCESS:          0 HIT:          0 MISS:          0
cpu2_L1I PREFETCH REQUESTED:          0 ISSUED:          0 USEFUL:          0 USELESS:          0
cpu2_L1I AVERAGE MISS LATENCY: 10.36 cycles
cpu2_L1I TOTAL        ACCESS:          0 HIT:          0 MISS:          0
cpu2_L1I LOAD         ACCESS:          0 HIT:          0 MISS:          0
cpu2_L1I RFO          ACCESS:          0 HIT:          0 MISS:          0
cpu2_L1I PREFETCH     ACCESS:          0 HIT:          0 MISS:          0
cpu2_L1I WRITE        ACCESS:          0 HIT:          0 MISS:          0
cpu2_L1I TRANSLATION  ACCESS:          0 HIT:          0 MISS:          0
cpu2_L1I PREFETCH REQUESTED:          0 ISSUED:          0 USEFUL:          0 USELESS:          0
cpu2_L1I AVERAGE MISS LATENCY: 10.36 cycles
cpu2_L1I TOTAL        ACCESS:    6129620 HIT:    5599860 MISS:     529760
cpu2_L1I LOAD         ACCESS:    6129620 HIT:    5599860 MISS:     529760
cpu2_L1I RFO          ACCESS:          0 HIT:          0 MISS:          0
cpu2_L1I PREFETCH     ACCESS:          0 HIT:          0 MISS:          0
cpu2_L1I WRITE        ACCESS:          0 HIT:          0 MISS:          0
cpu2_L1I TRANSLATION  ACCESS:          0 HIT:          0 MISS:          0
cpu2_L1I PREFETCH REQUESTED:          0 ISSUED:          0 USEFUL:          0 USELESS:          0
cpu2_L1I AVERAGE MISS LATENCY: 10.36 cycles
cpu2_L1I TOTAL        ACCESS:          0 HIT:          0 MISS:          0
cpu2_L1I LOAD         ACCESS:          0 HIT:          0 MISS:          0
cpu2_L1I RFO          ACCESS:          0 HIT:          0 MISS:          0
cpu2_L1I PREFETCH     ACCESS:          0 HIT:          0 MISS:          0
cpu2_L1I WRITE        ACCESS:          0 HIT:          0 MISS:          0
cpu2_L1I TRANSLATION  ACCESS:          0 HIT:          0 MISS:          0
cpu2_L1I PREFETCH REQUESTED:          0 ISSUED:          0 USEFUL:          0 USELESS:          0
cpu2_L1I AVERAGE MISS LATENCY: 10.36 cycles
cpu2_L2C TOTAL        ACCESS:          0 HIT:          0 MISS:          0
cpu2_L2C LOAD         ACCESS:          0 HIT:          0 MISS:          0
cpu2_L2C RFO          ACCESS:          0 HIT:          0 MISS:          0
cpu2_L2C PREFETCH     ACCESS:          0 HIT:          0 MISS:          0
cpu2_L2C WRITE        ACCESS:          0 HIT:          0 MISS:          0
cpu2_L2C TRANSLATION  ACCESS:          0 HIT:          0 MISS:          0
cpu2_L2C PREFETCH REQUESTED:    9751325 ISSUED:    9441974 USEFUL:       4517 USELESS:       4365
cpu2_L2C AVERAGE MISS LATENCY: 29.06 cycles
cpu2_L2C TOTAL        ACCESS:          0 HIT:          0 MISS:          0
cpu2_L2C LOAD         ACCESS:          0 HIT:          0 MISS:          0
cpu2_L2C RFO          ACCESS:          0 HIT:          0 MISS:          0
cpu2_L2C PREFETCH     ACCESS:          0 HIT:          0 MISS:          0
cpu2_L2C WRITE        ACCESS:          0 HIT:          0 MISS:          0
cpu2_L2C TRANSLATION  ACCESS:          0 HIT:          0 MISS:          0
cpu2_L2C PREFETCH REQUESTED:    9751325 ISSUED:    9441974 USEFUL:       4517 USELESS:       4365
cpu2_L2C AVERAGE MISS LATENCY: 29.06 cycles
cpu2_L2C TOTAL        ACCESS:   17918006 HIT:   14007107 MISS:    3910899
cpu2_L2C LOAD         ACCESS:    7719767 HIT:    7398496 MISS:     321271
cpu2_L2C RFO          ACCESS:     187536 HIT:      39187 MISS:     148349
cpu2_L2C PREFETCH     ACCESS:    9441996 HIT:    6032433 MISS:    3409563
cpu2_L2C WRITE        ACCESS:     316877 HIT:     316873 MISS:          4
cpu2_L2C TRANSLATION  ACCESS:     251830 HIT:     220118 MISS:      31712
cpu2_L2C PREFETCH REQUESTED:    9751325 ISSUED:    9441974 USEFUL:       4517 USELESS:       4365
cpu2_L2C AVERAGE MISS LATENCY: 29.06 cycles
cpu2_L2C TOTAL        ACCESS:          0 HIT:          0 MISS:          0
cpu2_L2C LOAD         ACCESS:          0 HIT:          0 MISS:          0
cpu2_L2C RFO          ACCESS:          0 HIT:          0 MISS:          0
cpu2_L2C PREFETCH     ACCESS:          0 HIT:          0 MISS:          0
cpu2_L2C WRITE        ACCESS:          0 HIT:          0 MISS:          0
cpu2_L2C TRANSLATION  ACCESS:          0 HIT:          0 MISS:          0
cpu2_L2C PREFETCH REQUESTED:    9751325 ISSUED:    9441974 USEFUL:       4517 USELESS:       4365
cpu2_L2C AVERAGE MISS LATENCY: 29.06 cycles
cpu2_STLB TOTAL        ACCESS:          0 HIT:          0 MISS:          0
cpu2_STLB LOAD         ACCESS:          0 HIT:          0 MISS:          0
cpu2_STLB RFO          ACCESS:          0 HIT:          0 MISS:          0
cpu2_STLB PREFETCH     ACCESS:          0 HIT:          0 MISS:          0
cpu2_STLB WRITE        ACCESS:          0 HIT:          0 MISS:          0
cpu2_STLB TRANSLATION  ACCESS:          0 HIT:          0 MISS:          0
cpu2_STLB PREFETCH REQUESTED:          0 ISSUED:          0 USEFUL:          0 USELESS:          0
cpu2_STLB AVERAGE MISS LATENCY: 50.29 cycles
cpu2_STLB TOTAL        ACCESS:          0 HIT:          0 MISS:          0
cpu2_STLB LOAD         ACCESS:          0 HIT:          0 MISS:          0
cpu2_STLB RFO          ACCESS:          0 HIT:          0 MISS:          0
cpu2_STLB PREFETCH     ACCESS:          0 HIT:          0 MISS:          0
cpu2_STLB WRITE        ACCESS:          0 HIT:          0 MISS:          0
cpu2_STLB TRANSLATION  ACCESS:          0 HIT:          0 MISS:          0
cpu2_STLB PREFETCH REQUESTED:          0 ISSUED:          0 USEFUL:          0 USELESS:          0
cpu2_STLB AVERAGE MISS LATENCY: 50.29 cycles
cpu2_STLB TOTAL        ACCESS:    4472221 HIT:    4208808 MISS:     263413
cpu2_STLB LOAD         ACCESS:    4472221 HIT:    4208808 MISS:     263413
cpu2_STLB RFO          ACCESS:          0 HIT:          0 MISS:          0
cpu2_STLB PREFETCH     ACCESS:          0 HIT:          0 MISS:          0
cpu2_STLB WRITE        ACCESS:          0 HIT:          0 MISS:          0
cpu2_STLB TRANSLATION  ACCESS:          0 HIT:          0 MISS:          0
cpu2_STLB PREFETCH REQUESTED:          0 ISSUED:          0 USEFUL:          0 USELESS:          0
cpu2_STLB AVERAGE MISS LATENCY: 50.29 cycles
cpu2_STLB TOTAL        ACCESS:          0 HIT:          0 MISS:          0
cpu2_STLB LOAD         ACCESS:          0 HIT:          0 MISS:          0
cpu2_STLB RFO          ACCESS:          0 HIT:          0 MISS:          0
cpu2_STLB PREFETCH     ACCESS:          0 HIT:          0 MISS:          0
cpu2_STLB WRITE        ACCESS:          0 HIT:          0 MISS:          0
cpu2_STLB TRANSLATION  ACCESS:          0 HIT:          0 MISS:          0
cpu2_STLB PREFETCH REQUESTED:          0 ISSUED:          0 USEFUL:          0 USELESS:          0
cpu2_STLB AVERAGE MISS LATENCY: 50.29 cycles
cpu3_DTLB TOTAL        ACCESS:          0 HIT:          0 MISS:          0
cpu3_DTLB LOAD         ACCESS:          0 HIT:          0 MISS:          0
cpu3_DTLB RFO          ACCESS:          0 HIT:          0 MISS:          0
cpu3_DTLB PREFETCH     ACCESS:          0 HIT:          0 MISS:          0
cpu3_DTLB WRITE        ACCESS:          0 HIT:          0 MISS:          0
cpu3_DTLB TRANSLATION  ACCESS:          0 HIT:          0 MISS:          0
cpu3_DTLB PREFETCH REQUESTED:          0 ISSUED:          0 USEFUL:          0 USELESS:          0
cpu3_DTLB AVERAGE MISS LATENCY: 15.21 cycles
cpu3_DTLB TOTAL        ACCESS:          0 HIT:          0 MISS:          0
cpu3_DTLB LOAD         ACCESS:          0 HIT:          0 MISS:          0
cpu3_DTLB RFO          ACCESS:          0 HIT:          0 MISS:          0
cpu3_DTLB PREFETCH     ACCESS:          0 HIT:          0 MISS:          0
cpu3_DTLB WRITE        ACCESS:          0 HIT:          0 MISS:          0
cpu3_DTLB TRANSLATION  ACCESS:          0 HIT:          0 MISS:          0
cpu3_DTLB PREFETCH REQUESTED:          0 ISSUED:          0 USEFUL:          0 USELESS:          0
cpu3_DTLB AVERAGE MISS LATENCY: 15.21 cycles
cpu3_DTLB TOTAL        ACCESS:          0 HIT:          0 MISS:          0
cpu3_DTLB LOAD         ACCESS:          0 HIT:          0 MISS:          0
cpu3_DTLB RFO          ACCESS:          0 HIT:          0 MISS:          0
cpu3_DTLB PREFETCH     ACCESS:          0 HIT:          0 MISS:          0
cpu3_DTLB WRITE        ACCESS:          0 HIT:          0 MISS:          0
cpu3_DTLB TRANSLATION  ACCESS:          0 HIT:          0 MISS:          0
cpu3_DTLB PREFETCH REQUESTED:          0 ISSUED:          0 USEFUL:          0 USELESS:          0
cpu3_DTLB AVERAGE MISS LATENCY: 15.21 cycles
cpu3_DTLB TOTAL        ACCESS:   25123509 HIT:   25110499 MISS:      13010
cpu3_DTLB LOAD         ACCESS:   25123509 HIT:   25110499 MISS:      13010
cpu3_DTLB RFO          ACCESS:          0 HIT:          0 MISS:          0
cpu3_DTLB PREFETCH     ACCESS:          0 HIT:          0 MISS:          0
cpu3_DTLB WRITE        ACCESS:          0 HIT:          0 MISS:          0
cpu3_DTLB TRANSLATION  ACCESS:          0 HIT:          0 MISS:          0
cpu3_DTLB PREFETCH REQUESTED:          0 ISSUED:          0 USEFUL:          0 USELESS:          0
cpu3_DTLB AVERAGE MISS LATENCY: 15.21 cycles
cpu3_ITLB TOTAL        ACCESS:          0 HIT:          0 MISS:          0
cpu3_ITLB LOAD         ACCESS:          0 HIT:          0 MISS:          0
cpu3_ITLB RFO          ACCESS:          0 HIT:          0 MISS:          0
cpu3_ITLB PREFETCH     ACCESS:          0 HIT:          0 MISS:          0
cpu3_ITLB WRITE        ACCESS:          0 HIT:          0 MISS:          0
cpu3_ITLB TRANSLATION  ACCESS:          0 HIT:          0 MISS:          0
cpu3_ITLB PREFETCH REQUESTED:          0 ISSUED:          0 USEFUL:          0 USELESS:          0
cpu3_ITLB AVERAGE MISS LATENCY: -nan cycles
cpu3_ITLB TOTAL        ACCESS:          0 HIT:          0 MISS:          0
cpu3_ITLB LOAD         ACCESS:          0 HIT:          0 MISS:          0
cpu3_ITLB RFO          ACCESS:          0 HIT:          0 MISS:          0
cpu3_ITLB PREFETCH     ACCESS:          0 HIT:          0 MISS:          0
cpu3_ITLB WRITE        ACCESS:          0 HIT:          0 MISS:          0
cpu3_ITLB TRANSLATION  ACCESS:          0 HIT:          0 MISS:          0
cpu3_ITLB PREFETCH REQUESTED:          0 ISSUED:          0 USEFUL:          0 USELESS:          0
cpu3_ITLB AVERAGE MISS LATENCY: -nan cycles
cpu3_ITLB TOTAL        ACCESS:          0 HIT:          0 MISS:          0
cpu3_ITLB LOAD         ACCESS:          0 HIT:          0 MISS:          0
cpu3_ITLB RFO          ACCESS:          0 HIT:          0 MISS:          0
cpu3_ITLB PREFETCH     ACCESS:          0 HIT:          0 MISS:          0
cpu3_ITLB WRITE        ACCESS:          0 HIT:          0 MISS:          0
cpu3_ITLB TRANSLATION  ACCESS:          0 HIT:          0 MISS:          0
cpu3_ITLB PREFETCH REQUESTED:          0 ISSUED:          0 USEFUL:          0 USELESS:          0
cpu3_ITLB AVERAGE MISS LATENCY: -nan cycles
cpu3_ITLB TOTAL        ACCESS:     695445 HIT:     695445 MISS:          0
cpu3_ITLB LOAD         ACCESS:     695445 HIT:     695445 MISS:          0
cpu3_ITLB RFO          ACCESS:          0 HIT:          0 MISS:          0
cpu3_ITLB PREFETCH     ACCESS:          0 HIT:          0 MISS:          0
cpu3_ITLB WRITE        ACCESS:          0 HIT:          0 MISS:          0
cpu3_ITLB TRANSLATION  ACCESS:          0 HIT:          0 MISS:          0
cpu3_ITLB PREFETCH REQUESTED:          0 ISSUED:          0 USEFUL:          0 USELESS:          0
cpu3_ITLB AVERAGE MISS LATENCY: -nan cycles
cpu3_L1D TOTAL        ACCESS:          0 HIT:          0 MISS:          0
cpu3_L1D LOAD         ACCESS:          0 HIT:          0 MISS:          0
cpu3_L1D RFO          ACCESS:          0 HIT:          0 MISS:          0
cpu3_L1D PREFETCH     ACCESS:          0 HIT:          0 MISS:          0
cpu3_L1D WRITE        ACCESS:          0 HIT:          0 MISS:          0
cpu3_L1D TRANSLATION  ACCESS:          0 HIT:          0 MISS:          0
cpu3_L1D PREFETCH REQUESTED:          0 ISSUED:          0 USEFUL:          0 USELESS:          0
cpu3_L1D AVERAGE MISS LATENCY: 154.1 cycles
cpu3_L1D TOTAL        ACCESS:          0 HIT:          0 MISS:          0
cpu3_L1D LOAD         ACCESS:          0 HIT:          0 MISS:          0
cpu3_L1D RFO          ACCESS:          0 HIT:          0 MISS:          0
cpu3_L1D PREFETCH     ACCESS:          0 HIT:          0 MISS:          0
cpu3_L1D WRITE        ACCESS:          0 HIT:          0 MISS:          0
cpu3_L1D TRANSLATION  ACCESS:          0 HIT:          0 MISS:          0
cpu3_L1D PREFETCH REQUESTED:          0 ISSUED:          0 USEFUL:          0 USELESS:          0
cpu3_L1D AVERAGE MISS LATENCY: 154.1 cycles
cpu3_L1D TOTAL        ACCESS:          0 HIT:          0 MISS:          0
cpu3_L1D LOAD         ACCESS:          0 HIT:          0 MISS:          0
cpu3_L1D RFO          ACCESS:          0 HIT:          0 MISS:          0
cpu3_L1D PREFETCH     ACCESS:          0 HIT:          0 MISS:          0
cpu3_L1D WRITE        ACCESS:          0 HIT:          0 MISS:          0
cpu3_L1D TRANSLATION  ACCESS:          0 HIT:          0 MISS:          0
cpu3_L1D PREFETCH REQUESTED:          0 ISSUED:          0 USEFUL:          0 USELESS:          0
cpu3_L1D AVERAGE MISS LATENCY: 154.1 cycles
cpu3_L1D TOTAL        ACCESS:   30882248 HIT:   30868766 MISS:      13482
cpu3_L1D LOAD         ACCESS:   23056537 HIT:   23052804 MISS:       3733
cpu3_L1D RFO          ACCESS:          0 HIT:          0 MISS:          0
cpu3_L1D PREFETCH     ACCESS:          0 HIT:          0 MISS:          0
cpu3_L1D WRITE        ACCESS:    7825469 HIT:    7815939 MISS:       9530
cpu3_L1D TRANSLATION  ACCESS:        242 HIT:         23 MISS:        219
cpu3_L1D PREFETCH REQUESTED:          0 ISSUED:          0 USEFUL:          0 USELESS:          0
cpu3_L1D AVERAGE MISS LATENCY: 154.1 cycles
cpu3_L1I TOTAL        ACCESS:          0 HIT:          0 MISS:          0
cpu3_L1I LOAD         ACCESS:          0 HIT:          0 MISS:          0
cpu3_L1I RFO          ACCESS:          0 HIT:          0 MISS:          0
cpu3_L1I PREFETCH     ACCESS:          0 HIT:          0 MISS:          0
cpu3_L1I WRITE        ACCESS:          0 HIT:          0 MISS:          0
cpu3_L1I TRANSLATION  ACCESS:          0 HIT:          0 MISS:          0
cpu3_L1I PREFETCH REQUESTED:          0 ISSUED:          0 USEFUL:          0 USELESS:          0
cpu3_L1I AVERAGE MISS LATENCY: 7.424 cycles
cpu3_L1I TOTAL        ACCESS:          0 HIT:          0 MISS:          0
cpu3_L1I LOAD         ACCESS:          0 HIT:          0 MISS:          0
cpu3_L1I RFO          ACCESS:          0 HIT:          0 MISS:          0
cpu3_L1I PREFETCH     ACCESS:          0 HIT:          0 MISS:          0
cpu3_L1I WRITE        ACCESS:          0 HIT:          0 MISS:          0
cpu3_L1I TRANSLATION  ACCESS:          0 HIT:          0 MISS:          0
cpu3_L1I PREFETCH REQUESTED:          0 ISSUED:          0 USEFUL:          0 USELESS:          0
cpu3_L1I AVERAGE MISS LATENCY: 7.424 cycles
cpu3_L1I TOTAL        ACCESS:          0 HIT:          0 MISS:          0
cpu3_L1I LOAD         ACCESS:          0 HIT:          0 MISS:          0
cpu3_L1I RFO          ACCESS:          0 HIT:          0 MISS:          0
cpu3_L1I PREFETCH     ACCESS:          0 HIT:          0 MISS:          0
cpu3_L1I WRITE        ACCESS:          0 HIT:          0 MISS:          0
cpu3_L1I TRANSLATION  ACCESS:          0 HIT:          0 MISS:          0
cpu3_L1I PREFETCH REQUESTED:          0 ISSUED:          0 USEFUL:          0 USELESS:          0
cpu3_L1I AVERAGE MISS LATENCY: 7.424 cycles
cpu3_L1I TOTAL        ACCESS:     774387 HIT:     772272 MISS:       2115
cpu3_L1I LOAD         ACCESS:     774387 HIT:     772272 MISS:       2115
cpu3_L1I RFO          ACCESS:          0 HIT:          0 MISS:          0
cpu3_L1I PREFETCH     ACCESS:          0 HIT:          0 MISS:          0
cpu3_L1I WRITE        ACCESS:          0 HIT:          0 MISS:          0
cpu3_L1I TRANSLATION  ACCESS:          0 HIT:          0 MISS:          0
cpu3_L1I PREFETCH REQUESTED:          0 ISSUED:          0 USEFUL:          0 USELESS:          0
cpu3_L1I AVERAGE MISS LATENCY: 7.424 cycles
cpu3_L2C TOTAL        ACCESS:          0 HIT:          0 MISS:          0
cpu3_L2C LOAD         ACCESS:          0 HIT:          0 MISS:          0
cpu3_L2C RFO          ACCESS:          0 HIT:          0 MISS:          0
cpu3_L2C PREFETCH     ACCESS:          0 HIT:          0 MISS:          0
cpu3_L2C WRITE        ACCESS:          0 HIT:          0 MISS:          0
cpu3_L2C TRANSLATION  ACCESS:          0 HIT:          0 MISS:          0
cpu3_L2C PREFETCH REQUESTED:       7819 ISSUED:       7819 USEFUL:        165 USELESS:         14
cpu3_L2C AVERAGE MISS LATENCY: 224.4 cycles
cpu3_L2C TOTAL        ACCESS:          0 HIT:          0 MISS:          0
cpu3_L2C LOAD         ACCESS:          0 HIT:          0 MISS:          0
cpu3_L2C RFO          ACCESS:          0 HIT:          0 MISS:          0
cpu3_L2C PREFETCH     ACCESS:          0 HIT:          0 MISS:          0
cpu3_L2C WRITE        ACCESS:          0 HIT:          0 MISS:          0
cpu3_L2C TRANSLATION  ACCESS:          0 HIT:          0 MISS:          0
cpu3_L2C PREFETCH REQUESTED:       7819 ISSUED:       7819 USEFUL:        165 USELESS:         14
cpu3_L2C AVERAGE MISS LATENCY: 224.4 cycles
cpu3_L2C TOTAL        ACCESS:          0 HIT:          0 MISS:          0
cpu3_L2C LOAD         ACCESS:          0 HIT:          0 MISS:          0
cpu3_L2C RFO          ACCESS:          0 HIT:          0 MISS:          0
cpu3_L2C PREFETCH     ACCESS:          0 HIT:          0 MISS:          0
cpu3_L2C WRITE        ACCESS:          0 HIT:          0 MISS:          0
cpu3_L2C TRANSLATION  ACCESS:          0 HIT:          0 MISS:          0
cpu3_L2C PREFETCH REQUESTED:       7819 ISSUED:       7819 USEFUL:        165 USELESS:         14
cpu3_L2C AVERAGE MISS LATENCY: 224.4 cycles
cpu3_L2C TOTAL        ACCESS:      20336 HIT:       8898 MISS:      11438
cpu3_L2C LOAD         ACCESS:       4091 HIT:       1902 MISS:       2189
cpu3_L2C RFO          ACCESS:       3744 HIT:        111 MISS:       3633
cpu3_L2C PREFETCH     ACCESS:       7819 HIT:       2348 MISS:       5471
cpu3_L2C WRITE        ACCESS:       4463 HIT:       4461 MISS:          2
cpu3_L2C TRANSLATION  ACCESS:        219 HIT:         76 MISS:        143
cpu3_L2C PREFETCH REQUESTED:       7819 ISSUED:       7819 USEFUL:        165 USELESS:         14
cpu3_L2C AVERAGE MISS LATENCY: 224.4 cycles
cpu3_STLB TOTAL        ACCESS:          0 HIT:          0 MISS:          0
cpu3_STLB LOAD         ACCESS:          0 HIT:          0 MISS:          0
cpu3_STLB RFO          ACCESS:          0 HIT:          0 MISS:          0
cpu3_STLB PREFETCH     ACCESS:          0 HIT:          0 MISS:          0
cpu3_STLB WRITE        ACCESS:          0 HIT:          0 MISS:          0
cpu3_STLB TRANSLATION  ACCESS:          0 HIT:          0 MISS:          0
cpu3_STLB PREFETCH REQUESTED:          0 ISSUED:          0 USEFUL:          0 USELESS:          0
cpu3_STLB AVERAGE MISS LATENCY: 615.3 cycles
cpu3_STLB TOTAL        ACCESS:          0 HIT:          0 MISS:          0
cpu3_STLB LOAD         ACCESS:          0 HIT:          0 MISS:          0
cpu3_STLB RFO          ACCESS:          0 HIT:          0 MISS:          0
cpu3_STLB PREFETCH     ACCESS:          0 HIT:          0 MISS:          0
cpu3_STLB WRITE        ACCESS:          0 HIT:          0 MISS:          0
cpu3_STLB TRANSLATION  ACCESS:          0 HIT:          0 MISS:          0
cpu3_STLB PREFETCH REQUESTED:          0 ISSUED:          0 USEFUL:          0 USELESS:          0
cpu3_STLB AVERAGE MISS LATENCY: 615.3 cycles
cpu3_STLB TOTAL        ACCESS:          0 HIT:          0 MISS:          0
cpu3_STLB LOAD         ACCESS:          0 HIT:          0 MISS:          0
cpu3_STLB RFO          ACCESS:          0 HIT:          0 MISS:          0
cpu3_STLB PREFETCH     ACCESS:          0 HIT:          0 MISS:          0
cpu3_STLB WRITE        ACCESS:          0 HIT:          0 MISS:          0
cpu3_STLB TRANSLATION  ACCESS:          0 HIT:          0 MISS:          0
cpu3_STLB PREFETCH REQUESTED:          0 ISSUED:          0 USEFUL:          0 USELESS:          0
cpu3_STLB AVERAGE MISS LATENCY: 615.3 cycles
cpu3_STLB TOTAL        ACCESS:      11220 HIT:      10979 MISS:        241
cpu3_STLB LOAD         ACCESS:      11220 HIT:      10979 MISS:        241
cpu3_STLB RFO          ACCESS:          0 HIT:          0 MISS:          0
cpu3_STLB PREFETCH     ACCESS:          0 HIT:          0 MISS:          0
cpu3_STLB WRITE        ACCESS:          0 HIT:          0 MISS:          0
cpu3_STLB TRANSLATION  ACCESS:          0 HIT:          0 MISS:          0
cpu3_STLB PREFETCH REQUESTED:          0 ISSUED:          0 USEFUL:          0 USELESS:          0
cpu3_STLB AVERAGE MISS LATENCY: 615.3 cycles

Region of Interest Statistics

CPU 0 cumulative IPC: 2.166 instructions: 150000002 cycles: 69241724
CPU 0 Branch Prediction Accuracy: 85.81% MPKI: 13.74 Average ROB Occupancy at Mispredict: 103.3
Branch type MPKI
BRANCH_DIRECT_JUMP: 0.00012
BRANCH_INDIRECT: 6.67e-06
BRANCH_CONDITIONAL: 8.21
BRANCH_DIRECT_CALL: 0
BRANCH_INDIRECT_CALL: 0
BRANCH_RETURN: 5.53


CPU 1 cumulative IPC: 1.718 instructions: 150000000 cycles: 87295661
CPU 1 Branch Prediction Accuracy: 99.98% MPKI: 0.004387 Average ROB Occupancy at Mispredict: 352
Branch type MPKI
BRANCH_DIRECT_JUMP: 0
BRANCH_INDIRECT: 0
BRANCH_CONDITIONAL: 0.00439
BRANCH_DIRECT_CALL: 0
BRANCH_INDIRECT_CALL: 0
BRANCH_RETURN: 0


CPU 2 cumulative IPC: 1.534 instructions: 150000000 cycles: 97813135
CPU 2 Branch Prediction Accuracy: 96.96% MPKI: 8.474 Average ROB Occupancy at Mispredict: 39.47
Branch type MPKI
BRANCH_DIRECT_JUMP: 0.12
BRANCH_INDIRECT: 0.36
BRANCH_CONDITIONAL: 6.02
BRANCH_DIRECT_CALL: 0.000787
BRANCH_INDIRECT_CALL: 0.409
BRANCH_RETURN: 1.56


CPU 3 cumulative IPC: 2.155 instructions: 150000000 cycles: 69611090
CPU 3 Branch Prediction Accuracy: 94.91% MPKI: 6.827 Average ROB Occupancy at Mispredict: 78.67
Branch type MPKI
BRANCH_DIRECT_JUMP: 0
BRANCH_INDIRECT: 0
BRANCH_CONDITIONAL: 6.81
BRANCH_DIRECT_CALL: 0
BRANCH_INDIRECT_CALL: 0
BRANCH_RETURN: 0.0175

LLC TOTAL        ACCESS:     159846 HIT:     122861 MISS:      36985
LLC LOAD         ACCESS:      18626 HIT:      14782 MISS:       3844
LLC RFO          ACCESS:          2 HIT:          2 MISS:          0
LLC PREFETCH     ACCESS:     140146 HIT:     108050 MISS:      32096
LLC WRITE        ACCESS:        680 HIT:         27 MISS:        653
LLC TRANSLATION  ACCESS:        392 HIT:          0 MISS:        392
LLC PREFETCH REQUESTED:          0 ISSUED:          0 USEFUL:          0 USELESS:          0
LLC AVERAGE MISS LATENCY: 109.6 cycles
LLC TOTAL        ACCESS:    7318784 HIT:    2590845 MISS:    4727939
LLC LOAD         ACCESS:     528400 HIT:     203586 MISS:     324814
LLC RFO          ACCESS:          8 HIT:          8 MISS:          0
LLC PREFETCH     ACCESS:    5475395 HIT:    1072391 MISS:    4403004
LLC WRITE        ACCESS:    1314768 HIT:    1314761 MISS:          7
LLC TRANSLATION  ACCESS:        213 HIT:         99 MISS:        114
LLC PREFETCH REQUESTED:          0 ISSUED:          0 USEFUL:          0 USELESS:          0
LLC AVERAGE MISS LATENCY: 109.6 cycles
[...]
cpu2_L1I PREFETCH REQUESTED:          0 ISSUED:          0 USEFUL:          0 USELESS:          0
cpu2_L1I AVERAGE MISS LATENCY: 10.36 cycles
cpu2_L1I TOTAL        ACCESS:          0 HIT:          0 MISS:          0
cpu2_L1I LOAD         ACCESS:          0 HIT:          0 MISS:          0
cpu2_L1I RFO          ACCESS:          0 HIT:          0 MISS:          0
cpu2_L1I PREFETCH     ACCESS:          0 HIT:          0 MISS:          0
cpu2_L1I WRITE        ACCESS:          0 HIT:          0 MISS:          0
cpu2_L1I TRANSLATION  ACCESS:          0 HIT:          0 MISS:          0
cpu2_L1I PREFETCH REQUESTED:          0 ISSUED:          0 USEFUL:          0 USELESS:          0
cpu2_L1I AVERAGE MISS LATENCY: 10.36 cycles
cpu2_L2C TOTAL        ACCESS:          0 HIT:          0 MISS:          0
cpu2_L2C LOAD         ACCESS:          0 HIT:          0 MISS:          0
cpu2_L2C RFO          ACCESS:          0 HIT:          0 MISS:          0
cpu2_L2C PREFETCH     ACCESS:          0 HIT:          0 MISS:          0
cpu2_L2C WRITE        ACCESS:          0 HIT:          0 MISS:          0
cpu2_L2C TRANSLATION  ACCESS:          0 HIT:          0 MISS:          0
cpu2_L2C PREFETCH REQUESTED:    9751325 ISSUED:    9441974 USEFUL:       4517 USELESS:       4365
cpu2_L2C AVERAGE MISS LATENCY: 29.06 cycles
cpu2_L2C TOTAL        ACCESS:          0 HIT:          0 MISS:          0
cpu2_L2C LOAD         ACCESS:          0 HIT:          0 MISS:          0
cpu2_L2C RFO          ACCESS:          0 HIT:          0 MISS:          0
cpu2_L2C PREFETCH     ACCESS:          0 HIT:          0 MISS:          0
cpu2_L2C WRITE        ACCESS:          0 HIT:          0 MISS:          0
cpu2_L2C TRANSLATION  ACCESS:          0 HIT:          0 MISS:          0
cpu2_L2C PREFETCH REQUESTED:    9751325 ISSUED:    9441974 USEFUL:       4517 USELESS:       4365
cpu2_L2C AVERAGE MISS LATENCY: 29.06 cycles
cpu2_L2C TOTAL        ACCESS:   17918006 HIT:   14007107 MISS:    3910899
cpu2_L2C LOAD         ACCESS:    7719767 HIT:    7398496 MISS:     321271
cpu2_L2C RFO          ACCESS:     187536 HIT:      39187 MISS:     148349
cpu2_L2C PREFETCH     ACCESS:    9441996 HIT:    6032433 MISS:    3409563
cpu2_L2C WRITE        ACCESS:     316877 HIT:     316873 MISS:          4
cpu2_L2C TRANSLATION  ACCESS:     251830 HIT:     220118 MISS:      31712
cpu2_L2C PREFETCH REQUESTED:    9751325 ISSUED:    9441974 USEFUL:       4517 USELESS:       4365
cpu2_L2C AVERAGE MISS LATENCY: 29.06 cycles
cpu2_L2C TOTAL        ACCESS:          0 HIT:          0 MISS:          0
cpu2_L2C LOAD         ACCESS:          0 HIT:          0 MISS:          0
cpu2_L2C RFO          ACCESS:          0 HIT:          0 MISS:          0
cpu2_L2C PREFETCH     ACCESS:          0 HIT:          0 MISS:          0
cpu2_L2C WRITE        ACCESS:          0 HIT:          0 MISS:          0
cpu2_L2C TRANSLATION  ACCESS:          0 HIT:          0 MISS:          0
cpu2_L2C PREFETCH REQUESTED:    9751325 ISSUED:    9441974 USEFUL:       4517 USELESS:       4365
cpu2_L2C AVERAGE MISS LATENCY: 29.06 cycles
cpu2_STLB TOTAL        ACCESS:          0 HIT:          0 MISS:          0
cpu2_STLB LOAD         ACCESS:          0 HIT:          0 MISS:          0
cpu2_STLB RFO          ACCESS:          0 HIT:          0 MISS:          0
cpu2_STLB PREFETCH     ACCESS:          0 HIT:          0 MISS:          0
cpu2_STLB WRITE        ACCESS:          0 HIT:          0 MISS:          0
cpu2_STLB TRANSLATION  ACCESS:          0 HIT:          0 MISS:          0
cpu2_STLB PREFETCH REQUESTED:          0 ISSUED:          0 USEFUL:          0 USELESS:          0
cpu2_STLB AVERAGE MISS LATENCY: 50.29 cycles
cpu2_STLB TOTAL        ACCESS:          0 HIT:          0 MISS:          0
cpu2_STLB LOAD         ACCESS:          0 HIT:          0 MISS:          0
cpu2_STLB RFO          ACCESS:          0 HIT:          0 MISS:          0
cpu2_STLB PREFETCH     ACCESS:          0 HIT:          0 MISS:          0
cpu2_STLB WRITE        ACCESS:          0 HIT:          0 MISS:          0
cpu2_STLB TRANSLATION  ACCESS:          0 HIT:          0 MISS:          0
cpu2_STLB PREFETCH REQUESTED:          0 ISSUED:          0 USEFUL:          0 USELESS:          0
cpu2_STLB AVERAGE MISS LATENCY: 50.29 cycles
cpu2_STLB TOTAL        ACCESS:    4472221 HIT:    4208808 MISS:     263413
cpu2_STLB LOAD         ACCESS:    4472221 HIT:    4208808 MISS:     263413
cpu2_STLB RFO          ACCESS:          0 HIT:          0 MISS:          0
cpu2_STLB PREFETCH     ACCESS:          0 HIT:          0 MISS:          0
cpu2_STLB WRITE        ACCESS:          0 HIT:          0 MISS:          0
cpu2_STLB TRANSLATION  ACCESS:          0 HIT:          0 MISS:          0
cpu2_STLB PREFETCH REQUESTED:          0 ISSUED:          0 USEFUL:          0 USELESS:          0
cpu2_STLB AVERAGE MISS LATENCY: 50.29 cycles
cpu2_STLB TOTAL        ACCESS:          0 HIT:          0 MISS:          0
cpu2_STLB LOAD         ACCESS:          0 HIT:          0 MISS:          0
cpu2_STLB RFO          ACCESS:          0 HIT:          0 MISS:          0
cpu2_STLB PREFETCH     ACCESS:          0 HIT:          0 MISS:          0
cpu2_STLB WRITE        ACCESS:          0 HIT:          0 MISS:          0
cpu2_STLB TRANSLATION  ACCESS:          0 HIT:          0 MISS:          0
cpu2_STLB PREFETCH REQUESTED:          0 ISSUED:          0 USEFUL:          0 USELESS:          0
cpu2_STLB AVERAGE MISS LATENCY: 50.29 cycles
cpu3_DTLB TOTAL        ACCESS:          0 HIT:          0 MISS:          0
cpu3_DTLB LOAD         ACCESS:          0 HIT:          0 MISS:          0
cpu3_DTLB RFO          ACCESS:          0 HIT:          0 MISS:          0
cpu3_DTLB PREFETCH     ACCESS:          0 HIT:          0 MISS:          0
cpu3_DTLB WRITE        ACCESS:          0 HIT:          0 MISS:          0
cpu3_DTLB TRANSLATION  ACCESS:          0 HIT:          0 MISS:          0
cpu3_DTLB PREFETCH REQUESTED:          0 ISSUED:          0 USEFUL:          0 USELESS:          0
cpu3_DTLB AVERAGE MISS LATENCY: 15.21 cycles
cpu3_DTLB TOTAL        ACCESS:          0 HIT:          0 MISS:          0
cpu3_DTLB LOAD         ACCESS:          0 HIT:          0 MISS:          0
cpu3_DTLB RFO          ACCESS:          0 HIT:          0 MISS:          0
cpu3_DTLB PREFETCH     ACCESS:          0 HIT:          0 MISS:          0
cpu3_DTLB WRITE        ACCESS:          0 HIT:          0 MISS:          0
cpu3_DTLB TRANSLATION  ACCESS:          0 HIT:          0 MISS:          0
cpu3_DTLB PREFETCH REQUESTED:          0 ISSUED:          0 USEFUL:          0 USELESS:          0
cpu3_DTLB AVERAGE MISS LATENCY: 15.21 cycles
cpu3_DTLB TOTAL        ACCESS:          0 HIT:          0 MISS:          0
cpu3_DTLB LOAD         ACCESS:          0 HIT:          0 MISS:          0
cpu3_DTLB RFO          ACCESS:          0 HIT:          0 MISS:          0
cpu3_DTLB PREFETCH     ACCESS:          0 HIT:          0 MISS:          0
cpu3_DTLB WRITE        ACCESS:          0 HIT:          0 MISS:          0
cpu3_DTLB TRANSLATION  ACCESS:          0 HIT:          0 MISS:          0
cpu3_DTLB PREFETCH REQUESTED:          0 ISSUED:          0 USEFUL:          0 USELESS:          0
cpu3_DTLB AVERAGE MISS LATENCY: 15.21 cycles
cpu3_DTLB TOTAL        ACCESS:   17976923 HIT:   17965050 MISS:      11873
cpu3_DTLB LOAD         ACCESS:   17976923 HIT:   17965050 MISS:      11873
cpu3_DTLB RFO          ACCESS:          0 HIT:          0 MISS:          0
cpu3_DTLB PREFETCH     ACCESS:          0 HIT:          0 MISS:          0
cpu3_DTLB WRITE        ACCESS:          0 HIT:          0 MISS:          0
cpu3_DTLB TRANSLATION  ACCESS:          0 HIT:          0 MISS:          0
cpu3_DTLB PREFETCH REQUESTED:          0 ISSUED:          0 USEFUL:          0 USELESS:          0
cpu3_DTLB AVERAGE MISS LATENCY: 15.21 cycles
cpu3_ITLB TOTAL        ACCESS:          0 HIT:          0 MISS:          0
cpu3_ITLB LOAD         ACCESS:          0 HIT:          0 MISS:          0
cpu3_ITLB RFO          ACCESS:          0 HIT:          0 MISS:          0
cpu3_ITLB PREFETCH     ACCESS:          0 HIT:          0 MISS:          0
cpu3_ITLB WRITE        ACCESS:          0 HIT:          0 MISS:          0
cpu3_ITLB TRANSLATION  ACCESS:          0 HIT:          0 MISS:          0
cpu3_ITLB PREFETCH REQUESTED:          0 ISSUED:          0 USEFUL:          0 USELESS:          0
cpu3_ITLB AVERAGE MISS LATENCY: -nan cycles
cpu3_ITLB TOTAL        ACCESS:          0 HIT:          0 MISS:          0
cpu3_ITLB LOAD         ACCESS:          0 HIT:          0 MISS:          0
cpu3_ITLB RFO          ACCESS:          0 HIT:          0 MISS:          0
cpu3_ITLB PREFETCH     ACCESS:          0 HIT:          0 MISS:          0
cpu3_ITLB WRITE        ACCESS:          0 HIT:          0 MISS:          0
cpu3_ITLB TRANSLATION  ACCESS:          0 HIT:          0 MISS:          0
cpu3_ITLB PREFETCH REQUESTED:          0 ISSUED:          0 USEFUL:          0 USELESS:          0
cpu3_ITLB AVERAGE MISS LATENCY: -nan cycles
cpu3_ITLB TOTAL        ACCESS:          0 HIT:          0 MISS:          0
cpu3_ITLB LOAD         ACCESS:          0 HIT:          0 MISS:          0
cpu3_ITLB RFO          ACCESS:          0 HIT:          0 MISS:          0
cpu3_ITLB PREFETCH     ACCESS:          0 HIT:          0 MISS:          0
cpu3_ITLB WRITE        ACCESS:          0 HIT:          0 MISS:          0
cpu3_ITLB TRANSLATION  ACCESS:          0 HIT:          0 MISS:          0
cpu3_ITLB PREFETCH REQUESTED:          0 ISSUED:          0 USEFUL:          0 USELESS:          0
cpu3_ITLB AVERAGE MISS LATENCY: -nan cycles
cpu3_ITLB TOTAL        ACCESS:     519768 HIT:     519768 MISS:          0
cpu3_ITLB LOAD         ACCESS:     519768 HIT:     519768 MISS:          0
cpu3_ITLB RFO          ACCESS:          0 HIT:          0 MISS:          0
cpu3_ITLB PREFETCH     ACCESS:          0 HIT:          0 MISS:          0
cpu3_ITLB WRITE        ACCESS:          0 HIT:          0 MISS:          0
cpu3_ITLB TRANSLATION  ACCESS:          0 HIT:          0 MISS:          0
cpu3_ITLB PREFETCH REQUESTED:          0 ISSUED:          0 USEFUL:          0 USELESS:          0
cpu3_ITLB AVERAGE MISS LATENCY: -nan cycles
cpu3_L1D TOTAL        ACCESS:          0 HIT:          0 MISS:          0
cpu3_L1D LOAD         ACCESS:          0 HIT:          0 MISS:          0
cpu3_L1D RFO          ACCESS:          0 HIT:          0 MISS:          0
cpu3_L1D PREFETCH     ACCESS:          0 HIT:          0 MISS:          0
cpu3_L1D WRITE        ACCESS:          0 HIT:          0 MISS:          0
cpu3_L1D TRANSLATION  ACCESS:          0 HIT:          0 MISS:          0
cpu3_L1D PREFETCH REQUESTED:          0 ISSUED:          0 USEFUL:          0 USELESS:          0
cpu3_L1D AVERAGE MISS LATENCY: 154.1 cycles
cpu3_L1D TOTAL        ACCESS:          0 HIT:          0 MISS:          0
cpu3_L1D LOAD         ACCESS:          0 HIT:          0 MISS:          0
cpu3_L1D RFO          ACCESS:          0 HIT:          0 MISS:          0
cpu3_L1D PREFETCH     ACCESS:          0 HIT:          0 MISS:          0
cpu3_L1D WRITE        ACCESS:          0 HIT:          0 MISS:          0
cpu3_L1D TRANSLATION  ACCESS:          0 HIT:          0 MISS:          0
cpu3_L1D PREFETCH REQUESTED:          0 ISSUED:          0 USEFUL:          0 USELESS:          0
cpu3_L1D AVERAGE MISS LATENCY: 154.1 cycles
cpu3_L1D TOTAL        ACCESS:          0 HIT:          0 MISS:          0
cpu3_L1D LOAD         ACCESS:          0 HIT:          0 MISS:          0
cpu3_L1D RFO          ACCESS:          0 HIT:          0 MISS:          0
cpu3_L1D PREFETCH     ACCESS:          0 HIT:          0 MISS:          0
cpu3_L1D WRITE        ACCESS:          0 HIT:          0 MISS:          0
cpu3_L1D TRANSLATION  ACCESS:          0 HIT:          0 MISS:          0
cpu3_L1D PREFETCH REQUESTED:          0 ISSUED:          0 USEFUL:          0 USELESS:          0
cpu3_L1D AVERAGE MISS LATENCY: 154.1 cycles
cpu3_L1D TOTAL        ACCESS:   22074112 HIT:   22064438 MISS:       9674
cpu3_L1D LOAD         ACCESS:   16472104 HIT:   16469433 MISS:       2671
cpu3_L1D RFO          ACCESS:          0 HIT:          0 MISS:          0
cpu3_L1D PREFETCH     ACCESS:          0 HIT:          0 MISS:          0
cpu3_L1D WRITE        ACCESS:    5601833 HIT:    5594987 MISS:       6846
cpu3_L1D TRANSLATION  ACCESS:        175 HIT:         18 MISS:        157
cpu3_L1D PREFETCH REQUESTED:          0 ISSUED:          0 USEFUL:          0 USELESS:          0
cpu3_L1D AVERAGE MISS LATENCY: 154.1 cycles
cpu3_L1I TOTAL        ACCESS:          0 HIT:          0 MISS:          0
cpu3_L1I LOAD         ACCESS:          0 HIT:          0 MISS:          0
cpu3_L1I RFO          ACCESS:          0 HIT:          0 MISS:          0
cpu3_L1I PREFETCH     ACCESS:          0 HIT:          0 MISS:          0
cpu3_L1I WRITE        ACCESS:          0 HIT:          0 MISS:          0
cpu3_L1I TRANSLATION  ACCESS:          0 HIT:          0 MISS:          0
cpu3_L1I PREFETCH REQUESTED:          0 ISSUED:          0 USEFUL:          0 USELESS:          0
cpu3_L1I AVERAGE MISS LATENCY: 7.424 cycles
cpu3_L1I TOTAL        ACCESS:          0 HIT:          0 MISS:          0
cpu3_L1I LOAD         ACCESS:          0 HIT:          0 MISS:          0
cpu3_L1I RFO          ACCESS:          0 HIT:          0 MISS:          0
cpu3_L1I PREFETCH     ACCESS:          0 HIT:          0 MISS:          0
cpu3_L1I WRITE        ACCESS:          0 HIT:          0 MISS:          0
cpu3_L1I TRANSLATION  ACCESS:          0 HIT:          0 MISS:          0
cpu3_L1I PREFETCH REQUESTED:          0 ISSUED:          0 USEFUL:          0 USELESS:          0
cpu3_L1I AVERAGE MISS LATENCY: 7.424 cycles
cpu3_L1I TOTAL        ACCESS:          0 HIT:          0 MISS:          0
cpu3_L1I LOAD         ACCESS:          0 HIT:          0 MISS:          0
cpu3_L1I RFO          ACCESS:          0 HIT:          0 MISS:          0
cpu3_L1I PREFETCH     ACCESS:          0 HIT:          0 MISS:          0
cpu3_L1I WRITE        ACCESS:          0 HIT:          0 MISS:          0
cpu3_L1I TRANSLATION  ACCESS:          0 HIT:          0 MISS:          0
cpu3_L1I PREFETCH REQUESTED:          0 ISSUED:          0 USEFUL:          0 USELESS:          0
cpu3_L1I AVERAGE MISS LATENCY: 7.424 cycles
cpu3_L1I TOTAL        ACCESS:     578839 HIT:     577329 MISS:       1510
cpu3_L1I LOAD         ACCESS:     578839 HIT:     577329 MISS:       1510
cpu3_L1I RFO          ACCESS:          0 HIT:          0 MISS:          0
cpu3_L1I PREFETCH     ACCESS:          0 HIT:          0 MISS:          0
cpu3_L1I WRITE        ACCESS:          0 HIT:          0 MISS:          0
cpu3_L1I TRANSLATION  ACCESS:          0 HIT:          0 MISS:          0
cpu3_L1I PREFETCH REQUESTED:          0 ISSUED:          0 USEFUL:          0 USELESS:          0
cpu3_L1I AVERAGE MISS LATENCY: 7.424 cycles
cpu3_L2C TOTAL        ACCESS:          0 HIT:          0 MISS:          0
cpu3_L2C LOAD         ACCESS:          0 HIT:          0 MISS:          0
cpu3_L2C RFO          ACCESS:          0 HIT:          0 MISS:          0
cpu3_L2C PREFETCH     ACCESS:          0 HIT:          0 MISS:          0
cpu3_L2C WRITE        ACCESS:          0 HIT:          0 MISS:          0
cpu3_L2C TRANSLATION  ACCESS:          0 HIT:          0 MISS:          0
cpu3_L2C PREFETCH REQUESTED:       7819 ISSUED:       7819 USEFUL:        165 USELESS:         14
cpu3_L2C AVERAGE MISS LATENCY: 224.4 cycles
cpu3_L2C TOTAL        ACCESS:          0 HIT:          0 MISS:          0
cpu3_L2C LOAD         ACCESS:          0 HIT:          0 MISS:          0
cpu3_L2C RFO          ACCESS:          0 HIT:          0 MISS:          0
cpu3_L2C PREFETCH     ACCESS:          0 HIT:          0 MISS:          0
cpu3_L2C WRITE        ACCESS:          0 HIT:          0 MISS:          0
cpu3_L2C TRANSLATION  ACCESS:          0 HIT:          0 MISS:          0
cpu3_L2C PREFETCH REQUESTED:       7819 ISSUED:       7819 USEFUL:        165 USELESS:         14
cpu3_L2C AVERAGE MISS LATENCY: 224.4 cycles
cpu3_L2C TOTAL        ACCESS:          0 HIT:          0 MISS:          0
cpu3_L2C LOAD         ACCESS:          0 HIT:          0 MISS:          0
cpu3_L2C RFO          ACCESS:          0 HIT:          0 MISS:          0
cpu3_L2C PREFETCH     ACCESS:          0 HIT:          0 MISS:          0
cpu3_L2C WRITE        ACCESS:          0 HIT:          0 MISS:          0
cpu3_L2C TRANSLATION  ACCESS:          0 HIT:          0 MISS:          0
cpu3_L2C PREFETCH REQUESTED:       7819 ISSUED:       7819 USEFUL:        165 USELESS:         14
cpu3_L2C AVERAGE MISS LATENCY: 224.4 cycles
cpu3_L2C TOTAL        ACCESS:      14757 HIT:       6433 MISS:       8324
cpu3_L2C LOAD         ACCESS:       2937 HIT:       1368 MISS:       1569
cpu3_L2C RFO          ACCESS:       2688 HIT:         72 MISS:       2616
cpu3_L2C PREFETCH     ACCESS:       5767 HIT:       1728 MISS:       4039
cpu3_L2C WRITE        ACCESS:       3208 HIT:       3208 MISS:          0
cpu3_L2C TRANSLATION  ACCESS:        157 HIT:         57 MISS:        100
cpu3_L2C PREFETCH REQUESTED:       7819 ISSUED:       7819 USEFUL:        165 USELESS:         14
cpu3_L2C AVERAGE MISS LATENCY: 224.4 cycles
cpu3_STLB TOTAL        ACCESS:          0 HIT:          0 MISS:          0
cpu3_STLB LOAD         ACCESS:          0 HIT:          0 MISS:          0
cpu3_STLB RFO          ACCESS:          0 HIT:          0 MISS:          0
cpu3_STLB PREFETCH     ACCESS:          0 HIT:          0 MISS:          0
cpu3_STLB WRITE        ACCESS:          0 HIT:          0 MISS:          0
cpu3_STLB TRANSLATION  ACCESS:          0 HIT:          0 MISS:          0
cpu3_STLB PREFETCH REQUESTED:          0 ISSUED:          0 USEFUL:          0 USELESS:          0
cpu3_STLB AVERAGE MISS LATENCY: 615.3 cycles
cpu3_STLB TOTAL        ACCESS:          0 HIT:          0 MISS:          0
cpu3_STLB LOAD         ACCESS:          0 HIT:          0 MISS:          0
cpu3_STLB RFO          ACCESS:          0 HIT:          0 MISS:          0
cpu3_STLB PREFETCH     ACCESS:          0 HIT:          0 MISS:          0
cpu3_STLB WRITE        ACCESS:          0 HIT:          0 MISS:          0
cpu3_STLB TRANSLATION  ACCESS:          0 HIT:          0 MISS:          0
cpu3_STLB PREFETCH REQUESTED:          0 ISSUED:          0 USEFUL:          0 USELESS:          0
cpu3_STLB AVERAGE MISS LATENCY: 615.3 cycles
cpu3_STLB TOTAL        ACCESS:          0 HIT:          0 MISS:          0
cpu3_STLB LOAD         ACCESS:          0 HIT:          0 MISS:          0
cpu3_STLB RFO          ACCESS:          0 HIT:          0 MISS:          0
cpu3_STLB PREFETCH     ACCESS:          0 HIT:          0 MISS:          0
cpu3_STLB WRITE        ACCESS:          0 HIT:          0 MISS:          0
cpu3_STLB TRANSLATION  ACCESS:          0 HIT:          0 MISS:          0
cpu3_STLB PREFETCH REQUESTED:          0 ISSUED:          0 USEFUL:          0 USELESS:          0
cpu3_STLB AVERAGE MISS LATENCY: 615.3 cycles
cpu3_STLB TOTAL        ACCESS:      10574 HIT:      10399 MISS:        175
cpu3_STLB LOAD         ACCESS:      10574 HIT:      10399 MISS:        175
cpu3_STLB RFO          ACCESS:          0 HIT:          0 MISS:          0
cpu3_STLB PREFETCH     ACCESS:          0 HIT:          0 MISS:          0
cpu3_STLB WRITE        ACCESS:          0 HIT:          0 MISS:          0
cpu3_STLB TRANSLATION  ACCESS:          0 HIT:          0 MISS:          0
cpu3_STLB PREFETCH REQUESTED:          0 ISSUED:          0 USEFUL:          0 USELESS:          0
cpu3_STLB AVERAGE MISS LATENCY: 615.3 cycles

DRAM Statistics

Channel 0 RQ ROW_BUFFER_HIT:      82735
  ROW_BUFFER_MISS:     825916
 AVG DBUS CONGESTED CYCLE: 3.962
WQ ROW_BUFFER_HIT: Channel 0 
  ROW_BUFFER_MISS:      45971
  FULL:     774199

Channel 1 RQ ROW_BUFFER_HIT:      82142
  ROW_BUFFER_MISS:     827248
 AVG DBUS CONGESTED CYCLE: 3.97
WQ ROW_BUFFER_HIT: Channel 1 
  ROW_BUFFER_MISS:      45219
  FULL:     775002
