WARNING: physical memory size is smaller than virtual memory size.
WARNING: option --warmup_instructions is deprecated. Use --warmup-instructions instead.
WARNING: option --simulation_instructions is deprecated. Use --simulation-instructions instead.

*** ChampSim Multicore Out-of-Order Simulator ***
Warmup Instructions: 50000000
Simulation Instructions: 150000000
Number of CPUs: 4
Page size: 4096

Berti Prefetcher
BERTI HASH ORIGINAL
BERTI IP MASK ffff
Berti Prefetcher
BERTI HASH ORIGINAL
BERTI IP MASK ffff
Berti Prefetcher
BERTI HASH ORIGINAL
BERTI IP MASK ffff
Berti Prefetcher
BERTI HASH ORIGINAL
BERTI IP MASK ffff
Off-chip DRAM Size: 4 GiB Channels: 1 Width: 64-bit Data Race: 3200 MT/s
Heartbeat CPU 2 instructions: 10000001 cycles: 2500046 heartbeat IPC: 4 cumulative IPC: 4 (Simulation time: 00 hr 02 min 15 sec)
Heartbeat CPU 1 instructions: 10000003 cycles: 2521875 heartbeat IPC: 3.965 cumulative IPC: 3.965 (Simulation time: 00 hr 02 min 16 sec)
Heartbeat CPU 3 instructions: 10000003 cycles: 2711682 heartbeat IPC: 3.688 cumulative IPC: 3.688 (Simulation time: 00 hr 02 min 27 sec)
Heartbeat CPU 0 instructions: 10000002 cycles: 4175189 heartbeat IPC: 2.395 cumulative IPC: 2.395 (Simulation time: 00 hr 03 min 46 sec)
Heartbeat CPU 2 instructions: 20000001 cycles: 5000046 heartbeat IPC: 4 cumulative IPC: 4 (Simulation time: 00 hr 04 min 33 sec)
Heartbeat CPU 1 instructions: 20000001 cycles: 5038237 heartbeat IPC: 3.974 cumulative IPC: 3.97 (Simulation time: 00 hr 04 min 35 sec)
Heartbeat CPU 3 instructions: 20000003 cycles: 5231397 heartbeat IPC: 3.969 cumulative IPC: 3.823 (Simulation time: 00 hr 04 min 46 sec)
Heartbeat CPU 2 instructions: 30000001 cycles: 7500046 heartbeat IPC: 4 cumulative IPC: 4 (Simulation time: 00 hr 06 min 51 sec)
Heartbeat CPU 1 instructions: 30000001 cycles: 7553266 heartbeat IPC: 3.976 cumulative IPC: 3.972 (Simulation time: 00 hr 06 min 54 sec)
Heartbeat CPU 3 instructions: 30000000 cycles: 7750742 heartbeat IPC: 3.969 cumulative IPC: 3.871 (Simulation time: 00 hr 07 min 04 sec)
Heartbeat CPU 0 instructions: 20000004 cycles: 8346923 heartbeat IPC: 2.397 cumulative IPC: 2.396 (Simulation time: 00 hr 07 min 37 sec)
Heartbeat CPU 2 instructions: 40000001 cycles: 10000046 heartbeat IPC: 4 cumulative IPC: 4 (Simulation time: 00 hr 09 min 08 sec)
Heartbeat CPU 1 instructions: 40000003 cycles: 10077277 heartbeat IPC: 3.962 cumulative IPC: 3.969 (Simulation time: 00 hr 09 min 12 sec)
Heartbeat CPU 3 instructions: 40000003 cycles: 10280918 heartbeat IPC: 3.952 cumulative IPC: 3.891 (Simulation time: 00 hr 09 min 24 sec)
Heartbeat CPU 2 instructions: 50000001 cycles: 12500046 heartbeat IPC: 4 cumulative IPC: 4 (Simulation time: 00 hr 11 min 28 sec)
Warmup finished CPU 2 instructions: 50000001 cycles: 12500047 cumulative IPC: 4 (Simulation time: 00 hr 11 min 28 sec)
Heartbeat CPU 0 instructions: 30000001 cycles: 12520005 heartbeat IPC: 2.396 cumulative IPC: 2.396 (Simulation time: 00 hr 11 min 29 sec)
Heartbeat CPU 1 instructions: 50000000 cycles: 12599099 heartbeat IPC: 3.965 cumulative IPC: 3.969 (Simulation time: 00 hr 11 min 34 sec)
Warmup finished CPU 1 instructions: 50000000 cycles: 12599100 cumulative IPC: 3.969 (Simulation time: 00 hr 11 min 34 sec)
Heartbeat CPU 3 instructions: 50000003 cycles: 12883612 heartbeat IPC: 3.842 cumulative IPC: 3.881 (Simulation time: 00 hr 11 min 49 sec)
Warmup finished CPU 3 instructions: 50000003 cycles: 12883613 cumulative IPC: 3.881 (Simulation time: 00 hr 11 min 49 sec)
Heartbeat CPU 2 instructions: 60000001 cycles: 15000046 heartbeat IPC: 4 cumulative IPC: 4 (Simulation time: 00 hr 13 min 48 sec)
Heartbeat CPU 1 instructions: 60000002 cycles: 15124094 heartbeat IPC: 3.96 cumulative IPC: 3.967 (Simulation time: 00 hr 13 min 55 sec)
Heartbeat CPU 3 instructions: 60000002 cycles: 15502091 heartbeat IPC: 3.819 cumulative IPC: 3.87 (Simulation time: 00 hr 14 min 15 sec)
Heartbeat CPU 0 instructions: 40000000 cycles: 16707210 heartbeat IPC: 2.388 cumulative IPC: 2.394 (Simulation time: 00 hr 15 min 23 sec)
Heartbeat CPU 2 instructions: 70000001 cycles: 17500046 heartbeat IPC: 4 cumulative IPC: 4 (Simulation time: 00 hr 16 min 07 sec)
Heartbeat CPU 1 instructions: 70000000 cycles: 17648868 heartbeat IPC: 3.961 cumulative IPC: 3.966 (Simulation time: 00 hr 16 min 15 sec)
Heartbeat CPU 3 instructions: 70000000 cycles: 18080091 heartbeat IPC: 3.879 cumulative IPC: 3.872 (Simulation time: 00 hr 16 min 39 sec)
Heartbeat CPU 2 instructions: 80000001 cycles: 20000046 heartbeat IPC: 4 cumulative IPC: 4 (Simulation time: 00 hr 18 min 27 sec)
Heartbeat CPU 1 instructions: 80000001 cycles: 20174084 heartbeat IPC: 3.96 cumulative IPC: 3.965 (Simulation time: 00 hr 18 min 37 sec)
Heartbeat CPU 3 instructions: 80000000 cycles: 20640585 heartbeat IPC: 3.905 cumulative IPC: 3.876 (Simulation time: 00 hr 19 min 05 sec)
Heartbeat CPU 0 instructions: 50000003 cycles: 20873812 heartbeat IPC: 2.4 cumulative IPC: 2.395 (Simulation time: 00 hr 19 min 18 sec)
Warmup finished CPU 0 instructions: 50000003 cycles: 20873813 cumulative IPC: 2.395 (Simulation time: 00 hr 19 min 18 sec)
Warmup complete CPU 0 instructions: 50000003 cycles: 20873813 cumulative IPC: 2.395 (Simulation time: 00 hr 19 min 18 sec)
Warmup complete CPU 1 instructions: 82770106 cycles: 20873813 cumulative IPC: 3.965 (Simulation time: 00 hr 19 min 18 sec)
Warmup complete CPU 2 instructions: 83495065 cycles: 20873813 cumulative IPC: 4 (Simulation time: 00 hr 19 min 18 sec)
Warmup complete CPU 3 instructions: 80850579 cycles: 20873813 cumulative IPC: 3.873 (Simulation time: 00 hr 19 min 18 sec)
Heartbeat CPU 1 instructions: 90000001 cycles: 24020957 heartbeat IPC: 2.6 cumulative IPC: 2.297 (Simulation time: 00 hr 21 min 17 sec)
Heartbeat CPU 3 instructions: 90000003 cycles: 25170204 heartbeat IPC: 2.208 cumulative IPC: 2.13 (Simulation time: 00 hr 22 min 01 sec)
Heartbeat CPU 2 instructions: 90000004 cycles: 26047481 heartbeat IPC: 1.654 cumulative IPC: 1.257 (Simulation time: 00 hr 22 min 33 sec)
Heartbeat CPU 1 instructions: 100000000 cycles: 28377960 heartbeat IPC: 2.295 cumulative IPC: 2.296 (Simulation time: 00 hr 23 min 55 sec)
Heartbeat CPU 1 instructions: 110000004 cycles: 32862556 heartbeat IPC: 2.23 cumulative IPC: 2.271 (Simulation time: 00 hr 26 min 12 sec)
Heartbeat CPU 1 instructions: 120000001 cycles: 37177629 heartbeat IPC: 2.317 cumulative IPC: 2.284 (Simulation time: 00 hr 28 min 26 sec)
Heartbeat CPU 2 instructions: 100000002 cycles: 39032782 heartbeat IPC: 0.7701 cumulative IPC: 0.9089 (Simulation time: 00 hr 29 min 23 sec)
Heartbeat CPU 1 instructions: 130000000 cycles: 41714452 heartbeat IPC: 2.204 cumulative IPC: 2.266 (Simulation time: 00 hr 30 min 41 sec)
Heartbeat CPU 3 instructions: 100000001 cycles: 44091454 heartbeat IPC: 0.5285 cumulative IPC: 0.8248 (Simulation time: 00 hr 31 min 49 sec)
Heartbeat CPU 1 instructions: 140000002 cycles: 46252395 heartbeat IPC: 2.204 cumulative IPC: 2.255 (Simulation time: 00 hr 32 min 47 sec)
Heartbeat CPU 1 instructions: 150000002 cycles: 50792331 heartbeat IPC: 2.203 cumulative IPC: 2.247 (Simulation time: 00 hr 34 min 49 sec)
Heartbeat CPU 1 instructions: 160000001 cycles: 55414965 heartbeat IPC: 2.163 cumulative IPC: 2.236 (Simulation time: 00 hr 36 min 51 sec)
Heartbeat CPU 1 instructions: 170000000 cycles: 59953062 heartbeat IPC: 2.204 cumulative IPC: 2.232 (Simulation time: 00 hr 38 min 51 sec)
Heartbeat CPU 2 instructions: 110000001 cycles: 64304625 heartbeat IPC: 0.3957 cumulative IPC: 0.6103 (Simulation time: 00 hr 40 min 44 sec)
Heartbeat CPU 1 instructions: 180000000 cycles: 64640058 heartbeat IPC: 2.134 cumulative IPC: 2.222 (Simulation time: 00 hr 40 min 53 sec)
Heartbeat CPU 1 instructions: 190000000 cycles: 69259841 heartbeat IPC: 2.165 cumulative IPC: 2.216 (Simulation time: 00 hr 42 min 54 sec)
Heartbeat CPU 1 instructions: 200000004 cycles: 73812010 heartbeat IPC: 2.197 cumulative IPC: 2.214 (Simulation time: 00 hr 45 min 01 sec)
Heartbeat CPU 1 instructions: 210000001 cycles: 78547223 heartbeat IPC: 2.112 cumulative IPC: 2.206 (Simulation time: 00 hr 47 min 21 sec)
Heartbeat CPU 1 instructions: 220000002 cycles: 83524637 heartbeat IPC: 2.009 cumulative IPC: 2.19 (Simulation time: 00 hr 49 min 36 sec)
Heartbeat CPU 1 instructions: 230000000 cycles: 88227118 heartbeat IPC: 2.127 cumulative IPC: 2.186 (Simulation time: 00 hr 51 min 43 sec)
Simulation finished CPU 1 instructions: 150000000 cycles: 68662424 cumulative IPC: 2.185 (Simulation time: 00 hr 52 min 19 sec)
Heartbeat CPU 1 instructions: 240000001 cycles: 92939917 heartbeat IPC: 2.122 cumulative IPC: 2.182 (Simulation time: 00 hr 53 min 56 sec)
Heartbeat CPU 2 instructions: 120000002 cycles: 94056752 heartbeat IPC: 0.3361 cumulative IPC: 0.4988 (Simulation time: 00 hr 54 min 31 sec)
Heartbeat CPU 3 instructions: 110000001 cycles: 96797981 heartbeat IPC: 0.1897 cumulative IPC: 0.3839 (Simulation time: 00 hr 56 min 00 sec)
Heartbeat CPU 1 instructions: 250000001 cycles: 97551535 heartbeat IPC: 2.168 cumulative IPC: 2.181 (Simulation time: 00 hr 56 min 25 sec)
Heartbeat CPU 1 instructions: 260000000 cycles: 102021680 heartbeat IPC: 2.237 cumulative IPC: 2.184 (Simulation time: 00 hr 59 min 04 sec)
Heartbeat CPU 3 instructions: 120000003 cycles: 102289325 heartbeat IPC: 1.821 cumulative IPC: 0.4809 (Simulation time: 00 hr 59 min 13 sec)
Heartbeat CPU 2 instructions: 130000002 cycles: 104722290 heartbeat IPC: 0.9376 cumulative IPC: 0.5546 (Simulation time: 01 hr 00 min 42 sec)
Heartbeat CPU 3 instructions: 130000002 cycles: 106141042 heartbeat IPC: 2.596 cumulative IPC: 0.5764 (Simulation time: 01 hr 01 min 35 sec)
Heartbeat CPU 1 instructions: 270000003 cycles: 106545736 heartbeat IPC: 2.21 cumulative IPC: 2.185 (Simulation time: 01 hr 01 min 50 sec)
Heartbeat CPU 3 instructions: 140000000 cycles: 109933732 heartbeat IPC: 2.637 cumulative IPC: 0.6642 (Simulation time: 01 hr 03 min 52 sec)
Heartbeat CPU 1 instructions: 280000000 cycles: 111000696 heartbeat IPC: 2.245 cumulative IPC: 2.188 (Simulation time: 01 hr 04 min 28 sec)
Heartbeat CPU 2 instructions: 140000000 cycles: 114590100 heartbeat IPC: 1.013 cumulative IPC: 0.6029 (Simulation time: 01 hr 06 min 30 sec)
Heartbeat CPU 1 instructions: 290000001 cycles: 115450769 heartbeat IPC: 2.247 cumulative IPC: 2.191 (Simulation time: 01 hr 06 min 59 sec)
Heartbeat CPU 3 instructions: 150000003 cycles: 115525190 heartbeat IPC: 1.788 cumulative IPC: 0.7306 (Simulation time: 01 hr 07 min 01 sec)
Heartbeat CPU 1 instructions: 300000002 cycles: 119936308 heartbeat IPC: 2.229 cumulative IPC: 2.193 (Simulation time: 01 hr 09 min 32 sec)
Heartbeat CPU 3 instructions: 160000000 cycles: 121281233 heartbeat IPC: 1.737 cumulative IPC: 0.7883 (Simulation time: 01 hr 10 min 20 sec)
Heartbeat CPU 2 instructions: 150000004 cycles: 123973856 heartbeat IPC: 1.066 cumulative IPC: 0.6451 (Simulation time: 01 hr 11 min 50 sec)
Heartbeat CPU 1 instructions: 310000003 cycles: 124357078 heartbeat IPC: 2.262 cumulative IPC: 2.196 (Simulation time: 01 hr 12 min 03 sec)
Heartbeat CPU 3 instructions: 170000000 cycles: 127672380 heartbeat IPC: 1.565 cumulative IPC: 0.8347 (Simulation time: 01 hr 13 min 55 sec)
Heartbeat CPU 1 instructions: 320000002 cycles: 128840211 heartbeat IPC: 2.231 cumulative IPC: 2.197 (Simulation time: 01 hr 14 min 37 sec)
Heartbeat CPU 0 instructions: 60000000 cycles: 130996695 heartbeat IPC: 0.09081 cumulative IPC: 0.09081 (Simulation time: 01 hr 15 min 52 sec)
Heartbeat CPU 1 instructions: 330000004 cycles: 133401194 heartbeat IPC: 2.193 cumulative IPC: 2.197 (Simulation time: 01 hr 17 min 09 sec)
Heartbeat CPU 3 instructions: 180000000 cycles: 134131401 heartbeat IPC: 1.548 cumulative IPC: 0.8754 (Simulation time: 01 hr 17 min 33 sec)
Heartbeat CPU 2 instructions: 160000004 cycles: 134141989 heartbeat IPC: 0.9835 cumulative IPC: 0.6754 (Simulation time: 01 hr 17 min 34 sec)
Heartbeat CPU 1 instructions: 340000001 cycles: 137915367 heartbeat IPC: 2.215 cumulative IPC: 2.198 (Simulation time: 01 hr 19 min 43 sec)
Heartbeat CPU 3 instructions: 190000003 cycles: 139341409 heartbeat IPC: 1.919 cumulative IPC: 0.9213 (Simulation time: 01 hr 20 min 34 sec)
Heartbeat CPU 1 instructions: 350000001 cycles: 142471357 heartbeat IPC: 2.195 cumulative IPC: 2.198 (Simulation time: 01 hr 22 min 18 sec)
Heartbeat CPU 2 instructions: 170000004 cycles: 143912181 heartbeat IPC: 1.024 cumulative IPC: 0.7031 (Simulation time: 01 hr 23 min 01 sec)
Heartbeat CPU 1 instructions: 360000004 cycles: 147073882 heartbeat IPC: 2.173 cumulative IPC: 2.197 (Simulation time: 01 hr 24 min 36 sec)
Heartbeat CPU 1 instructions: 370000000 cycles: 151551712 heartbeat IPC: 2.233 cumulative IPC: 2.198 (Simulation time: 01 hr 26 min 52 sec)
Heartbeat CPU 3 instructions: 200000004 cycles: 154283577 heartbeat IPC: 0.6692 cumulative IPC: 0.8931 (Simulation time: 01 hr 28 min 15 sec)
Heartbeat CPU 1 instructions: 380000000 cycles: 156082510 heartbeat IPC: 2.207 cumulative IPC: 2.198 (Simulation time: 01 hr 29 min 08 sec)
Heartbeat CPU 2 instructions: 180000001 cycles: 156164620 heartbeat IPC: 0.8162 cumulative IPC: 0.7133 (Simulation time: 01 hr 29 min 11 sec)
Heartbeat CPU 1 instructions: 390000000 cycles: 160628859 heartbeat IPC: 2.2 cumulative IPC: 2.198 (Simulation time: 01 hr 31 min 22 sec)
Heartbeat CPU 1 instructions: 400000000 cycles: 165261845 heartbeat IPC: 2.158 cumulative IPC: 2.197 (Simulation time: 01 hr 33 min 28 sec)
Heartbeat CPU 1 instructions: 410000000 cycles: 169843331 heartbeat IPC: 2.183 cumulative IPC: 2.197 (Simulation time: 01 hr 35 min 39 sec)
Heartbeat CPU 1 instructions: 420000004 cycles: 174452439 heartbeat IPC: 2.17 cumulative IPC: 2.196 (Simulation time: 01 hr 37 min 47 sec)
Heartbeat CPU 1 instructions: 430000002 cycles: 179197400 heartbeat IPC: 2.107 cumulative IPC: 2.193 (Simulation time: 01 hr 39 min 59 sec)
Heartbeat CPU 2 instructions: 190000001 cycles: 180262708 heartbeat IPC: 0.415 cumulative IPC: 0.6682 (Simulation time: 01 hr 40 min 29 sec)
Heartbeat CPU 1 instructions: 440000003 cycles: 183920221 heartbeat IPC: 2.117 cumulative IPC: 2.191 (Simulation time: 01 hr 42 min 12 sec)
Heartbeat CPU 1 instructions: 450000003 cycles: 188478377 heartbeat IPC: 2.194 cumulative IPC: 2.191 (Simulation time: 01 hr 44 min 24 sec)
Heartbeat CPU 1 instructions: 460000003 cycles: 193231854 heartbeat IPC: 2.104 cumulative IPC: 2.189 (Simulation time: 01 hr 46 min 40 sec)
Heartbeat CPU 1 instructions: 470000002 cycles: 197594755 heartbeat IPC: 2.292 cumulative IPC: 2.191 (Simulation time: 01 hr 48 min 41 sec)
Heartbeat CPU 1 instructions: 480000000 cycles: 202119983 heartbeat IPC: 2.21 cumulative IPC: 2.192 (Simulation time: 01 hr 50 min 47 sec)
Heartbeat CPU 1 instructions: 490000002 cycles: 206463240 heartbeat IPC: 2.302 cumulative IPC: 2.194 (Simulation time: 01 hr 52 min 47 sec)
Heartbeat CPU 2 instructions: 200000000 cycles: 209165138 heartbeat IPC: 0.346 cumulative IPC: 0.6187 (Simulation time: 01 hr 54 min 04 sec)
Heartbeat CPU 1 instructions: 500000000 cycles: 210864255 heartbeat IPC: 2.272 cumulative IPC: 2.196 (Simulation time: 01 hr 54 min 54 sec)
Heartbeat CPU 3 instructions: 210000003 cycles: 211773801 heartbeat IPC: 0.1739 cumulative IPC: 0.6765 (Simulation time: 01 hr 55 min 24 sec)
Heartbeat CPU 1 instructions: 510000004 cycles: 215183547 heartbeat IPC: 2.315 cumulative IPC: 2.199 (Simulation time: 01 hr 57 min 20 sec)
Heartbeat CPU 3 instructions: 220000001 cycles: 217336679 heartbeat IPC: 1.798 cumulative IPC: 0.7083 (Simulation time: 01 hr 58 min 36 sec)
Heartbeat CPU 1 instructions: 520000000 cycles: 219566102 heartbeat IPC: 2.282 cumulative IPC: 2.201 (Simulation time: 02 hr 00 min 01 sec)
Heartbeat CPU 2 instructions: 210000000 cycles: 220042864 heartbeat IPC: 0.9193 cumulative IPC: 0.6352 (Simulation time: 02 hr 00 min 18 sec)
Heartbeat CPU 3 instructions: 230000001 cycles: 221049877 heartbeat IPC: 2.693 cumulative IPC: 0.7451 (Simulation time: 02 hr 00 min 55 sec)
Simulation finished CPU 3 instructions: 150000003 cycles: 200503470 cumulative IPC: 0.7481 (Simulation time: 02 hr 01 min 08 sec)
Heartbeat CPU 3 instructions: 240000000 cycles: 225442295 heartbeat IPC: 2.277 cumulative IPC: 0.778 (Simulation time: 02 hr 03 min 23 sec)
Heartbeat CPU 1 instructions: 530000002 cycles: 227001444 heartbeat IPC: 1.345 cumulative IPC: 2.17 (Simulation time: 02 hr 04 min 15 sec)
Heartbeat CPU 3 instructions: 250000004 cycles: 231796574 heartbeat IPC: 1.574 cumulative IPC: 0.8019 (Simulation time: 02 hr 06 min 59 sec)
Heartbeat CPU 1 instructions: 540000003 cycles: 233204711 heartbeat IPC: 1.612 cumulative IPC: 2.153 (Simulation time: 02 hr 07 min 50 sec)
Heartbeat CPU 2 instructions: 220000002 cycles: 235298605 heartbeat IPC: 0.6555 cumulative IPC: 0.6366 (Simulation time: 02 hr 09 min 05 sec)
Heartbeat CPU 1 instructions: 550000001 cycles: 237538353 heartbeat IPC: 2.308 cumulative IPC: 2.156 (Simulation time: 02 hr 10 min 28 sec)
Heartbeat CPU 3 instructions: 260000002 cycles: 237669955 heartbeat IPC: 1.703 cumulative IPC: 0.8263 (Simulation time: 02 hr 10 min 33 sec)
Heartbeat CPU 1 instructions: 560000002 cycles: 241920856 heartbeat IPC: 2.282 cumulative IPC: 2.159 (Simulation time: 02 hr 13 min 13 sec)
Heartbeat CPU 3 instructions: 270000000 cycles: 243506046 heartbeat IPC: 1.713 cumulative IPC: 0.8496 (Simulation time: 02 hr 14 min 11 sec)
Heartbeat CPU 2 instructions: 230000003 cycles: 243971876 heartbeat IPC: 1.153 cumulative IPC: 0.6567 (Simulation time: 02 hr 14 min 29 sec)
Heartbeat CPU 1 instructions: 570000001 cycles: 246264587 heartbeat IPC: 2.302 cumulative IPC: 2.162 (Simulation time: 02 hr 15 min 51 sec)
Heartbeat CPU 0 instructions: 70000002 cycles: 246908053 heartbeat IPC: 0.08627 cumulative IPC: 0.08848 (Simulation time: 02 hr 16 min 15 sec)
Simulation finished CPU 2 instructions: 150000003 cycles: 226507755 cumulative IPC: 0.6622 (Simulation time: 02 hr 16 min 33 sec)
Heartbeat CPU 3 instructions: 280000001 cycles: 249444224 heartbeat IPC: 1.684 cumulative IPC: 0.8713 (Simulation time: 02 hr 17 min 45 sec)
Heartbeat CPU 1 instructions: 580000001 cycles: 250607600 heartbeat IPC: 2.303 cumulative IPC: 2.164 (Simulation time: 02 hr 18 min 22 sec)
Heartbeat CPU 2 instructions: 240000002 cycles: 253911261 heartbeat IPC: 1.006 cumulative IPC: 0.6716 (Simulation time: 02 hr 20 min 23 sec)
Heartbeat CPU 1 instructions: 590000002 cycles: 254881138 heartbeat IPC: 2.34 cumulative IPC: 2.168 (Simulation time: 02 hr 20 min 54 sec)
Heartbeat CPU 3 instructions: 290000002 cycles: 255946971 heartbeat IPC: 1.538 cumulative IPC: 0.8897 (Simulation time: 02 hr 21 min 33 sec)
Heartbeat CPU 1 instructions: 600000000 cycles: 259145873 heartbeat IPC: 2.345 cumulative IPC: 2.171 (Simulation time: 02 hr 23 min 31 sec)
Heartbeat CPU 1 instructions: 610000000 cycles: 263483865 heartbeat IPC: 2.305 cumulative IPC: 2.173 (Simulation time: 02 hr 25 min 47 sec)
Heartbeat CPU 2 instructions: 250000000 cycles: 263612545 heartbeat IPC: 1.031 cumulative IPC: 0.6859 (Simulation time: 02 hr 25 min 51 sec)
Heartbeat CPU 3 instructions: 300000002 cycles: 265560931 heartbeat IPC: 1.04 cumulative IPC: 0.8956 (Simulation time: 02 hr 26 min 52 sec)
Heartbeat CPU 1 instructions: 620000000 cycles: 267865120 heartbeat IPC: 2.282 cumulative IPC: 2.175 (Simulation time: 02 hr 28 min 03 sec)
Heartbeat CPU 1 instructions: 630000001 cycles: 272284040 heartbeat IPC: 2.263 cumulative IPC: 2.177 (Simulation time: 02 hr 30 min 24 sec)
Heartbeat CPU 2 instructions: 260000001 cycles: 275418574 heartbeat IPC: 0.847 cumulative IPC: 0.6934 (Simulation time: 02 hr 32 min 04 sec)
Heartbeat CPU 1 instructions: 640000001 cycles: 276627296 heartbeat IPC: 2.302 cumulative IPC: 2.179 (Simulation time: 02 hr 32 min 41 sec)
Heartbeat CPU 1 instructions: 650000000 cycles: 281071899 heartbeat IPC: 2.25 cumulative IPC: 2.18 (Simulation time: 02 hr 34 min 49 sec)
Heartbeat CPU 1 instructions: 660000002 cycles: 285542101 heartbeat IPC: 2.237 cumulative IPC: 2.181 (Simulation time: 02 hr 36 min 59 sec)
Heartbeat CPU 1 instructions: 670000001 cycles: 290117274 heartbeat IPC: 2.186 cumulative IPC: 2.181 (Simulation time: 02 hr 39 min 11 sec)
Heartbeat CPU 1 instructions: 680000004 cycles: 294842267 heartbeat IPC: 2.116 cumulative IPC: 2.18 (Simulation time: 02 hr 41 min 26 sec)
Heartbeat CPU 1 instructions: 690000001 cycles: 299439188 heartbeat IPC: 2.175 cumulative IPC: 2.18 (Simulation time: 02 hr 43 min 36 sec)
Heartbeat CPU 2 instructions: 270000003 cycles: 299538784 heartbeat IPC: 0.4146 cumulative IPC: 0.6693 (Simulation time: 02 hr 43 min 39 sec)
Heartbeat CPU 1 instructions: 700000000 cycles: 304116793 heartbeat IPC: 2.138 cumulative IPC: 2.179 (Simulation time: 02 hr 45 min 49 sec)
Heartbeat CPU 1 instructions: 710000002 cycles: 308713724 heartbeat IPC: 2.175 cumulative IPC: 2.179 (Simulation time: 02 hr 48 min 01 sec)
Heartbeat CPU 1 instructions: 720000004 cycles: 313444543 heartbeat IPC: 2.114 cumulative IPC: 2.178 (Simulation time: 02 hr 50 min 16 sec)
Heartbeat CPU 1 instructions: 730000002 cycles: 318106103 heartbeat IPC: 2.145 cumulative IPC: 2.178 (Simulation time: 02 hr 52 min 25 sec)
Heartbeat CPU 1 instructions: 740000004 cycles: 322762615 heartbeat IPC: 2.148 cumulative IPC: 2.177 (Simulation time: 02 hr 54 min 35 sec)
Heartbeat CPU 2 instructions: 280000001 cycles: 324795914 heartbeat IPC: 0.3959 cumulative IPC: 0.6466 (Simulation time: 02 hr 55 min 32 sec)
Heartbeat CPU 3 instructions: 310000000 cycles: 326429644 heartbeat IPC: 0.1643 cumulative IPC: 0.7499 (Simulation time: 02 hr 56 min 25 sec)
Heartbeat CPU 1 instructions: 750000001 cycles: 327547720 heartbeat IPC: 2.09 cumulative IPC: 2.176 (Simulation time: 02 hr 57 min 01 sec)
Heartbeat CPU 1 instructions: 760000000 cycles: 332078182 heartbeat IPC: 2.207 cumulative IPC: 2.176 (Simulation time: 02 hr 59 min 32 sec)
Heartbeat CPU 3 instructions: 320000004 cycles: 333493893 heartbeat IPC: 1.416 cumulative IPC: 0.765 (Simulation time: 03 hr 00 min 24 sec)
Heartbeat CPU 2 instructions: 290000003 cycles: 336420321 heartbeat IPC: 0.8603 cumulative IPC: 0.6544 (Simulation time: 03 hr 02 min 16 sec)
Heartbeat CPU 1 instructions: 770000002 cycles: 336551779 heartbeat IPC: 2.235 cumulative IPC: 2.177 (Simulation time: 03 hr 02 min 21 sec)
Heartbeat CPU 3 instructions: 330000002 cycles: 337354652 heartbeat IPC: 2.59 cumulative IPC: 0.7872 (Simulation time: 03 hr 02 min 52 sec)
Heartbeat CPU 1 instructions: 780000002 cycles: 341017601 heartbeat IPC: 2.239 cumulative IPC: 2.178 (Simulation time: 03 hr 05 min 13 sec)
Heartbeat CPU 3 instructions: 340000004 cycles: 341089484 heartbeat IPC: 2.677 cumulative IPC: 0.8093 (Simulation time: 03 hr 05 min 16 sec)
Heartbeat CPU 1 instructions: 790000002 cycles: 345469906 heartbeat IPC: 2.246 cumulative IPC: 2.179 (Simulation time: 03 hr 07 min 57 sec)
Heartbeat CPU 3 instructions: 350000004 cycles: 345562044 heartbeat IPC: 2.236 cumulative IPC: 0.8289 (Simulation time: 03 hr 08 min 00 sec)
Heartbeat CPU 2 instructions: 300000000 cycles: 345723835 heartbeat IPC: 1.075 cumulative IPC: 0.6665 (Simulation time: 03 hr 08 min 06 sec)
Heartbeat CPU 1 instructions: 800000001 cycles: 349918286 heartbeat IPC: 2.248 cumulative IPC: 2.18 (Simulation time: 03 hr 10 min 38 sec)
Heartbeat CPU 3 instructions: 360000000 cycles: 350754899 heartbeat IPC: 1.926 cumulative IPC: 0.8462 (Simulation time: 03 hr 11 min 07 sec)
Heartbeat CPU 1 instructions: 810000000 cycles: 354403501 heartbeat IPC: 2.23 cumulative IPC: 2.18 (Simulation time: 03 hr 13 min 19 sec)
Heartbeat CPU 2 instructions: 310000001 cycles: 355095844 heartbeat IPC: 1.067 cumulative IPC: 0.6777 (Simulation time: 03 hr 13 min 43 sec)
Heartbeat CPU 3 instructions: 370000000 cycles: 356581954 heartbeat IPC: 1.716 cumulative IPC: 0.8613 (Simulation time: 03 hr 14 min 36 sec)
Heartbeat CPU 1 instructions: 820000000 cycles: 358833741 heartbeat IPC: 2.257 cumulative IPC: 2.181 (Simulation time: 03 hr 15 min 57 sec)
Heartbeat CPU 0 instructions: 80000002 cycles: 358943951 heartbeat IPC: 0.08926 cumulative IPC: 0.08874 (Simulation time: 03 hr 16 min 01 sec)
Heartbeat CPU 3 instructions: 380000002 cycles: 362627343 heartbeat IPC: 1.654 cumulative IPC: 0.8753 (Simulation time: 03 hr 18 min 09 sec)
Heartbeat CPU 1 instructions: 830000004 cycles: 363325488 heartbeat IPC: 2.226 cumulative IPC: 2.182 (Simulation time: 03 hr 18 min 35 sec)
Heartbeat CPU 2 instructions: 320000000 cycles: 364828375 heartbeat IPC: 1.027 cumulative IPC: 0.6876 (Simulation time: 03 hr 19 min 26 sec)
Heartbeat CPU 1 instructions: 840000003 cycles: 367849843 heartbeat IPC: 2.21 cumulative IPC: 2.182 (Simulation time: 03 hr 21 min 07 sec)
Heartbeat CPU 3 instructions: 390000000 cycles: 369365594 heartbeat IPC: 1.484 cumulative IPC: 0.8871 (Simulation time: 03 hr 22 min 02 sec)
Heartbeat CPU 1 instructions: 850000001 cycles: 372273333 heartbeat IPC: 2.261 cumulative IPC: 2.183 (Simulation time: 03 hr 23 min 49 sec)
Heartbeat CPU 3 instructions: 400000001 cycles: 374178764 heartbeat IPC: 2.078 cumulative IPC: 0.9033 (Simulation time: 03 hr 25 min 01 sec)
Heartbeat CPU 2 instructions: 330000001 cycles: 374247944 heartbeat IPC: 1.062 cumulative IPC: 0.6976 (Simulation time: 03 hr 25 min 04 sec)
Heartbeat CPU 1 instructions: 860000003 cycles: 376748188 heartbeat IPC: 2.235 cumulative IPC: 2.184 (Simulation time: 03 hr 26 min 27 sec)
Heartbeat CPU 1 instructions: 870000003 cycles: 381226880 heartbeat IPC: 2.233 cumulative IPC: 2.185 (Simulation time: 03 hr 28 min 45 sec)
Heartbeat CPU 2 instructions: 340000001 cycles: 385323350 heartbeat IPC: 0.9029 cumulative IPC: 0.7038 (Simulation time: 03 hr 30 min 53 sec)
Heartbeat CPU 1 instructions: 880000000 cycles: 385687256 heartbeat IPC: 2.242 cumulative IPC: 2.185 (Simulation time: 03 hr 31 min 04 sec)
Heartbeat CPU 1 instructions: 890000004 cycles: 390202057 heartbeat IPC: 2.215 cumulative IPC: 2.186 (Simulation time: 03 hr 33 min 32 sec)
Heartbeat CPU 1 instructions: 900000000 cycles: 394691852 heartbeat IPC: 2.227 cumulative IPC: 2.186 (Simulation time: 03 hr 36 min 08 sec)
Heartbeat CPU 3 instructions: 410000000 cycles: 399106248 heartbeat IPC: 0.4012 cumulative IPC: 0.8702 (Simulation time: 03 hr 38 min 27 sec)
Heartbeat CPU 1 instructions: 910000003 cycles: 399324941 heartbeat IPC: 2.158 cumulative IPC: 2.186 (Simulation time: 03 hr 38 min 34 sec)
Heartbeat CPU 1 instructions: 920000001 cycles: 403879137 heartbeat IPC: 2.196 cumulative IPC: 2.186 (Simulation time: 03 hr 40 min 58 sec)
Heartbeat CPU 2 instructions: 350000004 cycles: 404581693 heartbeat IPC: 0.5193 cumulative IPC: 0.6946 (Simulation time: 03 hr 41 min 18 sec)
Heartbeat CPU 1 instructions: 930000001 cycles: 408466710 heartbeat IPC: 2.18 cumulative IPC: 2.186 (Simulation time: 03 hr 43 min 18 sec)
Heartbeat CPU 1 instructions: 940000000 cycles: 413201368 heartbeat IPC: 2.112 cumulative IPC: 2.185 (Simulation time: 03 hr 45 min 40 sec)
Heartbeat CPU 1 instructions: 950000000 cycles: 417911919 heartbeat IPC: 2.123 cumulative IPC: 2.184 (Simulation time: 03 hr 47 min 51 sec)
Heartbeat CPU 1 instructions: 960000003 cycles: 422652562 heartbeat IPC: 2.109 cumulative IPC: 2.183 (Simulation time: 03 hr 50 min 03 sec)
Heartbeat CPU 1 instructions: 970000001 cycles: 427231565 heartbeat IPC: 2.184 cumulative IPC: 2.183 (Simulation time: 03 hr 52 min 09 sec)
Heartbeat CPU 1 instructions: 980000000 cycles: 431921813 heartbeat IPC: 2.132 cumulative IPC: 2.183 (Simulation time: 03 hr 54 min 21 sec)
Heartbeat CPU 2 instructions: 360000002 cycles: 435862962 heartbeat IPC: 0.3197 cumulative IPC: 0.6663 (Simulation time: 03 hr 56 min 11 sec)
Heartbeat CPU 1 instructions: 990000002 cycles: 436568214 heartbeat IPC: 2.152 cumulative IPC: 2.182 (Simulation time: 03 hr 56 min 29 sec)
Heartbeat CPU 1 instructions: 1000000004 cycles: 441220784 heartbeat IPC: 2.149 cumulative IPC: 2.182 (Simulation time: 03 hr 58 min 36 sec)
Heartbeat CPU 1 instructions: 1010000000 cycles: 445867846 heartbeat IPC: 2.152 cumulative IPC: 2.182 (Simulation time: 04 hr 00 min 54 sec)
Heartbeat CPU 3 instructions: 420000002 cycles: 447347757 heartbeat IPC: 0.2073 cumulative IPC: 0.7952 (Simulation time: 04 hr 01 min 46 sec)
Heartbeat CPU 1 instructions: 1020000002 cycles: 450322706 heartbeat IPC: 2.245 cumulative IPC: 2.182 (Simulation time: 04 hr 03 min 29 sec)
Heartbeat CPU 2 instructions: 370000003 cycles: 451399448 heartbeat IPC: 0.6436 cumulative IPC: 0.6655 (Simulation time: 04 hr 04 min 10 sec)
Heartbeat CPU 3 instructions: 430000000 cycles: 452664291 heartbeat IPC: 1.881 cumulative IPC: 0.8086 (Simulation time: 04 hr 04 min 59 sec)
Heartbeat CPU 1 instructions: 1030000004 cycles: 454757780 heartbeat IPC: 2.255 cumulative IPC: 2.183 (Simulation time: 04 hr 06 min 19 sec)
Heartbeat CPU 3 instructions: 440000003 cycles: 456659042 heartbeat IPC: 2.503 cumulative IPC: 0.8241 (Simulation time: 04 hr 07 min 31 sec)
Heartbeat CPU 1 instructions: 1040000001 cycles: 459124957 heartbeat IPC: 2.29 cumulative IPC: 2.184 (Simulation time: 04 hr 09 min 05 sec)
Heartbeat CPU 2 instructions: 380000001 cycles: 460684946 heartbeat IPC: 1.077 cumulative IPC: 0.6742 (Simulation time: 04 hr 10 min 02 sec)
Heartbeat CPU 3 instructions: 450000002 cycles: 460837158 heartbeat IPC: 2.393 cumulative IPC: 0.839 (Simulation time: 04 hr 10 min 08 sec)
Heartbeat CPU 1 instructions: 1050000004 cycles: 463407506 heartbeat IPC: 2.335 cumulative IPC: 2.186 (Simulation time: 04 hr 11 min 42 sec)
Heartbeat CPU 3 instructions: 460000001 cycles: 465960953 heartbeat IPC: 1.952 cumulative IPC: 0.8519 (Simulation time: 04 hr 13 min 20 sec)
Heartbeat CPU 1 instructions: 1060000001 cycles: 467750359 heartbeat IPC: 2.303 cumulative IPC: 2.187 (Simulation time: 04 hr 14 min 24 sec)
Heartbeat CPU 0 instructions: 90000001 cycles: 469602558 heartbeat IPC: 0.09037 cumulative IPC: 0.08914 (Simulation time: 04 hr 15 min 31 sec)
Heartbeat CPU 2 instructions: 390000002 cycles: 470090116 heartbeat IPC: 1.063 cumulative IPC: 0.6823 (Simulation time: 04 hr 15 min 49 sec)
Heartbeat CPU 3 instructions: 470000000 cycles: 471733807 heartbeat IPC: 1.732 cumulative IPC: 0.8631 (Simulation time: 04 hr 16 min 52 sec)
Heartbeat CPU 1 instructions: 1070000000 cycles: 472132966 heartbeat IPC: 2.282 cumulative IPC: 2.188 (Simulation time: 04 hr 17 min 08 sec)
Heartbeat CPU 1 instructions: 1080000000 cycles: 476502165 heartbeat IPC: 2.289 cumulative IPC: 2.189 (Simulation time: 04 hr 19 min 42 sec)
Heartbeat CPU 3 instructions: 480000000 cycles: 477812837 heartbeat IPC: 1.645 cumulative IPC: 0.8735 (Simulation time: 04 hr 20 min 29 sec)
Heartbeat CPU 2 instructions: 400000000 cycles: 479118394 heartbeat IPC: 1.108 cumulative IPC: 0.6907 (Simulation time: 04 hr 21 min 19 sec)
Heartbeat CPU 1 instructions: 1090000000 cycles: 480801152 heartbeat IPC: 2.326 cumulative IPC: 2.19 (Simulation time: 04 hr 22 min 16 sec)
Heartbeat CPU 3 instructions: 490000001 cycles: 484294360 heartbeat IPC: 1.543 cumulative IPC: 0.8829 (Simulation time: 04 hr 24 min 10 sec)
Heartbeat CPU 1 instructions: 1100000000 cycles: 485087940 heartbeat IPC: 2.333 cumulative IPC: 2.191 (Simulation time: 04 hr 24 min 40 sec)
Heartbeat CPU 2 instructions: 410000003 cycles: 488870297 heartbeat IPC: 1.025 cumulative IPC: 0.6977 (Simulation time: 04 hr 26 min 55 sec)
Heartbeat CPU 3 instructions: 500000000 cycles: 488965869 heartbeat IPC: 2.141 cumulative IPC: 0.8954 (Simulation time: 04 hr 26 min 58 sec)
Heartbeat CPU 1 instructions: 1110000001 cycles: 489467915 heartbeat IPC: 2.283 cumulative IPC: 2.192 (Simulation time: 04 hr 27 min 17 sec)
Heartbeat CPU 1 instructions: 1120000004 cycles: 493787998 heartbeat IPC: 2.315 cumulative IPC: 2.193 (Simulation time: 04 hr 29 min 38 sec)
Heartbeat CPU 1 instructions: 1130000000 cycles: 498215787 heartbeat IPC: 2.258 cumulative IPC: 2.194 (Simulation time: 04 hr 31 min 54 sec)
Heartbeat CPU 2 instructions: 420000000 cycles: 499528432 heartbeat IPC: 0.9383 cumulative IPC: 0.703 (Simulation time: 04 hr 32 min 35 sec)
Heartbeat CPU 1 instructions: 1140000002 cycles: 502620109 heartbeat IPC: 2.27 cumulative IPC: 2.195 (Simulation time: 04 hr 34 min 16 sec)
Heartbeat CPU 3 instructions: 510000000 cycles: 506871637 heartbeat IPC: 0.5585 cumulative IPC: 0.883 (Simulation time: 04 hr 36 min 35 sec)
Heartbeat CPU 1 instructions: 1150000000 cycles: 506906366 heartbeat IPC: 2.333 cumulative IPC: 2.196 (Simulation time: 04 hr 36 min 36 sec)
Heartbeat CPU 1 instructions: 1160000001 cycles: 518502878 heartbeat IPC: 0.8623 cumulative IPC: 2.165 (Simulation time: 04 hr 41 min 45 sec)
Heartbeat CPU 1 instructions: 1170000004 cycles: 523054582 heartbeat IPC: 2.197 cumulative IPC: 2.165 (Simulation time: 04 hr 43 min 57 sec)
Heartbeat CPU 2 instructions: 430000003 cycles: 525055083 heartbeat IPC: 0.3917 cumulative IPC: 0.6873 (Simulation time: 04 hr 45 min 05 sec)
Heartbeat CPU 1 instructions: 1180000001 cycles: 527374036 heartbeat IPC: 2.315 cumulative IPC: 2.166 (Simulation time: 04 hr 46 min 25 sec)
Heartbeat CPU 1 instructions: 1190000001 cycles: 531850827 heartbeat IPC: 2.234 cumulative IPC: 2.167 (Simulation time: 04 hr 49 min 00 sec)
Heartbeat CPU 1 instructions: 1200000001 cycles: 536133451 heartbeat IPC: 2.335 cumulative IPC: 2.168 (Simulation time: 04 hr 51 min 18 sec)
Heartbeat CPU 1 instructions: 1210000002 cycles: 540433445 heartbeat IPC: 2.326 cumulative IPC: 2.17 (Simulation time: 04 hr 53 min 16 sec)
Heartbeat CPU 1 instructions: 1220000003 cycles: 544896815 heartbeat IPC: 2.24 cumulative IPC: 2.17 (Simulation time: 04 hr 55 min 19 sec)
Heartbeat CPU 1 instructions: 1230000004 cycles: 549185505 heartbeat IPC: 2.332 cumulative IPC: 2.172 (Simulation time: 04 hr 57 min 16 sec)
Heartbeat CPU 1 instructions: 1240000002 cycles: 553526821 heartbeat IPC: 2.303 cumulative IPC: 2.173 (Simulation time: 04 hr 59 min 15 sec)
Heartbeat CPU 2 instructions: 440000001 cycles: 554899578 heartbeat IPC: 0.3351 cumulative IPC: 0.6676 (Simulation time: 04 hr 59 min 53 sec)
Heartbeat CPU 1 instructions: 1250000003 cycles: 557998940 heartbeat IPC: 2.236 cumulative IPC: 2.173 (Simulation time: 05 hr 01 min 21 sec)
Heartbeat CPU 1 instructions: 1260000000 cycles: 562279215 heartbeat IPC: 2.336 cumulative IPC: 2.174 (Simulation time: 05 hr 03 min 25 sec)
Heartbeat CPU 3 instructions: 520000003 cycles: 565047626 heartbeat IPC: 0.1719 cumulative IPC: 0.807 (Simulation time: 05 hr 04 min 54 sec)
Heartbeat CPU 1 instructions: 1270000000 cycles: 566560817 heartbeat IPC: 2.336 cumulative IPC: 2.176 (Simulation time: 05 hr 05 min 43 sec)
Heartbeat CPU 2 instructions: 450000002 cycles: 569564211 heartbeat IPC: 0.6819 cumulative IPC: 0.668 (Simulation time: 05 hr 07 min 32 sec)
Heartbeat CPU 3 instructions: 530000001 cycles: 570261392 heartbeat IPC: 1.918 cumulative IPC: 0.8175 (Simulation time: 05 hr 08 min 05 sec)
Heartbeat CPU 1 instructions: 1280000001 cycles: 570832188 heartbeat IPC: 2.341 cumulative IPC: 2.177 (Simulation time: 05 hr 08 min 30 sec)
Heartbeat CPU 3 instructions: 540000004 cycles: 574078159 heartbeat IPC: 2.62 cumulative IPC: 0.83 (Simulation time: 05 hr 10 min 38 sec)
Heartbeat CPU 1 instructions: 1290000003 cycles: 575223736 heartbeat IPC: 2.277 cumulative IPC: 2.178 (Simulation time: 05 hr 11 min 21 sec)
Heartbeat CPU 3 instructions: 550000001 cycles: 578338172 heartbeat IPC: 2.347 cumulative IPC: 0.8416 (Simulation time: 05 hr 13 min 14 sec)
Heartbeat CPU 2 instructions: 460000002 cycles: 578909771 heartbeat IPC: 1.07 cumulative IPC: 0.6747 (Simulation time: 05 hr 13 min 39 sec)
Heartbeat CPU 1 instructions: 1300000001 cycles: 579561796 heartbeat IPC: 2.305 cumulative IPC: 2.179 (Simulation time: 05 hr 14 min 02 sec)
Heartbeat CPU 3 instructions: 560000000 cycles: 583287208 heartbeat IPC: 2.021 cumulative IPC: 0.852 (Simulation time: 05 hr 16 min 19 sec)
Heartbeat CPU 1 instructions: 1310000003 cycles: 583968725 heartbeat IPC: 2.269 cumulative IPC: 2.179 (Simulation time: 05 hr 16 min 43 sec)
Heartbeat CPU 0 instructions: 100000000 cycles: 586830737 heartbeat IPC: 0.0853 cumulative IPC: 0.08835 (Simulation time: 05 hr 18 min 25 sec)
Heartbeat CPU 1 instructions: 1320000003 cycles: 588373466 heartbeat IPC: 2.27 cumulative IPC: 2.18 (Simulation time: 05 hr 19 min 22 sec)
Heartbeat CPU 2 instructions: 470000004 cycles: 588507444 heartbeat IPC: 1.042 cumulative IPC: 0.6809 (Simulation time: 05 hr 19 min 27 sec)
Heartbeat CPU 3 instructions: 570000002 cycles: 589110819 heartbeat IPC: 1.717 cumulative IPC: 0.8608 (Simulation time: 05 hr 19 min 50 sec)
Heartbeat CPU 1 instructions: 1330000004 cycles: 592781552 heartbeat IPC: 2.269 cumulative IPC: 2.181 (Simulation time: 05 hr 22 min 03 sec)
Heartbeat CPU 3 instructions: 580000003 cycles: 595224167 heartbeat IPC: 1.636 cumulative IPC: 0.8691 (Simulation time: 05 hr 23 min 28 sec)
Heartbeat CPU 1 instructions: 1340000000 cycles: 597215645 heartbeat IPC: 2.255 cumulative IPC: 2.181 (Simulation time: 05 hr 24 min 51 sec)
Heartbeat CPU 2 instructions: 480000000 cycles: 597920565 heartbeat IPC: 1.062 cumulative IPC: 0.6871 (Simulation time: 05 hr 25 min 17 sec)
Heartbeat CPU 3 instructions: 590000000 cycles: 601670116 heartbeat IPC: 1.551 cumulative IPC: 0.8766 (Simulation time: 05 hr 27 min 24 sec)
Heartbeat CPU 1 instructions: 1350000002 cycles: 601721183 heartbeat IPC: 2.219 cumulative IPC: 2.182 (Simulation time: 05 hr 27 min 26 sec)
Heartbeat CPU 1 instructions: 1360000003 cycles: 606158294 heartbeat IPC: 2.254 cumulative IPC: 2.182 (Simulation time: 05 hr 30 min 04 sec)
Heartbeat CPU 3 instructions: 600000000 cycles: 606485038 heartbeat IPC: 2.077 cumulative IPC: 0.8865 (Simulation time: 05 hr 30 min 17 sec)
Heartbeat CPU 2 instructions: 490000004 cycles: 607306799 heartbeat IPC: 1.065 cumulative IPC: 0.6932 (Simulation time: 05 hr 30 min 46 sec)
Heartbeat CPU 1 instructions: 1370000003 cycles: 610724840 heartbeat IPC: 2.19 cumulative IPC: 2.182 (Simulation time: 05 hr 32 min 30 sec)
Heartbeat CPU 1 instructions: 1380000002 cycles: 615211640 heartbeat IPC: 2.229 cumulative IPC: 2.183 (Simulation time: 05 hr 34 min 50 sec)
Heartbeat CPU 2 instructions: 500000003 cycles: 618815658 heartbeat IPC: 0.8689 cumulative IPC: 0.6966 (Simulation time: 05 hr 36 min 44 sec)
Heartbeat CPU 1 instructions: 1390000000 cycles: 619792026 heartbeat IPC: 2.183 cumulative IPC: 2.183 (Simulation time: 05 hr 37 min 14 sec)
Heartbeat CPU 3 instructions: 610000003 cycles: 623623262 heartbeat IPC: 0.5835 cumulative IPC: 0.8779 (Simulation time: 05 hr 39 min 12 sec)
Heartbeat CPU 1 instructions: 1400000003 cycles: 624261579 heartbeat IPC: 2.237 cumulative IPC: 2.183 (Simulation time: 05 hr 39 min 33 sec)
Heartbeat CPU 1 instructions: 1410000002 cycles: 628706748 heartbeat IPC: 2.25 cumulative IPC: 2.184 (Simulation time: 05 hr 41 min 44 sec)
Heartbeat CPU 1 instructions: 1420000003 cycles: 633390826 heartbeat IPC: 2.135 cumulative IPC: 2.183 (Simulation time: 05 hr 43 min 52 sec)
Heartbeat CPU 1 instructions: 1430000000 cycles: 637940886 heartbeat IPC: 2.198 cumulative IPC: 2.183 (Simulation time: 05 hr 45 min 57 sec)
Heartbeat CPU 2 instructions: 510000004 cycles: 638841473 heartbeat IPC: 0.4994 cumulative IPC: 0.6902 (Simulation time: 05 hr 46 min 21 sec)
Heartbeat CPU 1 instructions: 1440000000 cycles: 642526775 heartbeat IPC: 2.181 cumulative IPC: 2.183 (Simulation time: 05 hr 48 min 00 sec)
Heartbeat CPU 1 instructions: 1450000001 cycles: 647206217 heartbeat IPC: 2.137 cumulative IPC: 2.183 (Simulation time: 05 hr 50 min 09 sec)
Heartbeat CPU 1 instructions: 1460000004 cycles: 651737122 heartbeat IPC: 2.207 cumulative IPC: 2.183 (Simulation time: 05 hr 52 min 16 sec)
Heartbeat CPU 1 instructions: 1470000004 cycles: 656314294 heartbeat IPC: 2.185 cumulative IPC: 2.183 (Simulation time: 05 hr 54 min 22 sec)
Heartbeat CPU 1 instructions: 1480000001 cycles: 660967616 heartbeat IPC: 2.149 cumulative IPC: 2.183 (Simulation time: 05 hr 56 min 31 sec)
Heartbeat CPU 1 instructions: 1490000000 cycles: 665500881 heartbeat IPC: 2.206 cumulative IPC: 2.183 (Simulation time: 05 hr 58 min 34 sec)
Heartbeat CPU 2 instructions: 520000003 cycles: 669788942 heartbeat IPC: 0.3231 cumulative IPC: 0.6727 (Simulation time: 06 hr 00 min 27 sec)
Heartbeat CPU 1 instructions: 1500000003 cycles: 670099995 heartbeat IPC: 2.174 cumulative IPC: 2.183 (Simulation time: 06 hr 00 min 36 sec)
Heartbeat CPU 1 instructions: 1510000002 cycles: 674661716 heartbeat IPC: 2.192 cumulative IPC: 2.183 (Simulation time: 06 hr 02 min 35 sec)
Heartbeat CPU 1 instructions: 1520000003 cycles: 679182417 heartbeat IPC: 2.212 cumulative IPC: 2.183 (Simulation time: 06 hr 05 min 00 sec)
Heartbeat CPU 3 instructions: 620000003 cycles: 679363589 heartbeat IPC: 0.1794 cumulative IPC: 0.8188 (Simulation time: 06 hr 05 min 07 sec)
Heartbeat CPU 1 instructions: 1530000002 cycles: 683674593 heartbeat IPC: 2.226 cumulative IPC: 2.184 (Simulation time: 06 hr 07 min 31 sec)
Heartbeat CPU 2 instructions: 530000003 cycles: 684541287 heartbeat IPC: 0.6779 cumulative IPC: 0.6728 (Simulation time: 06 hr 08 min 05 sec)
Heartbeat CPU 3 instructions: 630000000 cycles: 684758380 heartbeat IPC: 1.854 cumulative IPC: 0.8272 (Simulation time: 06 hr 08 min 12 sec)
Heartbeat CPU 1 instructions: 1540000002 cycles: 688126383 heartbeat IPC: 2.246 cumulative IPC: 2.184 (Simulation time: 06 hr 10 min 18 sec)
Heartbeat CPU 3 instructions: 640000004 cycles: 688634109 heartbeat IPC: 2.58 cumulative IPC: 0.8374 (Simulation time: 06 hr 10 min 37 sec)
Heartbeat CPU 1 instructions: 1550000003 cycles: 692603823 heartbeat IPC: 2.233 cumulative IPC: 2.184 (Simulation time: 06 hr 12 min 56 sec)
Heartbeat CPU 3 instructions: 650000000 cycles: 693314589 heartbeat IPC: 2.137 cumulative IPC: 0.8464 (Simulation time: 06 hr 13 min 21 sec)
Heartbeat CPU 2 instructions: 540000002 cycles: 694039619 heartbeat IPC: 1.053 cumulative IPC: 0.6781 (Simulation time: 06 hr 13 min 45 sec)
Heartbeat CPU 1 instructions: 1560000000 cycles: 696993454 heartbeat IPC: 2.278 cumulative IPC: 2.185 (Simulation time: 06 hr 15 min 20 sec)
Heartbeat CPU 3 instructions: 660000001 cycles: 699061050 heartbeat IPC: 1.74 cumulative IPC: 0.854 (Simulation time: 06 hr 16 min 28 sec)
Heartbeat CPU 0 instructions: 110000004 cycles: 699458738 heartbeat IPC: 0.08879 cumulative IPC: 0.08842 (Simulation time: 06 hr 16 min 40 sec)
Heartbeat CPU 1 instructions: 1570000000 cycles: 701384956 heartbeat IPC: 2.277 cumulative IPC: 2.185 (Simulation time: 06 hr 17 min 43 sec)
Heartbeat CPU 2 instructions: 550000001 cycles: 703177881 heartbeat IPC: 1.094 cumulative IPC: 0.6837 (Simulation time: 06 hr 18 min 41 sec)
Heartbeat CPU 3 instructions: 670000000 cycles: 705037932 heartbeat IPC: 1.673 cumulative IPC: 0.8611 (Simulation time: 06 hr 19 min 38 sec)
Heartbeat CPU 1 instructions: 1580000000 cycles: 705758568 heartbeat IPC: 2.286 cumulative IPC: 2.186 (Simulation time: 06 hr 19 min 59 sec)
Heartbeat CPU 1 instructions: 1590000000 cycles: 710203815 heartbeat IPC: 2.25 cumulative IPC: 2.187 (Simulation time: 06 hr 22 min 19 sec)
Heartbeat CPU 3 instructions: 680000000 cycles: 711033318 heartbeat IPC: 1.668 cumulative IPC: 0.8681 (Simulation time: 06 hr 22 min 43 sec)
Heartbeat CPU 2 instructions: 560000004 cycles: 713079312 heartbeat IPC: 1.01 cumulative IPC: 0.6884 (Simulation time: 06 hr 23 min 45 sec)
Heartbeat CPU 1 instructions: 1600000003 cycles: 714615726 heartbeat IPC: 2.267 cumulative IPC: 2.187 (Simulation time: 06 hr 24 min 33 sec)
Heartbeat CPU 3 instructions: 690000001 cycles: 716434011 heartbeat IPC: 1.852 cumulative IPC: 0.8758 (Simulation time: 06 hr 25 min 33 sec)
Heartbeat CPU 1 instructions: 1610000001 cycles: 719094439 heartbeat IPC: 2.233 cumulative IPC: 2.187 (Simulation time: 06 hr 26 min 59 sec)
Heartbeat CPU 2 instructions: 570000000 cycles: 722801330 heartbeat IPC: 1.029 cumulative IPC: 0.6931 (Simulation time: 06 hr 28 min 44 sec)
Heartbeat CPU 1 instructions: 1620000000 cycles: 723492067 heartbeat IPC: 2.274 cumulative IPC: 2.188 (Simulation time: 06 hr 29 min 03 sec)
Heartbeat CPU 1 instructions: 1630000000 cycles: 727967428 heartbeat IPC: 2.234 cumulative IPC: 2.188 (Simulation time: 06 hr 31 min 08 sec)
Heartbeat CPU 3 instructions: 700000000 cycles: 731120621 heartbeat IPC: 0.6809 cumulative IPC: 0.8717 (Simulation time: 06 hr 32 min 41 sec)
Heartbeat CPU 1 instructions: 1640000001 cycles: 732391572 heartbeat IPC: 2.26 cumulative IPC: 2.189 (Simulation time: 06 hr 33 min 22 sec)
Heartbeat CPU 2 instructions: 580000004 cycles: 734892932 heartbeat IPC: 0.827 cumulative IPC: 0.6954 (Simulation time: 06 hr 34 min 33 sec)
Heartbeat CPU 1 instructions: 1650000001 cycles: 736934014 heartbeat IPC: 2.201 cumulative IPC: 2.189 (Simulation time: 06 hr 35 min 29 sec)
Heartbeat CPU 1 instructions: 1660000004 cycles: 741396874 heartbeat IPC: 2.241 cumulative IPC: 2.189 (Simulation time: 06 hr 37 min 21 sec)
Heartbeat CPU 1 instructions: 1670000004 cycles: 745986231 heartbeat IPC: 2.179 cumulative IPC: 2.189 (Simulation time: 06 hr 39 min 19 sec)
Heartbeat CPU 1 instructions: 1680000000 cycles: 750645796 heartbeat IPC: 2.146 cumulative IPC: 2.189 (Simulation time: 06 hr 41 min 16 sec)
Heartbeat CPU 1 instructions: 1690000003 cycles: 755261923 heartbeat IPC: 2.166 cumulative IPC: 2.189 (Simulation time: 06 hr 43 min 13 sec)
Heartbeat CPU 1 instructions: 1700000002 cycles: 759854470 heartbeat IPC: 2.177 cumulative IPC: 2.188 (Simulation time: 06 hr 45 min 08 sec)
Heartbeat CPU 2 instructions: 590000004 cycles: 761719062 heartbeat IPC: 0.3728 cumulative IPC: 0.6837 (Simulation time: 06 hr 45 min 57 sec)
Heartbeat CPU 1 instructions: 1710000000 cycles: 764457525 heartbeat IPC: 2.172 cumulative IPC: 2.188 (Simulation time: 06 hr 47 min 04 sec)
Heartbeat CPU 1 instructions: 1720000002 cycles: 769139160 heartbeat IPC: 2.136 cumulative IPC: 2.188 (Simulation time: 06 hr 49 min 02 sec)
Heartbeat CPU 1 instructions: 1730000001 cycles: 773652540 heartbeat IPC: 2.216 cumulative IPC: 2.188 (Simulation time: 06 hr 51 min 03 sec)
Heartbeat CPU 1 instructions: 1740000002 cycles: 778180681 heartbeat IPC: 2.208 cumulative IPC: 2.188 (Simulation time: 06 hr 53 min 10 sec)
Heartbeat CPU 1 instructions: 1750000001 cycles: 782427233 heartbeat IPC: 2.355 cumulative IPC: 2.189 (Simulation time: 06 hr 55 min 06 sec)
Heartbeat CPU 1 instructions: 1760000003 cycles: 786674479 heartbeat IPC: 2.354 cumulative IPC: 2.19 (Simulation time: 06 hr 57 min 03 sec)
Heartbeat CPU 2 instructions: 600000003 cycles: 788494349 heartbeat IPC: 0.3735 cumulative IPC: 0.6729 (Simulation time: 06 hr 57 min 54 sec)
Heartbeat CPU 3 instructions: 710000000 cycles: 788584556 heartbeat IPC: 0.174 cumulative IPC: 0.8195 (Simulation time: 06 hr 57 min 57 sec)
Heartbeat CPU 1 instructions: 1770000001 cycles: 791021719 heartbeat IPC: 2.3 cumulative IPC: 2.191 (Simulation time: 06 hr 59 min 14 sec)
Heartbeat CPU 3 instructions: 720000002 cycles: 794270078 heartbeat IPC: 1.759 cumulative IPC: 0.8264 (Simulation time: 07 hr 01 min 03 sec)
Heartbeat CPU 1 instructions: 1780000002 cycles: 795222492 heartbeat IPC: 2.381 cumulative IPC: 2.192 (Simulation time: 07 hr 01 min 36 sec)
Heartbeat CPU 2 instructions: 610000003 cycles: 798153737 heartbeat IPC: 1.035 cumulative IPC: 0.6774 (Simulation time: 07 hr 03 min 20 sec)
Heartbeat CPU 3 instructions: 730000003 cycles: 798182402 heartbeat IPC: 2.556 cumulative IPC: 0.8351 (Simulation time: 07 hr 03 min 21 sec)
Heartbeat CPU 1 instructions: 1790000004 cycles: 799467433 heartbeat IPC: 2.356 cumulative IPC: 2.193 (Simulation time: 07 hr 04 min 04 sec)
Heartbeat CPU 3 instructions: 740000000 cycles: 802879790 heartbeat IPC: 2.129 cumulative IPC: 0.8429 (Simulation time: 07 hr 06 min 00 sec)
Heartbeat CPU 1 instructions: 1800000003 cycles: 803760016 heartbeat IPC: 2.33 cumulative IPC: 2.193 (Simulation time: 07 hr 06 min 29 sec)
Heartbeat CPU 2 instructions: 620000001 cycles: 807333361 heartbeat IPC: 1.089 cumulative IPC: 0.6822 (Simulation time: 07 hr 08 min 25 sec)
Heartbeat CPU 1 instructions: 1810000002 cycles: 808112763 heartbeat IPC: 2.297 cumulative IPC: 2.194 (Simulation time: 07 hr 08 min 50 sec)
Heartbeat CPU 3 instructions: 750000003 cycles: 808531272 heartbeat IPC: 1.769 cumulative IPC: 0.8495 (Simulation time: 07 hr 09 min 05 sec)
Heartbeat CPU 0 instructions: 120000004 cycles: 811565106 heartbeat IPC: 0.0892 cumulative IPC: 0.08853 (Simulation time: 07 hr 10 min 44 sec)
Heartbeat CPU 1 instructions: 1820000002 cycles: 812319846 heartbeat IPC: 2.377 cumulative IPC: 2.195 (Simulation time: 07 hr 11 min 09 sec)
Heartbeat CPU 3 instructions: 760000000 cycles: 814305899 heartbeat IPC: 1.732 cumulative IPC: 0.856 (Simulation time: 07 hr 12 min 13 sec)
Heartbeat CPU 2 instructions: 630000000 cycles: 816588140 heartbeat IPC: 1.081 cumulative IPC: 0.6868 (Simulation time: 07 hr 13 min 20 sec)
Heartbeat CPU 1 instructions: 1830000002 cycles: 816624490 heartbeat IPC: 2.323 cumulative IPC: 2.196 (Simulation time: 07 hr 13 min 21 sec)
Heartbeat CPU 3 instructions: 770000003 cycles: 820632126 heartbeat IPC: 1.581 cumulative IPC: 0.8617 (Simulation time: 07 hr 15 min 24 sec)
Heartbeat CPU 1 instructions: 1840000001 cycles: 820875942 heartbeat IPC: 2.352 cumulative IPC: 2.197 (Simulation time: 07 hr 15 min 34 sec)
Heartbeat CPU 1 instructions: 1850000001 cycles: 825118221 heartbeat IPC: 2.357 cumulative IPC: 2.197 (Simulation time: 07 hr 17 min 52 sec)
Heartbeat CPU 2 instructions: 640000002 cycles: 825851688 heartbeat IPC: 1.08 cumulative IPC: 0.6913 (Simulation time: 07 hr 18 min 17 sec)
Heartbeat CPU 3 instructions: 780000002 cycles: 826119886 heartbeat IPC: 1.822 cumulative IPC: 0.8682 (Simulation time: 07 hr 18 min 25 sec)
Heartbeat CPU 1 instructions: 1860000001 cycles: 829359946 heartbeat IPC: 2.358 cumulative IPC: 2.198 (Simulation time: 07 hr 20 min 09 sec)
Heartbeat CPU 1 instructions: 1870000004 cycles: 833720860 heartbeat IPC: 2.293 cumulative IPC: 2.199 (Simulation time: 07 hr 22 min 11 sec)
Heartbeat CPU 2 instructions: 650000003 cycles: 835958558 heartbeat IPC: 0.9894 cumulative IPC: 0.695 (Simulation time: 07 hr 23 min 11 sec)
Heartbeat CPU 1 instructions: 1880000003 cycles: 837953101 heartbeat IPC: 2.363 cumulative IPC: 2.2 (Simulation time: 07 hr 24 min 05 sec)
Heartbeat CPU 3 instructions: 790000004 cycles: 838526080 heartbeat IPC: 0.806 cumulative IPC: 0.8673 (Simulation time: 07 hr 24 min 24 sec)
Heartbeat CPU 1 instructions: 1890000000 cycles: 842466400 heartbeat IPC: 2.216 cumulative IPC: 2.2 (Simulation time: 07 hr 26 min 22 sec)
Heartbeat CPU 1 instructions: 1900000000 cycles: 846784710 heartbeat IPC: 2.316 cumulative IPC: 2.2 (Simulation time: 07 hr 28 min 21 sec)
Heartbeat CPU 2 instructions: 660000000 cycles: 859112306 heartbeat IPC: 0.4319 cumulative IPC: 0.6878 (Simulation time: 07 hr 33 min 12 sec)
Heartbeat CPU 1 instructions: 1910000002 cycles: 860286662 heartbeat IPC: 0.7406 cumulative IPC: 2.177 (Simulation time: 07 hr 33 min 47 sec)
Heartbeat CPU 1 instructions: 1920000001 cycles: 864722665 heartbeat IPC: 2.254 cumulative IPC: 2.177 (Simulation time: 07 hr 35 min 44 sec)
Heartbeat CPU 1 instructions: 1930000002 cycles: 869027346 heartbeat IPC: 2.323 cumulative IPC: 2.178 (Simulation time: 07 hr 37 min 35 sec)
Heartbeat CPU 1 instructions: 1940000002 cycles: 873507203 heartbeat IPC: 2.232 cumulative IPC: 2.178 (Simulation time: 07 hr 39 min 25 sec)
Heartbeat CPU 1 instructions: 1950000004 cycles: 877763122 heartbeat IPC: 2.35 cumulative IPC: 2.179 (Simulation time: 07 hr 41 min 16 sec)
Heartbeat CPU 1 instructions: 1960000000 cycles: 881989812 heartbeat IPC: 2.366 cumulative IPC: 2.18 (Simulation time: 07 hr 43 min 03 sec)
Heartbeat CPU 1 instructions: 1970000004 cycles: 886409641 heartbeat IPC: 2.263 cumulative IPC: 2.18 (Simulation time: 07 hr 44 min 56 sec)
Heartbeat CPU 2 instructions: 670000003 cycles: 888753044 heartbeat IPC: 0.3374 cumulative IPC: 0.6758 (Simulation time: 07 hr 45 min 56 sec)
Heartbeat CPU 1 instructions: 1980000000 cycles: 890661873 heartbeat IPC: 2.352 cumulative IPC: 2.181 (Simulation time: 07 hr 46 min 43 sec)
Heartbeat CPU 1 instructions: 1990000001 cycles: 894902716 heartbeat IPC: 2.358 cumulative IPC: 2.182 (Simulation time: 07 hr 48 min 28 sec)
*** Reached end of trace: (1, "/home/das/dpc3_traces/603.bwaves_s-3699B.champsimtrace.xz")
Heartbeat CPU 1 instructions: 2000000001 cycles: 899188316 heartbeat IPC: 2.333 cumulative IPC: 2.183 (Simulation time: 07 hr 50 min 16 sec)
Heartbeat CPU 3 instructions: 800000000 cycles: 902154087 heartbeat IPC: 0.1572 cumulative IPC: 0.816 (Simulation time: 07 hr 51 min 37 sec)
Heartbeat CPU 1 instructions: 2010000004 cycles: 903511487 heartbeat IPC: 2.313 cumulative IPC: 2.183 (Simulation time: 07 hr 52 min 17 sec)
Heartbeat CPU 2 instructions: 680000000 cycles: 906917358 heartbeat IPC: 0.5505 cumulative IPC: 0.6732 (Simulation time: 07 hr 53 min 59 sec)
Heartbeat CPU 3 instructions: 810000001 cycles: 907912633 heartbeat IPC: 1.737 cumulative IPC: 0.822 (Simulation time: 07 hr 54 min 29 sec)
Heartbeat CPU 1 instructions: 2020000004 cycles: 910417752 heartbeat IPC: 1.448 cumulative IPC: 2.178 (Simulation time: 07 hr 55 min 42 sec)
Heartbeat CPU 3 instructions: 820000003 cycles: 912491867 heartbeat IPC: 2.184 cumulative IPC: 0.829 (Simulation time: 07 hr 56 min 41 sec)
Heartbeat CPU 1 instructions: 2030000000 cycles: 917413039 heartbeat IPC: 1.43 cumulative IPC: 2.172 (Simulation time: 07 hr 59 min 15 sec)
Heartbeat CPU 3 instructions: 830000001 cycles: 918173905 heartbeat IPC: 1.76 cumulative IPC: 0.8349 (Simulation time: 07 hr 59 min 37 sec)
Heartbeat CPU 2 instructions: 690000000 cycles: 921470221 heartbeat IPC: 0.6872 cumulative IPC: 0.6734 (Simulation time: 08 hr 01 min 27 sec)
Heartbeat CPU 1 instructions: 2040000001 cycles: 921724830 heartbeat IPC: 2.319 cumulative IPC: 2.173 (Simulation time: 08 hr 01 min 34 sec)
Heartbeat CPU 3 instructions: 840000001 cycles: 923239443 heartbeat IPC: 1.974 cumulative IPC: 0.8413 (Simulation time: 08 hr 02 min 22 sec)
Heartbeat CPU 1 instructions: 2050000003 cycles: 926063488 heartbeat IPC: 2.305 cumulative IPC: 2.173 (Simulation time: 08 hr 03 min 55 sec)
Heartbeat CPU 3 instructions: 850000003 cycles: 928844474 heartbeat IPC: 1.784 cumulative IPC: 0.8471 (Simulation time: 08 hr 05 min 20 sec)
Heartbeat CPU 2 instructions: 700000001 cycles: 930318571 heartbeat IPC: 1.13 cumulative IPC: 0.6779 (Simulation time: 08 hr 06 min 02 sec)
Heartbeat CPU 1 instructions: 2060000001 cycles: 930331843 heartbeat IPC: 2.343 cumulative IPC: 2.174 (Simulation time: 08 hr 06 min 02 sec)
Heartbeat CPU 0 instructions: 130000002 cycles: 932830661 heartbeat IPC: 0.08246 cumulative IPC: 0.08772 (Simulation time: 08 hr 07 min 20 sec)
Heartbeat CPU 1 instructions: 2070000003 cycles: 934634856 heartbeat IPC: 2.324 cumulative IPC: 2.175 (Simulation time: 08 hr 08 min 17 sec)
Heartbeat CPU 3 instructions: 860000001 cycles: 934711834 heartbeat IPC: 1.704 cumulative IPC: 0.8526 (Simulation time: 08 hr 08 min 19 sec)
Heartbeat CPU 1 instructions: 2080000002 cycles: 938882278 heartbeat IPC: 2.354 cumulative IPC: 2.176 (Simulation time: 08 hr 10 min 23 sec)
Heartbeat CPU 2 instructions: 710000001 cycles: 939954414 heartbeat IPC: 1.038 cumulative IPC: 0.6817 (Simulation time: 08 hr 10 min 54 sec)
Heartbeat CPU 3 instructions: 870000000 cycles: 940892228 heartbeat IPC: 1.618 cumulative IPC: 0.8578 (Simulation time: 08 hr 11 min 25 sec)
Heartbeat CPU 1 instructions: 2090000000 cycles: 943170048 heartbeat IPC: 2.332 cumulative IPC: 2.176 (Simulation time: 08 hr 12 min 39 sec)
Heartbeat CPU 1 instructions: 2100000003 cycles: 947551781 heartbeat IPC: 2.282 cumulative IPC: 2.177 (Simulation time: 08 hr 14 min 34 sec)
Heartbeat CPU 2 instructions: 720000002 cycles: 949800418 heartbeat IPC: 1.016 cumulative IPC: 0.6852 (Simulation time: 08 hr 15 min 36 sec)
Heartbeat CPU 1 instructions: 2110000000 cycles: 952070801 heartbeat IPC: 2.213 cumulative IPC: 2.177 (Simulation time: 08 hr 16 min 36 sec)
Heartbeat CPU 3 instructions: 880000000 cycles: 952936895 heartbeat IPC: 0.8302 cumulative IPC: 0.8574 (Simulation time: 08 hr 17 min 04 sec)
Heartbeat CPU 1 instructions: 2120000000 cycles: 956484149 heartbeat IPC: 2.266 cumulative IPC: 2.177 (Simulation time: 08 hr 18 min 47 sec)
Heartbeat CPU 1 instructions: 2130000004 cycles: 961101039 heartbeat IPC: 2.166 cumulative IPC: 2.177 (Simulation time: 08 hr 20 min 56 sec)
Heartbeat CPU 2 instructions: 730000001 cycles: 964315050 heartbeat IPC: 0.689 cumulative IPC: 0.6853 (Simulation time: 08 hr 22 min 26 sec)
Heartbeat CPU 1 instructions: 2140000001 cycles: 965683950 heartbeat IPC: 2.182 cumulative IPC: 2.177 (Simulation time: 08 hr 23 min 06 sec)
Heartbeat CPU 1 instructions: 2150000001 cycles: 970191891 heartbeat IPC: 2.218 cumulative IPC: 2.178 (Simulation time: 08 hr 25 min 07 sec)
Heartbeat CPU 1 instructions: 2160000000 cycles: 974796614 heartbeat IPC: 2.172 cumulative IPC: 2.178 (Simulation time: 08 hr 27 min 11 sec)
Heartbeat CPU 1 instructions: 2170000000 cycles: 979406661 heartbeat IPC: 2.169 cumulative IPC: 2.178 (Simulation time: 08 hr 29 min 16 sec)
Heartbeat CPU 1 instructions: 2180000002 cycles: 984105615 heartbeat IPC: 2.128 cumulative IPC: 2.177 (Simulation time: 08 hr 31 min 24 sec)
Heartbeat CPU 1 instructions: 2190000000 cycles: 988781641 heartbeat IPC: 2.139 cumulative IPC: 2.177 (Simulation time: 08 hr 33 min 19 sec)
Heartbeat CPU 1 instructions: 2200000003 cycles: 993320613 heartbeat IPC: 2.203 cumulative IPC: 2.177 (Simulation time: 08 hr 35 min 24 sec)
Heartbeat CPU 2 instructions: 740000003 cycles: 994155632 heartbeat IPC: 0.3351 cumulative IPC: 0.6745 (Simulation time: 08 hr 35 min 42 sec)
Heartbeat CPU 1 instructions: 2210000000 cycles: 998102503 heartbeat IPC: 2.091 cumulative IPC: 2.177 (Simulation time: 08 hr 37 min 25 sec)
Heartbeat CPU 1 instructions: 2220000001 cycles: 1003075195 heartbeat IPC: 2.011 cumulative IPC: 2.176 (Simulation time: 08 hr 39 min 28 sec)
Heartbeat CPU 1 instructions: 2230000004 cycles: 1007870573 heartbeat IPC: 2.085 cumulative IPC: 2.176 (Simulation time: 08 hr 41 min 39 sec)
Heartbeat CPU 1 instructions: 2240000000 cycles: 1012536049 heartbeat IPC: 2.143 cumulative IPC: 2.175 (Simulation time: 08 hr 43 min 53 sec)
Heartbeat CPU 3 instructions: 890000004 cycles: 1013446249 heartbeat IPC: 0.1653 cumulative IPC: 0.8152 (Simulation time: 08 hr 44 min 19 sec)
Heartbeat CPU 2 instructions: 750000004 cycles: 1016470782 heartbeat IPC: 0.4481 cumulative IPC: 0.6695 (Simulation time: 08 hr 46 min 00 sec)
Heartbeat CPU 1 instructions: 2250000004 cycles: 1017096607 heartbeat IPC: 2.193 cumulative IPC: 2.175 (Simulation time: 08 hr 46 min 18 sec)
Heartbeat CPU 3 instructions: 900000000 cycles: 1018679669 heartbeat IPC: 1.911 cumulative IPC: 0.821 (Simulation time: 08 hr 47 min 06 sec)
Heartbeat CPU 1 instructions: 2260000000 cycles: 1021579060 heartbeat IPC: 2.231 cumulative IPC: 2.176 (Simulation time: 08 hr 48 min 40 sec)
Heartbeat CPU 3 instructions: 910000000 cycles: 1022575355 heartbeat IPC: 2.567 cumulative IPC: 0.8277 (Simulation time: 08 hr 49 min 10 sec)
Heartbeat CPU 2 instructions: 760000001 cycles: 1026059558 heartbeat IPC: 1.043 cumulative IPC: 0.673 (Simulation time: 08 hr 51 min 08 sec)
Heartbeat CPU 1 instructions: 2270000002 cycles: 1026138586 heartbeat IPC: 2.193 cumulative IPC: 2.176 (Simulation time: 08 hr 51 min 11 sec)
Heartbeat CPU 3 instructions: 920000000 cycles: 1026395202 heartbeat IPC: 2.618 cumulative IPC: 0.8345 (Simulation time: 08 hr 51 min 18 sec)
Heartbeat CPU 1 instructions: 2280000002 cycles: 1030624244 heartbeat IPC: 2.229 cumulative IPC: 2.176 (Simulation time: 08 hr 53 min 28 sec)
Heartbeat CPU 3 instructions: 930000001 cycles: 1031889440 heartbeat IPC: 1.82 cumulative IPC: 0.8399 (Simulation time: 08 hr 54 min 04 sec)
Heartbeat CPU 1 instructions: 2290000000 cycles: 1035151196 heartbeat IPC: 2.209 cumulative IPC: 2.176 (Simulation time: 08 hr 55 min 36 sec)
Heartbeat CPU 2 instructions: 770000002 cycles: 1035678721 heartbeat IPC: 1.04 cumulative IPC: 0.6765 (Simulation time: 08 hr 55 min 49 sec)
Heartbeat CPU 3 instructions: 940000004 cycles: 1037787633 heartbeat IPC: 1.695 cumulative IPC: 0.8449 (Simulation time: 08 hr 56 min 53 sec)
Heartbeat CPU 1 instructions: 2300000000 cycles: 1039694258 heartbeat IPC: 2.201 cumulative IPC: 2.176 (Simulation time: 08 hr 57 min 52 sec)
Heartbeat CPU 1 instructions: 2310000002 cycles: 1044175924 heartbeat IPC: 2.231 cumulative IPC: 2.177 (Simulation time: 09 hr 00 min 05 sec)
Heartbeat CPU 3 instructions: 950000000 cycles: 1044226846 heartbeat IPC: 1.553 cumulative IPC: 0.8493 (Simulation time: 09 hr 00 min 06 sec)
Heartbeat CPU 0 instructions: 140000001 cycles: 1044791664 heartbeat IPC: 0.08932 cumulative IPC: 0.0879 (Simulation time: 09 hr 00 min 23 sec)
Heartbeat CPU 2 instructions: 780000001 cycles: 1044858632 heartbeat IPC: 1.089 cumulative IPC: 0.6802 (Simulation time: 09 hr 00 min 25 sec)
Heartbeat CPU 1 instructions: 2320000001 cycles: 1048697337 heartbeat IPC: 2.212 cumulative IPC: 2.177 (Simulation time: 09 hr 02 min 13 sec)
Heartbeat CPU 3 instructions: 960000000 cycles: 1050859581 heartbeat IPC: 1.508 cumulative IPC: 0.8536 (Simulation time: 09 hr 03 min 19 sec)
Heartbeat CPU 1 instructions: 2330000003 cycles: 1053219873 heartbeat IPC: 2.211 cumulative IPC: 2.177 (Simulation time: 09 hr 04 min 37 sec)
Heartbeat CPU 2 instructions: 790000000 cycles: 1054534258 heartbeat IPC: 1.034 cumulative IPC: 0.6835 (Simulation time: 09 hr 05 min 23 sec)
Heartbeat CPU 3 instructions: 970000003 cycles: 1055562207 heartbeat IPC: 2.126 cumulative IPC: 0.8593 (Simulation time: 09 hr 05 min 54 sec)
Heartbeat CPU 1 instructions: 2340000000 cycles: 1057751134 heartbeat IPC: 2.207 cumulative IPC: 2.177 (Simulation time: 09 hr 07 min 05 sec)
Heartbeat CPU 1 instructions: 2350000000 cycles: 1062292004 heartbeat IPC: 2.202 cumulative IPC: 2.177 (Simulation time: 09 hr 09 min 05 sec)
Heartbeat CPU 2 instructions: 800000001 cycles: 1065171465 heartbeat IPC: 0.9401 cumulative IPC: 0.6861 (Simulation time: 09 hr 10 min 23 sec)
Heartbeat CPU 1 instructions: 2360000003 cycles: 1066945307 heartbeat IPC: 2.149 cumulative IPC: 2.177 (Simulation time: 09 hr 11 min 10 sec)
Heartbeat CPU 3 instructions: 980000003 cycles: 1070922430 heartbeat IPC: 0.651 cumulative IPC: 0.8563 (Simulation time: 09 hr 12 min 49 sec)
Heartbeat CPU 1 instructions: 2370000001 cycles: 1071520056 heartbeat IPC: 2.186 cumulative IPC: 2.177 (Simulation time: 09 hr 13 min 04 sec)
Heartbeat CPU 1 instructions: 2380000001 cycles: 1076061060 heartbeat IPC: 2.202 cumulative IPC: 2.177 (Simulation time: 09 hr 14 min 55 sec)
Heartbeat CPU 2 instructions: 810000004 cycles: 1080010322 heartbeat IPC: 0.6739 cumulative IPC: 0.6859 (Simulation time: 09 hr 16 min 31 sec)
Heartbeat CPU 1 instructions: 2390000004 cycles: 1080682226 heartbeat IPC: 2.164 cumulative IPC: 2.177 (Simulation time: 09 hr 16 min 47 sec)
Heartbeat CPU 1 instructions: 2400000000 cycles: 1085326307 heartbeat IPC: 2.153 cumulative IPC: 2.177 (Simulation time: 09 hr 18 min 37 sec)
Heartbeat CPU 1 instructions: 2410000000 cycles: 1089924922 heartbeat IPC: 2.175 cumulative IPC: 2.177 (Simulation time: 09 hr 20 min 32 sec)
Heartbeat CPU 1 instructions: 2420000003 cycles: 1094511376 heartbeat IPC: 2.18 cumulative IPC: 2.177 (Simulation time: 09 hr 22 min 28 sec)
Heartbeat CPU 1 instructions: 2430000003 cycles: 1099277508 heartbeat IPC: 2.098 cumulative IPC: 2.177 (Simulation time: 09 hr 24 min 27 sec)
Heartbeat CPU 1 instructions: 2440000002 cycles: 1103916515 heartbeat IPC: 2.156 cumulative IPC: 2.176 (Simulation time: 09 hr 26 min 30 sec)
Heartbeat CPU 1 instructions: 2450000002 cycles: 1108470659 heartbeat IPC: 2.196 cumulative IPC: 2.177 (Simulation time: 09 hr 28 min 20 sec)
Heartbeat CPU 2 instructions: 820000003 cycles: 1109977725 heartbeat IPC: 0.3337 cumulative IPC: 0.6762 (Simulation time: 09 hr 28 min 56 sec)
Heartbeat CPU 1 instructions: 2460000001 cycles: 1113217932 heartbeat IPC: 2.106 cumulative IPC: 2.176 (Simulation time: 09 hr 30 min 23 sec)
Heartbeat CPU 1 instructions: 2470000001 cycles: 1117480492 heartbeat IPC: 2.346 cumulative IPC: 2.177 (Simulation time: 09 hr 32 min 09 sec)
Heartbeat CPU 1 instructions: 2480000004 cycles: 1121953080 heartbeat IPC: 2.236 cumulative IPC: 2.177 (Simulation time: 09 hr 34 min 01 sec)
Heartbeat CPU 1 instructions: 2490000001 cycles: 1126227790 heartbeat IPC: 2.339 cumulative IPC: 2.178 (Simulation time: 09 hr 36 min 06 sec)
Heartbeat CPU 3 instructions: 990000003 cycles: 1128618943 heartbeat IPC: 0.1733 cumulative IPC: 0.8207 (Simulation time: 09 hr 37 min 19 sec)
Heartbeat CPU 1 instructions: 2500000000 cycles: 1130596673 heartbeat IPC: 2.289 cumulative IPC: 2.178 (Simulation time: 09 hr 38 min 30 sec)
Heartbeat CPU 2 instructions: 830000001 cycles: 1130860027 heartbeat IPC: 0.4789 cumulative IPC: 0.6725 (Simulation time: 09 hr 38 min 37 sec)
Heartbeat CPU 3 instructions: 1000000002 cycles: 1134063431 heartbeat IPC: 1.837 cumulative IPC: 0.8257 (Simulation time: 09 hr 40 min 24 sec)
Heartbeat CPU 1 instructions: 2510000003 cycles: 1134922217 heartbeat IPC: 2.312 cumulative IPC: 2.179 (Simulation time: 09 hr 40 min 55 sec)
Heartbeat CPU 3 instructions: 1010000000 cycles: 1137913939 heartbeat IPC: 2.597 cumulative IPC: 0.8318 (Simulation time: 09 hr 42 min 41 sec)
Heartbeat CPU 1 instructions: 2520000004 cycles: 1139313084 heartbeat IPC: 2.277 cumulative IPC: 2.179 (Simulation time: 09 hr 43 min 28 sec)
Heartbeat CPU 2 instructions: 840000002 cycles: 1140376529 heartbeat IPC: 1.051 cumulative IPC: 0.6758 (Simulation time: 09 hr 44 min 07 sec)
Heartbeat CPU 3 instructions: 1020000001 cycles: 1142156292 heartbeat IPC: 2.357 cumulative IPC: 0.8376 (Simulation time: 09 hr 45 min 04 sec)
Heartbeat CPU 1 instructions: 2530000001 cycles: 1146909408 heartbeat IPC: 1.316 cumulative IPC: 2.173 (Simulation time: 09 hr 47 min 14 sec)
Heartbeat CPU 3 instructions: 1030000000 cycles: 1150837055 heartbeat IPC: 1.152 cumulative IPC: 0.84 (Simulation time: 09 hr 49 min 03 sec)
Heartbeat CPU 1 instructions: 2540000003 cycles: 1153236236 heartbeat IPC: 1.581 cumulative IPC: 2.17 (Simulation time: 09 hr 50 min 20 sec)
Heartbeat CPU 2 instructions: 850000003 cycles: 1155355097 heartbeat IPC: 0.6676 cumulative IPC: 0.6756 (Simulation time: 09 hr 51 min 31 sec)
Heartbeat CPU 3 instructions: 1040000001 cycles: 1156149634 heartbeat IPC: 1.882 cumulative IPC: 0.8449 (Simulation time: 09 hr 51 min 56 sec)
Heartbeat CPU 1 instructions: 2550000000 cycles: 1157524555 heartbeat IPC: 2.332 cumulative IPC: 2.171 (Simulation time: 09 hr 52 min 42 sec)
Heartbeat CPU 3 instructions: 1050000003 cycles: 1161719684 heartbeat IPC: 1.795 cumulative IPC: 0.8495 (Simulation time: 09 hr 55 min 07 sec)
Heartbeat CPU 1 instructions: 2560000001 cycles: 1161860178 heartbeat IPC: 2.306 cumulative IPC: 2.171 (Simulation time: 09 hr 55 min 11 sec)
Heartbeat CPU 0 instructions: 150000003 cycles: 1163994161 heartbeat IPC: 0.08389 cumulative IPC: 0.08748 (Simulation time: 09 hr 56 min 21 sec)
Heartbeat CPU 2 instructions: 860000000 cycles: 1164206388 heartbeat IPC: 1.13 cumulative IPC: 0.6792 (Simulation time: 09 hr 56 min 26 sec)
Heartbeat CPU 1 instructions: 2570000000 cycles: 1166135294 heartbeat IPC: 2.339 cumulative IPC: 2.172 (Simulation time: 09 hr 57 min 26 sec)
Heartbeat CPU 3 instructions: 1060000002 cycles: 1168682704 heartbeat IPC: 1.436 cumulative IPC: 0.8531 (Simulation time: 09 hr 58 min 47 sec)
Heartbeat CPU 1 instructions: 2580000001 cycles: 1170539497 heartbeat IPC: 2.271 cumulative IPC: 2.172 (Simulation time: 09 hr 59 min 46 sec)
Heartbeat CPU 2 instructions: 870000002 cycles: 1173426316 heartbeat IPC: 1.085 cumulative IPC: 0.6824 (Simulation time: 10 hr 01 min 22 sec)
Heartbeat CPU 3 instructions: 1070000001 cycles: 1173681390 heartbeat IPC: 2.001 cumulative IPC: 0.858 (Simulation time: 10 hr 01 min 30 sec)
Heartbeat CPU 1 instructions: 2590000001 cycles: 1174804076 heartbeat IPC: 2.345 cumulative IPC: 2.173 (Simulation time: 10 hr 02 min 02 sec)
Heartbeat CPU 1 instructions: 2600000004 cycles: 1179073460 heartbeat IPC: 2.342 cumulative IPC: 2.173 (Simulation time: 10 hr 04 min 05 sec)
Heartbeat CPU 1 instructions: 2610000004 cycles: 1183436929 heartbeat IPC: 2.292 cumulative IPC: 2.174 (Simulation time: 10 hr 06 min 14 sec)
Heartbeat CPU 2 instructions: 880000004 cycles: 1184821269 heartbeat IPC: 0.8776 cumulative IPC: 0.6843 (Simulation time: 10 hr 06 min 59 sec)
Heartbeat CPU 1 instructions: 2620000000 cycles: 1187782073 heartbeat IPC: 2.301 cumulative IPC: 2.174 (Simulation time: 10 hr 08 min 24 sec)
Heartbeat CPU 1 instructions: 2630000000 cycles: 1192158497 heartbeat IPC: 2.285 cumulative IPC: 2.175 (Simulation time: 10 hr 10 min 31 sec)
Heartbeat CPU 1 instructions: 2640000000 cycles: 1196489939 heartbeat IPC: 2.309 cumulative IPC: 2.175 (Simulation time: 10 hr 12 min 22 sec)
Heartbeat CPU 1 instructions: 2650000004 cycles: 1200946480 heartbeat IPC: 2.244 cumulative IPC: 2.175 (Simulation time: 10 hr 14 min 06 sec)
Heartbeat CPU 2 instructions: 890000003 cycles: 1204858640 heartbeat IPC: 0.4991 cumulative IPC: 0.6812 (Simulation time: 10 hr 15 min 38 sec)
Heartbeat CPU 1 instructions: 2660000000 cycles: 1205526367 heartbeat IPC: 2.183 cumulative IPC: 2.176 (Simulation time: 10 hr 15 min 55 sec)
Heartbeat CPU 1 instructions: 2670000000 cycles: 1210087156 heartbeat IPC: 2.193 cumulative IPC: 2.176 (Simulation time: 10 hr 17 min 49 sec)
Heartbeat CPU 1 instructions: 2680000001 cycles: 1214711263 heartbeat IPC: 2.163 cumulative IPC: 2.176 (Simulation time: 10 hr 19 min 46 sec)
Heartbeat CPU 1 instructions: 2690000000 cycles: 1219291757 heartbeat IPC: 2.183 cumulative IPC: 2.176 (Simulation time: 10 hr 21 min 36 sec)
Heartbeat CPU 1 instructions: 2700000002 cycles: 1223956957 heartbeat IPC: 2.144 cumulative IPC: 2.175 (Simulation time: 10 hr 23 min 31 sec)
Heartbeat CPU 3 instructions: 1080000001 cycles: 1224228059 heartbeat IPC: 0.1978 cumulative IPC: 0.8303 (Simulation time: 10 hr 23 min 39 sec)
Heartbeat CPU 1 instructions: 2710000001 cycles: 1228577360 heartbeat IPC: 2.164 cumulative IPC: 2.175 (Simulation time: 10 hr 25 min 28 sec)
Heartbeat CPU 1 instructions: 2720000003 cycles: 1233227332 heartbeat IPC: 2.151 cumulative IPC: 2.175 (Simulation time: 10 hr 27 min 18 sec)
Heartbeat CPU 2 instructions: 900000004 cycles: 1235313135 heartbeat IPC: 0.3284 cumulative IPC: 0.6723 (Simulation time: 10 hr 28 min 15 sec)
Heartbeat CPU 1 instructions: 2730000001 cycles: 1237786502 heartbeat IPC: 2.193 cumulative IPC: 2.175 (Simulation time: 10 hr 29 min 13 sec)
Heartbeat CPU 1 instructions: 2740000003 cycles: 1242358696 heartbeat IPC: 2.187 cumulative IPC: 2.175 (Simulation time: 10 hr 31 min 11 sec)
Heartbeat CPU 3 instructions: 1090000000 cycles: 1246360585 heartbeat IPC: 0.4518 cumulative IPC: 0.8235 (Simulation time: 10 hr 33 min 15 sec)
Heartbeat CPU 1 instructions: 2750000000 cycles: 1246990759 heartbeat IPC: 2.159 cumulative IPC: 2.175 (Simulation time: 10 hr 33 min 34 sec)
Heartbeat CPU 2 instructions: 910000000 cycles: 1249811107 heartbeat IPC: 0.6898 cumulative IPC: 0.6725 (Simulation time: 10 hr 35 min 04 sec)
Heartbeat CPU 3 instructions: 1100000000 cycles: 1250848853 heartbeat IPC: 2.228 cumulative IPC: 0.8286 (Simulation time: 10 hr 35 min 41 sec)
Heartbeat CPU 1 instructions: 2760000000 cycles: 1251438713 heartbeat IPC: 2.248 cumulative IPC: 2.176 (Simulation time: 10 hr 35 min 59 sec)
Heartbeat CPU 3 instructions: 1110000000 cycles: 1254739403 heartbeat IPC: 2.57 cumulative IPC: 0.8341 (Simulation time: 10 hr 37 min 51 sec)
Heartbeat CPU 1 instructions: 2770000001 cycles: 1255911445 heartbeat IPC: 2.236 cumulative IPC: 2.176 (Simulation time: 10 hr 38 min 27 sec)
Heartbeat CPU 3 instructions: 1120000000 cycles: 1258949291 heartbeat IPC: 2.375 cumulative IPC: 0.8393 (Simulation time: 10 hr 40 min 02 sec)
Heartbeat CPU 2 instructions: 920000001 cycles: 1259247968 heartbeat IPC: 1.06 cumulative IPC: 0.6755 (Simulation time: 10 hr 40 min 09 sec)
Heartbeat CPU 1 instructions: 2780000001 cycles: 1260373291 heartbeat IPC: 2.241 cumulative IPC: 2.176 (Simulation time: 10 hr 40 min 48 sec)
Heartbeat CPU 3 instructions: 1130000001 cycles: 1264694620 heartbeat IPC: 1.741 cumulative IPC: 0.8435 (Simulation time: 10 hr 43 min 14 sec)
Heartbeat CPU 1 instructions: 2790000001 cycles: 1264857873 heartbeat IPC: 2.23 cumulative IPC: 2.176 (Simulation time: 10 hr 43 min 19 sec)
Heartbeat CPU 2 instructions: 930000002 cycles: 1268413443 heartbeat IPC: 1.091 cumulative IPC: 0.6785 (Simulation time: 10 hr 45 min 07 sec)
Heartbeat CPU 1 instructions: 2800000000 cycles: 1269315808 heartbeat IPC: 2.243 cumulative IPC: 2.176 (Simulation time: 10 hr 45 min 36 sec)
Heartbeat CPU 3 instructions: 1140000002 cycles: 1270506501 heartbeat IPC: 1.721 cumulative IPC: 0.8476 (Simulation time: 10 hr 46 min 12 sec)
Heartbeat CPU 1 instructions: 2810000004 cycles: 1273807858 heartbeat IPC: 2.226 cumulative IPC: 2.177 (Simulation time: 10 hr 47 min 56 sec)
Heartbeat CPU 3 instructions: 1150000004 cycles: 1275883371 heartbeat IPC: 1.86 cumulative IPC: 0.8519 (Simulation time: 10 hr 49 min 03 sec)
Heartbeat CPU 0 instructions: 160000002 cycles: 1277333569 heartbeat IPC: 0.08823 cumulative IPC: 0.08755 (Simulation time: 10 hr 49 min 47 sec)
Heartbeat CPU 2 instructions: 940000002 cycles: 1278214295 heartbeat IPC: 1.02 cumulative IPC: 0.6812 (Simulation time: 10 hr 50 min 11 sec)
Heartbeat CPU 1 instructions: 2820000002 cycles: 1278351789 heartbeat IPC: 2.201 cumulative IPC: 2.177 (Simulation time: 10 hr 50 min 14 sec)
Heartbeat CPU 1 instructions: 2830000003 cycles: 1282864859 heartbeat IPC: 2.216 cumulative IPC: 2.177 (Simulation time: 10 hr 52 min 26 sec)
Heartbeat CPU 3 instructions: 1160000004 cycles: 1283238900 heartbeat IPC: 1.36 cumulative IPC: 0.8549 (Simulation time: 10 hr 52 min 38 sec)
Heartbeat CPU 1 instructions: 2840000002 cycles: 1287389579 heartbeat IPC: 2.21 cumulative IPC: 2.177 (Simulation time: 10 hr 54 min 52 sec)
Heartbeat CPU 2 instructions: 950000001 cycles: 1287806872 heartbeat IPC: 1.042 cumulative IPC: 0.6839 (Simulation time: 10 hr 55 min 03 sec)
Heartbeat CPU 3 instructions: 1170000000 cycles: 1289474126 heartbeat IPC: 1.604 cumulative IPC: 0.8585 (Simulation time: 10 hr 55 min 54 sec)
Heartbeat CPU 1 instructions: 2850000000 cycles: 1291860098 heartbeat IPC: 2.237 cumulative IPC: 2.177 (Simulation time: 10 hr 57 min 06 sec)
Heartbeat CPU 1 instructions: 2860000002 cycles: 1296321227 heartbeat IPC: 2.242 cumulative IPC: 2.177 (Simulation time: 10 hr 59 min 08 sec)
Heartbeat CPU 2 instructions: 960000004 cycles: 1299103955 heartbeat IPC: 0.8852 cumulative IPC: 0.6857 (Simulation time: 11 hr 00 min 27 sec)
Heartbeat CPU 1 instructions: 2870000002 cycles: 1300780951 heartbeat IPC: 2.242 cumulative IPC: 2.178 (Simulation time: 11 hr 01 min 11 sec)
Heartbeat CPU 1 instructions: 2880000004 cycles: 1305274003 heartbeat IPC: 2.226 cumulative IPC: 2.178 (Simulation time: 11 hr 03 min 07 sec)
Heartbeat CPU 1 instructions: 2890000003 cycles: 1309832543 heartbeat IPC: 2.194 cumulative IPC: 2.178 (Simulation time: 11 hr 05 min 00 sec)
Heartbeat CPU 1 instructions: 2900000001 cycles: 1314428042 heartbeat IPC: 2.176 cumulative IPC: 2.178 (Simulation time: 11 hr 06 min 59 sec)
Heartbeat CPU 1 instructions: 2910000002 cycles: 1319164800 heartbeat IPC: 2.111 cumulative IPC: 2.178 (Simulation time: 11 hr 09 min 00 sec)
Heartbeat CPU 2 instructions: 970000004 cycles: 1320002511 heartbeat IPC: 0.4785 cumulative IPC: 0.6824 (Simulation time: 11 hr 09 min 21 sec)
Heartbeat CPU 1 instructions: 2920000000 cycles: 1323767555 heartbeat IPC: 2.173 cumulative IPC: 2.178 (Simulation time: 11 hr 10 min 44 sec)
Heartbeat CPU 1 instructions: 2930000000 cycles: 1328402940 heartbeat IPC: 2.157 cumulative IPC: 2.178 (Simulation time: 11 hr 12 min 29 sec)
Heartbeat CPU 1 instructions: 2940000004 cycles: 1333197023 heartbeat IPC: 2.086 cumulative IPC: 2.177 (Simulation time: 11 hr 14 min 23 sec)
Heartbeat CPU 1 instructions: 2950000004 cycles: 1337823400 heartbeat IPC: 2.162 cumulative IPC: 2.177 (Simulation time: 11 hr 16 min 18 sec)
Heartbeat CPU 1 instructions: 2960000002 cycles: 1342489861 heartbeat IPC: 2.143 cumulative IPC: 2.177 (Simulation time: 11 hr 18 min 07 sec)
Heartbeat CPU 3 instructions: 1180000001 cycles: 1342789058 heartbeat IPC: 0.1876 cumulative IPC: 0.8315 (Simulation time: 11 hr 18 min 14 sec)
Heartbeat CPU 1 instructions: 2970000000 cycles: 1347061792 heartbeat IPC: 2.187 cumulative IPC: 2.177 (Simulation time: 11 hr 19 min 51 sec)
Heartbeat CPU 2 instructions: 980000003 cycles: 1350516564 heartbeat IPC: 0.3277 cumulative IPC: 0.6742 (Simulation time: 11 hr 21 min 12 sec)
Heartbeat CPU 1 instructions: 2980000004 cycles: 1351806343 heartbeat IPC: 2.108 cumulative IPC: 2.177 (Simulation time: 11 hr 21 min 47 sec)
Heartbeat CPU 1 instructions: 2990000003 cycles: 1356362767 heartbeat IPC: 2.195 cumulative IPC: 2.177 (Simulation time: 11 hr 23 min 37 sec)
Heartbeat CPU 1 instructions: 3000000003 cycles: 1360918922 heartbeat IPC: 2.195 cumulative IPC: 2.177 (Simulation time: 11 hr 25 min 47 sec)
Heartbeat CPU 3 instructions: 1190000001 cycles: 1361319687 heartbeat IPC: 0.5396 cumulative IPC: 0.8274 (Simulation time: 11 hr 25 min 59 sec)
Heartbeat CPU 2 instructions: 990000002 cycles: 1364478285 heartbeat IPC: 0.7162 cumulative IPC: 0.6747 (Simulation time: 11 hr 27 min 38 sec)
Heartbeat CPU 1 instructions: 3010000004 cycles: 1365449299 heartbeat IPC: 2.207 cumulative IPC: 2.177 (Simulation time: 11 hr 28 min 10 sec)
Heartbeat CPU 3 instructions: 1200000002 cycles: 1365662630 heartbeat IPC: 2.303 cumulative IPC: 0.8322 (Simulation time: 11 hr 28 min 17 sec)
Heartbeat CPU 3 instructions: 1210000000 cycles: 1369661340 heartbeat IPC: 2.501 cumulative IPC: 0.8372 (Simulation time: 11 hr 30 min 19 sec)
Heartbeat CPU 1 instructions: 3020000001 cycles: 1369937395 heartbeat IPC: 2.228 cumulative IPC: 2.177 (Simulation time: 11 hr 30 min 27 sec)
Heartbeat CPU 2 instructions: 1000000004 cycles: 1373800707 heartbeat IPC: 1.073 cumulative IPC: 0.6774 (Simulation time: 11 hr 32 min 30 sec)
Heartbeat CPU 3 instructions: 1220000000 cycles: 1374120368 heartbeat IPC: 2.243 cumulative IPC: 0.8418 (Simulation time: 11 hr 32 min 40 sec)
Heartbeat CPU 1 instructions: 3030000003 cycles: 1374326882 heartbeat IPC: 2.278 cumulative IPC: 2.178 (Simulation time: 11 hr 32 min 46 sec)
Heartbeat CPU 1 instructions: 3040000000 cycles: 1378710288 heartbeat IPC: 2.281 cumulative IPC: 2.178 (Simulation time: 11 hr 35 min 00 sec)
Heartbeat CPU 3 instructions: 1230000003 cycles: 1379864782 heartbeat IPC: 1.741 cumulative IPC: 0.8456 (Simulation time: 11 hr 35 min 37 sec)
Heartbeat CPU 2 instructions: 1010000002 cycles: 1382865188 heartbeat IPC: 1.103 cumulative IPC: 0.6803 (Simulation time: 11 hr 37 min 09 sec)
Heartbeat CPU 1 instructions: 3050000000 cycles: 1383001028 heartbeat IPC: 2.331 cumulative IPC: 2.178 (Simulation time: 11 hr 37 min 13 sec)
Heartbeat CPU 3 instructions: 1240000001 cycles: 1385568128 heartbeat IPC: 1.753 cumulative IPC: 0.8494 (Simulation time: 11 hr 38 min 26 sec)
Heartbeat CPU 1 instructions: 3060000000 cycles: 1387274494 heartbeat IPC: 2.34 cumulative IPC: 2.179 (Simulation time: 11 hr 39 min 12 sec)
Heartbeat CPU 0 instructions: 170000001 cycles: 1387599168 heartbeat IPC: 0.09069 cumulative IPC: 0.0878 (Simulation time: 11 hr 39 min 19 sec)
Heartbeat CPU 3 instructions: 1250000004 cycles: 1390925214 heartbeat IPC: 1.867 cumulative IPC: 0.8534 (Simulation time: 11 hr 40 min 57 sec)
Heartbeat CPU 1 instructions: 3070000004 cycles: 1391637316 heartbeat IPC: 2.292 cumulative IPC: 2.179 (Simulation time: 11 hr 41 min 18 sec)
Heartbeat CPU 2 instructions: 1020000002 cycles: 1392072612 heartbeat IPC: 1.086 cumulative IPC: 0.683 (Simulation time: 11 hr 41 min 28 sec)
Heartbeat CPU 1 instructions: 3080000004 cycles: 1396084993 heartbeat IPC: 2.248 cumulative IPC: 2.179 (Simulation time: 11 hr 43 min 15 sec)
[...]
cpu2_L2C PREFETCH     ACCESS:          0 HIT:          0 MISS:          0
cpu2_L2C WRITE        ACCESS:          0 HIT:          0 MISS:          0
cpu2_L2C TRANSLATION  ACCESS:          0 HIT:          0 MISS:          0
cpu2_L2C PREFETCH REQUESTED:   84821695 ISSUED:   84662000 USEFUL:   10560608 USELESS:     608923
cpu2_L2C AVERAGE MISS LATENCY: 743.6 cycles
cpu2_L2C TOTAL        ACCESS:          0 HIT:          0 MISS:          0
cpu2_L2C LOAD         ACCESS:          0 HIT:          0 MISS:          0
cpu2_L2C RFO          ACCESS:          0 HIT:          0 MISS:          0
cpu2_L2C PREFETCH     ACCESS:          0 HIT:          0 MISS:          0
cpu2_L2C WRITE        ACCESS:          0 HIT:          0 MISS:          0
cpu2_L2C TRANSLATION  ACCESS:          0 HIT:          0 MISS:          0
cpu2_L2C PREFETCH REQUESTED:   84821695 ISSUED:   84662000 USEFUL:   10560608 USELESS:     608923
cpu2_L2C AVERAGE MISS LATENCY: 743.6 cycles
cpu2_L2C TOTAL        ACCESS:   14327548 HIT:   11133699 MISS:    3193849
cpu2_L2C LOAD         ACCESS:    1982776 HIT:    1488263 MISS:     494513
cpu2_L2C RFO          ACCESS:       2303 HIT:       2172 MISS:        131
cpu2_L2C PREFETCH     ACCESS:   11023892 HIT:    8325223 MISS:    2698669
cpu2_L2C WRITE        ACCESS:    1317764 HIT:    1317764 MISS:          0
cpu2_L2C TRANSLATION  ACCESS:        813 HIT:        277 MISS:        536
cpu2_L2C PREFETCH REQUESTED:   84821695 ISSUED:   84662000 USEFUL:   10560608 USELESS:     608923
cpu2_L2C AVERAGE MISS LATENCY: 743.6 cycles
cpu2_L2C TOTAL        ACCESS:          0 HIT:          0 MISS:          0
cpu2_L2C LOAD         ACCESS:          0 HIT:          0 MISS:          0
cpu2_L2C RFO          ACCESS:          0 HIT:          0 MISS:          0
cpu2_L2C PREFETCH     ACCESS:          0 HIT:          0 MISS:          0
cpu2_L2C WRITE        ACCESS:          0 HIT:          0 MISS:          0
cpu2_L2C TRANSLATION  ACCESS:          0 HIT:          0 MISS:          0
cpu2_L2C PREFETCH REQUESTED:   84821695 ISSUED:   84662000 USEFUL:   10560608 USELESS:     608923
cpu2_L2C AVERAGE MISS LATENCY: 743.6 cycles
cpu2_STLB TOTAL        ACCESS:          0 HIT:          0 MISS:          0
cpu2_STLB LOAD         ACCESS:          0 HIT:          0 MISS:          0
cpu2_STLB RFO          ACCESS:          0 HIT:          0 MISS:          0
cpu2_STLB PREFETCH     ACCESS:          0 HIT:          0 MISS:          0
cpu2_STLB WRITE        ACCESS:          0 HIT:          0 MISS:          0
cpu2_STLB TRANSLATION  ACCESS:          0 HIT:          0 MISS:          0
cpu2_STLB PREFETCH REQUESTED:          0 ISSUED:          0 USEFUL:          0 USELESS:          0
cpu2_STLB AVERAGE MISS LATENCY: 219.1 cycles
cpu2_STLB TOTAL        ACCESS:          0 HIT:          0 MISS:          0
cpu2_STLB LOAD         ACCESS:          0 HIT:          0 MISS:          0
cpu2_STLB RFO          ACCESS:          0 HIT:          0 MISS:          0
cpu2_STLB PREFETCH     ACCESS:          0 HIT:          0 MISS:          0
cpu2_STLB WRITE        ACCESS:          0 HIT:          0 MISS:          0
cpu2_STLB TRANSLATION  ACCESS:          0 HIT:          0 MISS:          0
cpu2_STLB PREFETCH REQUESTED:          0 ISSUED:          0 USEFUL:          0 USELESS:          0
cpu2_STLB AVERAGE MISS LATENCY: 219.1 cycles
cpu2_STLB TOTAL        ACCESS:      35021 HIT:      14434 MISS:      20587
cpu2_STLB LOAD         ACCESS:      35021 HIT:      14434 MISS:      20587
cpu2_STLB RFO          ACCESS:          0 HIT:          0 MISS:          0
cpu2_STLB PREFETCH     ACCESS:          0 HIT:          0 MISS:          0
cpu2_STLB WRITE        ACCESS:          0 HIT:          0 MISS:          0
cpu2_STLB TRANSLATION  ACCESS:          0 HIT:          0 MISS:          0
cpu2_STLB PREFETCH REQUESTED:          0 ISSUED:          0 USEFUL:          0 USELESS:          0
cpu2_STLB AVERAGE MISS LATENCY: 219.1 cycles
cpu2_STLB TOTAL        ACCESS:          0 HIT:          0 MISS:          0
cpu2_STLB LOAD         ACCESS:          0 HIT:          0 MISS:          0
cpu2_STLB RFO          ACCESS:          0 HIT:          0 MISS:          0
cpu2_STLB PREFETCH     ACCESS:          0 HIT:          0 MISS:          0
cpu2_STLB WRITE        ACCESS:          0 HIT:          0 MISS:          0
cpu2_STLB TRANSLATION  ACCESS:          0 HIT:          0 MISS:          0
cpu2_STLB PREFETCH REQUESTED:          0 ISSUED:          0 USEFUL:          0 USELESS:          0
cpu2_STLB AVERAGE MISS LATENCY: 219.1 cycles
cpu3_DTLB TOTAL        ACCESS:          0 HIT:          0 MISS:          0
cpu3_DTLB LOAD         ACCESS:          0 HIT:          0 MISS:          0
cpu3_DTLB RFO          ACCESS:          0 HIT:          0 MISS:          0
cpu3_DTLB PREFETCH     ACCESS:          0 HIT:          0 MISS:          0
cpu3_DTLB WRITE        ACCESS:          0 HIT:          0 MISS:          0
cpu3_DTLB TRANSLATION  ACCESS:          0 HIT:          0 MISS:          0
cpu3_DTLB PREFETCH REQUESTED:          0 ISSUED:          0 USEFUL:          0 USELESS:          0
cpu3_DTLB AVERAGE MISS LATENCY: 16.76 cycles
cpu3_DTLB TOTAL        ACCESS:          0 HIT:          0 MISS:          0
cpu3_DTLB LOAD         ACCESS:          0 HIT:          0 MISS:          0
cpu3_DTLB RFO          ACCESS:          0 HIT:          0 MISS:          0
cpu3_DTLB PREFETCH     ACCESS:          0 HIT:          0 MISS:          0
cpu3_DTLB WRITE        ACCESS:          0 HIT:          0 MISS:          0
cpu3_DTLB TRANSLATION  ACCESS:          0 HIT:          0 MISS:          0
cpu3_DTLB PREFETCH REQUESTED:          0 ISSUED:          0 USEFUL:          0 USELESS:          0
cpu3_DTLB AVERAGE MISS LATENCY: 16.76 cycles
cpu3_DTLB TOTAL        ACCESS:          0 HIT:          0 MISS:          0
cpu3_DTLB LOAD         ACCESS:          0 HIT:          0 MISS:          0
cpu3_DTLB RFO          ACCESS:          0 HIT:          0 MISS:          0
cpu3_DTLB PREFETCH     ACCESS:          0 HIT:          0 MISS:          0
cpu3_DTLB WRITE        ACCESS:          0 HIT:          0 MISS:          0
cpu3_DTLB TRANSLATION  ACCESS:          0 HIT:          0 MISS:          0
cpu3_DTLB PREFETCH REQUESTED:          0 ISSUED:          0 USEFUL:          0 USELESS:          0
cpu3_DTLB AVERAGE MISS LATENCY: 16.76 cycles
cpu3_DTLB TOTAL        ACCESS:   22055700 HIT:   21781007 MISS:     274693
cpu3_DTLB LOAD         ACCESS:   22055700 HIT:   21781007 MISS:     274693
cpu3_DTLB RFO          ACCESS:          0 HIT:          0 MISS:          0
cpu3_DTLB PREFETCH     ACCESS:          0 HIT:          0 MISS:          0
cpu3_DTLB WRITE        ACCESS:          0 HIT:          0 MISS:          0
cpu3_DTLB TRANSLATION  ACCESS:          0 HIT:          0 MISS:          0
cpu3_DTLB PREFETCH REQUESTED:          0 ISSUED:          0 USEFUL:          0 USELESS:          0
cpu3_DTLB AVERAGE MISS LATENCY: 16.76 cycles
cpu3_ITLB TOTAL        ACCESS:          0 HIT:          0 MISS:          0
cpu3_ITLB LOAD         ACCESS:          0 HIT:          0 MISS:          0
cpu3_ITLB RFO          ACCESS:          0 HIT:          0 MISS:          0
cpu3_ITLB PREFETCH     ACCESS:          0 HIT:          0 MISS:          0
cpu3_ITLB WRITE        ACCESS:          0 HIT:          0 MISS:          0
cpu3_ITLB TRANSLATION  ACCESS:          0 HIT:          0 MISS:          0
cpu3_ITLB PREFETCH REQUESTED:          0 ISSUED:          0 USEFUL:          0 USELESS:          0
cpu3_ITLB AVERAGE MISS LATENCY: 111 cycles
cpu3_ITLB TOTAL        ACCESS:          0 HIT:          0 MISS:          0
cpu3_ITLB LOAD         ACCESS:          0 HIT:          0 MISS:          0
cpu3_ITLB RFO          ACCESS:          0 HIT:          0 MISS:          0
cpu3_ITLB PREFETCH     ACCESS:          0 HIT:          0 MISS:          0
cpu3_ITLB WRITE        ACCESS:          0 HIT:          0 MISS:          0
cpu3_ITLB TRANSLATION  ACCESS:          0 HIT:          0 MISS:          0
cpu3_ITLB PREFETCH REQUESTED:          0 ISSUED:          0 USEFUL:          0 USELESS:          0
cpu3_ITLB AVERAGE MISS LATENCY: 111 cycles
cpu3_ITLB TOTAL        ACCESS:          0 HIT:          0 MISS:          0
cpu3_ITLB LOAD         ACCESS:          0 HIT:          0 MISS:          0
cpu3_ITLB RFO          ACCESS:          0 HIT:          0 MISS:          0
cpu3_ITLB PREFETCH     ACCESS:          0 HIT:          0 MISS:          0
cpu3_ITLB WRITE        ACCESS:          0 HIT:          0 MISS:          0
cpu3_ITLB TRANSLATION  ACCESS:          0 HIT:          0 MISS:          0
cpu3_ITLB PREFETCH REQUESTED:          0 ISSUED:          0 USEFUL:          0 USELESS:          0
cpu3_ITLB AVERAGE MISS LATENCY: 111 cycles
cpu3_ITLB TOTAL        ACCESS:    2860328 HIT:    2856310 MISS:       4018
cpu3_ITLB LOAD         ACCESS:    2860328 HIT:    2856310 MISS:       4018
cpu3_ITLB RFO          ACCESS:          0 HIT:          0 MISS:          0
cpu3_ITLB PREFETCH     ACCESS:          0 HIT:          0 MISS:          0
cpu3_ITLB WRITE        ACCESS:          0 HIT:          0 MISS:          0
cpu3_ITLB TRANSLATION  ACCESS:          0 HIT:          0 MISS:          0
cpu3_ITLB PREFETCH REQUESTED:          0 ISSUED:          0 USEFUL:          0 USELESS:          0
cpu3_ITLB AVERAGE MISS LATENCY: 111 cycles
cpu3_L1D TOTAL        ACCESS:          0 HIT:          0 MISS:          0
cpu3_L1D LOAD         ACCESS:          0 HIT:          0 MISS:          0
cpu3_L1D RFO          ACCESS:          0 HIT:          0 MISS:          0
cpu3_L1D PREFETCH     ACCESS:          0 HIT:          0 MISS:          0
cpu3_L1D WRITE        ACCESS:          0 HIT:          0 MISS:          0
cpu3_L1D TRANSLATION  ACCESS:          0 HIT:          0 MISS:          0
cpu3_L1D PREFETCH REQUESTED:          0 ISSUED:          0 USEFUL:          0 USELESS:          0
cpu3_L1D AVERAGE MISS LATENCY: 644.9 cycles
cpu3_L1D TOTAL        ACCESS:          0 HIT:          0 MISS:          0
cpu3_L1D LOAD         ACCESS:          0 HIT:          0 MISS:          0
cpu3_L1D RFO          ACCESS:          0 HIT:          0 MISS:          0
cpu3_L1D PREFETCH     ACCESS:          0 HIT:          0 MISS:          0
cpu3_L1D WRITE        ACCESS:          0 HIT:          0 MISS:          0
cpu3_L1D TRANSLATION  ACCESS:          0 HIT:          0 MISS:          0
cpu3_L1D PREFETCH REQUESTED:          0 ISSUED:          0 USEFUL:          0 USELESS:          0
cpu3_L1D AVERAGE MISS LATENCY: 644.9 cycles
cpu3_L1D TOTAL        ACCESS:          0 HIT:          0 MISS:          0
cpu3_L1D LOAD         ACCESS:          0 HIT:          0 MISS:          0
cpu3_L1D RFO          ACCESS:          0 HIT:          0 MISS:          0
cpu3_L1D PREFETCH     ACCESS:          0 HIT:          0 MISS:          0
cpu3_L1D WRITE        ACCESS:          0 HIT:          0 MISS:          0
cpu3_L1D TRANSLATION  ACCESS:          0 HIT:          0 MISS:          0
cpu3_L1D PREFETCH REQUESTED:          0 ISSUED:          0 USEFUL:          0 USELESS:          0
cpu3_L1D AVERAGE MISS LATENCY: 644.9 cycles
cpu3_L1D TOTAL        ACCESS:   29105476 HIT:   23855756 MISS:    5249720
cpu3_L1D LOAD         ACCESS:   13809858 HIT:   13130467 MISS:     679391
cpu3_L1D RFO          ACCESS:          0 HIT:          0 MISS:          0
cpu3_L1D PREFETCH     ACCESS:          0 HIT:          0 MISS:          0
cpu3_L1D WRITE        ACCESS:   15276168 HIT:   10710143 MISS:    4566025
cpu3_L1D TRANSLATION  ACCESS:      19450 HIT:      15146 MISS:       4304
cpu3_L1D PREFETCH REQUESTED:          0 ISSUED:          0 USEFUL:          0 USELESS:          0
cpu3_L1D AVERAGE MISS LATENCY: 644.9 cycles
cpu3_L1I TOTAL        ACCESS:          0 HIT:          0 MISS:          0
cpu3_L1I LOAD         ACCESS:          0 HIT:          0 MISS:          0
cpu3_L1I RFO          ACCESS:          0 HIT:          0 MISS:          0
cpu3_L1I PREFETCH     ACCESS:          0 HIT:          0 MISS:          0
cpu3_L1I WRITE        ACCESS:          0 HIT:          0 MISS:          0
cpu3_L1I TRANSLATION  ACCESS:          0 HIT:          0 MISS:          0
cpu3_L1I PREFETCH REQUESTED:          0 ISSUED:          0 USEFUL:          0 USELESS:          0
cpu3_L1I AVERAGE MISS LATENCY: 300.5 cycles
cpu3_L1I TOTAL        ACCESS:          0 HIT:          0 MISS:          0
cpu3_L1I LOAD         ACCESS:          0 HIT:          0 MISS:          0
cpu3_L1I RFO          ACCESS:          0 HIT:          0 MISS:          0
cpu3_L1I PREFETCH     ACCESS:          0 HIT:          0 MISS:          0
cpu3_L1I WRITE        ACCESS:          0 HIT:          0 MISS:          0
cpu3_L1I TRANSLATION  ACCESS:          0 HIT:          0 MISS:          0
cpu3_L1I PREFETCH REQUESTED:          0 ISSUED:          0 USEFUL:          0 USELESS:          0
cpu3_L1I AVERAGE MISS LATENCY: 300.5 cycles
cpu3_L1I TOTAL        ACCESS:          0 HIT:          0 MISS:          0
cpu3_L1I LOAD         ACCESS:          0 HIT:          0 MISS:          0
cpu3_L1I RFO          ACCESS:          0 HIT:          0 MISS:          0
cpu3_L1I PREFETCH     ACCESS:          0 HIT:          0 MISS:          0
cpu3_L1I WRITE        ACCESS:          0 HIT:          0 MISS:          0
cpu3_L1I TRANSLATION  ACCESS:          0 HIT:          0 MISS:          0
cpu3_L1I PREFETCH REQUESTED:          0 ISSUED:          0 USEFUL:          0 USELESS:          0
cpu3_L1I AVERAGE MISS LATENCY: 300.5 cycles
cpu3_L1I TOTAL        ACCESS:    3629109 HIT:    3539251 MISS:      89858
cpu3_L1I LOAD         ACCESS:    3629109 HIT:    3539251 MISS:      89858
cpu3_L1I RFO          ACCESS:          0 HIT:          0 MISS:          0
cpu3_L1I PREFETCH     ACCESS:          0 HIT:          0 MISS:          0
cpu3_L1I WRITE        ACCESS:          0 HIT:          0 MISS:          0
cpu3_L1I TRANSLATION  ACCESS:          0 HIT:          0 MISS:          0
cpu3_L1I PREFETCH REQUESTED:          0 ISSUED:          0 USEFUL:          0 USELESS:          0
cpu3_L1I AVERAGE MISS LATENCY: 300.5 cycles
cpu3_L2C TOTAL        ACCESS:          0 HIT:          0 MISS:          0
cpu3_L2C LOAD         ACCESS:          0 HIT:          0 MISS:          0
cpu3_L2C RFO          ACCESS:          0 HIT:          0 MISS:          0
cpu3_L2C PREFETCH     ACCESS:          0 HIT:          0 MISS:          0
cpu3_L2C WRITE        ACCESS:          0 HIT:          0 MISS:          0
cpu3_L2C TRANSLATION  ACCESS:          0 HIT:          0 MISS:          0
cpu3_L2C PREFETCH REQUESTED:    4343534 ISSUED:    3360760 USEFUL:     108744 USELESS:      44855
cpu3_L2C AVERAGE MISS LATENCY: 3084 cycles
cpu3_L2C TOTAL        ACCESS:          0 HIT:          0 MISS:          0
cpu3_L2C LOAD         ACCESS:          0 HIT:          0 MISS:          0
cpu3_L2C RFO          ACCESS:          0 HIT:          0 MISS:          0
cpu3_L2C PREFETCH     ACCESS:          0 HIT:          0 MISS:          0
cpu3_L2C WRITE        ACCESS:          0 HIT:          0 MISS:          0
cpu3_L2C TRANSLATION  ACCESS:          0 HIT:          0 MISS:          0
cpu3_L2C PREFETCH REQUESTED:    4343534 ISSUED:    3360760 USEFUL:     108744 USELESS:      44855
cpu3_L2C AVERAGE MISS LATENCY: 3084 cycles
cpu3_L2C TOTAL        ACCESS:          0 HIT:          0 MISS:          0
cpu3_L2C LOAD         ACCESS:          0 HIT:          0 MISS:          0
cpu3_L2C RFO          ACCESS:          0 HIT:          0 MISS:          0
cpu3_L2C PREFETCH     ACCESS:          0 HIT:          0 MISS:          0
cpu3_L2C WRITE        ACCESS:          0 HIT:          0 MISS:          0
cpu3_L2C TRANSLATION  ACCESS:          0 HIT:          0 MISS:          0
cpu3_L2C PREFETCH REQUESTED:    4343534 ISSUED:    3360760 USEFUL:     108744 USELESS:      44855
cpu3_L2C AVERAGE MISS LATENCY: 3084 cycles
cpu3_L2C TOTAL        ACCESS:    3274419 HIT:    2112371 MISS:    1162048
cpu3_L2C LOAD         ACCESS:     531959 HIT:     427436 MISS:     104523
cpu3_L2C RFO          ACCESS:    1154916 HIT:     187863 MISS:     967053
cpu3_L2C PREFETCH     ACCESS:     353382 HIT:     266011 MISS:      87371
cpu3_L2C WRITE        ACCESS:    1229895 HIT:    1229844 MISS:         51
cpu3_L2C TRANSLATION  ACCESS:       4267 HIT:       1217 MISS:       3050
cpu3_L2C PREFETCH REQUESTED:    4343534 ISSUED:    3360760 USEFUL:     108744 USELESS:      44855
cpu3_L2C AVERAGE MISS LATENCY: 3084 cycles
cpu3_STLB TOTAL        ACCESS:          0 HIT:          0 MISS:          0
cpu3_STLB LOAD         ACCESS:          0 HIT:          0 MISS:          0
cpu3_STLB RFO          ACCESS:          0 HIT:          0 MISS:          0
cpu3_STLB PREFETCH     ACCESS:          0 HIT:          0 MISS:          0
cpu3_STLB WRITE        ACCESS:          0 HIT:          0 MISS:          0
cpu3_STLB TRANSLATION  ACCESS:          0 HIT:          0 MISS:          0
cpu3_STLB PREFETCH REQUESTED:          0 ISSUED:          0 USEFUL:          0 USELESS:          0
cpu3_STLB AVERAGE MISS LATENCY: 277.1 cycles
cpu3_STLB TOTAL        ACCESS:          0 HIT:          0 MISS:          0
cpu3_STLB LOAD         ACCESS:          0 HIT:          0 MISS:          0
cpu3_STLB RFO          ACCESS:          0 HIT:          0 MISS:          0
cpu3_STLB PREFETCH     ACCESS:          0 HIT:          0 MISS:          0
cpu3_STLB WRITE        ACCESS:          0 HIT:          0 MISS:          0
cpu3_STLB TRANSLATION  ACCESS:          0 HIT:          0 MISS:          0
cpu3_STLB PREFETCH REQUESTED:          0 ISSUED:          0 USEFUL:          0 USELESS:          0
cpu3_STLB AVERAGE MISS LATENCY: 277.1 cycles
cpu3_STLB TOTAL        ACCESS:          0 HIT:          0 MISS:          0
cpu3_STLB LOAD         ACCESS:          0 HIT:          0 MISS:          0
cpu3_STLB RFO          ACCESS:          0 HIT:          0 MISS:          0
cpu3_STLB PREFETCH     ACCESS:          0 HIT:          0 MISS:          0
cpu3_STLB WRITE        ACCESS:          0 HIT:          0 MISS:          0
cpu3_STLB TRANSLATION  ACCESS:          0 HIT:          0 MISS:          0
cpu3_STLB PREFETCH REQUESTED:          0 ISSUED:          0 USEFUL:          0 USELESS:          0
cpu3_STLB AVERAGE MISS LATENCY: 277.1 cycles
cpu3_STLB TOTAL        ACCESS:      95557 HIT:      76479 MISS:      19078
cpu3_STLB LOAD         ACCESS:      95557 HIT:      76479 MISS:      19078
cpu3_STLB RFO          ACCESS:          0 HIT:          0 MISS:          0
cpu3_STLB PREFETCH     ACCESS:          0 HIT:          0 MISS:          0
cpu3_STLB WRITE        ACCESS:          0 HIT:          0 MISS:          0
cpu3_STLB TRANSLATION  ACCESS:          0 HIT:          0 MISS:          0
cpu3_STLB PREFETCH REQUESTED:          0 ISSUED:          0 USEFUL:          0 USELESS:          0
cpu3_STLB AVERAGE MISS LATENCY: 277.1 cycles

DRAM Statistics

Channel 0 RQ ROW_BUFFER_HIT:    4687022
  ROW_BUFFER_MISS:   16658665
 AVG DBUS CONGESTED CYCLE: 3.993
WQ ROW_BUFFER_HIT: Channel 0 
  ROW_BUFFER_MISS:     841179
  FULL:   17877751
BERTI TO_L1: 73661064 TO_L2: 30787160 TO_L2_BC_MSHR: 24506
BERTI AVG_LAT: 1600.18 NUM_TRACK_LATENCY: 14891962 NUM_CANT_TRACK_LATENCY: 972324
BERTI CROSS_PAGE 15012953 NO_CROSS_PAGE: 89435271
BERTI FOUND_BERTI: 21959531 NO_FOUND_BERTI: 3345779
BERTI AVERAGE_ISSUED: 6.07979
BERTI TO_L1: 73661064 TO_L2: 30787160 TO_L2_BC_MSHR: 24506
BERTI AVG_LAT: 1600.18 NUM_TRACK_LATENCY: 14891962 NUM_CANT_TRACK_LATENCY: 972324
BERTI CROSS_PAGE 15012953 NO_CROSS_PAGE: 89435271
BERTI FOUND_BERTI: 21959531 NO_FOUND_BERTI: 3345779
BERTI AVERAGE_ISSUED: 6.07979
BERTI TO_L1: 73661064 TO_L2: 30787160 TO_L2_BC_MSHR: 24506
BERTI AVG_LAT: 1600.18 NUM_TRACK_LATENCY: 14891962 NUM_CANT_TRACK_LATENCY: 972324
BERTI CROSS_PAGE 15012953 NO_CROSS_PAGE: 89435271
BERTI FOUND_BERTI: 21959531 NO_FOUND_BERTI: 3345779
BERTI AVERAGE_ISSUED: 6.07979
BERTI TO_L1: 73661064 TO_L2: 30787160 TO_L2_BC_MSHR: 24506
BERTI AVG_LAT: 1600.18 NUM_TRACK_LATENCY: 14891962 NUM_CANT_TRACK_LATENCY: 972324
BERTI CROSS_PAGE 15012953 NO_CROSS_PAGE: 89435271
BERTI FOUND_BERTI: 21959531 NO_FOUND_BERTI: 3345779
BERTI AVERAGE_ISSUED: 6.07979
