WARNING: physical memory size is smaller than virtual memory size.
WARNING: option --warmup_instructions is deprecated. Use --warmup-instructions instead.
WARNING: option --simulation_instructions is deprecated. Use --simulation-instructions instead.

*** ChampSim Multicore Out-of-Order Simulator ***
Warmup Instructions: 50000000
Simulation Instructions: 150000000
Number of CPUs: 4
Page size: 4096

Berti Prefetcher
BERTI HASH ORIGINAL
BERTI IP MASK ffff
Berti Prefetcher
BERTI HASH ORIGINAL
BERTI IP MASK ffff
Berti Prefetcher
BERTI HASH ORIGINAL
BERTI IP MASK ffff
Berti Prefetcher
BERTI HASH ORIGINAL
BERTI IP MASK ffff
Off-chip DRAM Size: 4 GiB Channels: 1 Width: 64-bit Data Race: 3200 MT/s
Heartbeat CPU 1 instructions: 10000003 cycles: 2500045 heartbeat IPC: 4 cumulative IPC: 4 (Simulation time: 00 hr 03 min 22 sec)
Heartbeat CPU 3 instructions: 10000000 cycles: 2502906 heartbeat IPC: 3.995 cumulative IPC: 3.995 (Simulation time: 00 hr 03 min 22 sec)
Heartbeat CPU 2 instructions: 10000003 cycles: 3064118 heartbeat IPC: 3.264 cumulative IPC: 3.264 (Simulation time: 00 hr 04 min 04 sec)
Heartbeat CPU 0 instructions: 10000002 cycles: 4173609 heartbeat IPC: 2.396 cumulative IPC: 2.396 (Simulation time: 00 hr 05 min 45 sec)
Heartbeat CPU 1 instructions: 20000003 cycles: 5000045 heartbeat IPC: 4 cumulative IPC: 4 (Simulation time: 00 hr 07 min 03 sec)
Heartbeat CPU 3 instructions: 20000001 cycles: 5005630 heartbeat IPC: 3.996 cumulative IPC: 3.996 (Simulation time: 00 hr 07 min 03 sec)
Heartbeat CPU 2 instructions: 20000002 cycles: 5748641 heartbeat IPC: 3.725 cumulative IPC: 3.479 (Simulation time: 00 hr 08 min 03 sec)
Heartbeat CPU 1 instructions: 30000003 cycles: 7500045 heartbeat IPC: 4 cumulative IPC: 4 (Simulation time: 00 hr 10 min 20 sec)
Heartbeat CPU 3 instructions: 30000003 cycles: 7507965 heartbeat IPC: 3.996 cumulative IPC: 3.996 (Simulation time: 00 hr 10 min 20 sec)
Heartbeat CPU 0 instructions: 20000004 cycles: 8343974 heartbeat IPC: 2.398 cumulative IPC: 2.397 (Simulation time: 00 hr 11 min 25 sec)
Heartbeat CPU 2 instructions: 30000000 cycles: 8968329 heartbeat IPC: 3.106 cumulative IPC: 3.345 (Simulation time: 00 hr 12 min 12 sec)
Heartbeat CPU 1 instructions: 40000003 cycles: 10000045 heartbeat IPC: 4 cumulative IPC: 4 (Simulation time: 00 hr 13 min 51 sec)
Heartbeat CPU 3 instructions: 40000002 cycles: 10010596 heartbeat IPC: 3.996 cumulative IPC: 3.996 (Simulation time: 00 hr 13 min 52 sec)
Heartbeat CPU 2 instructions: 40000004 cycles: 12222638 heartbeat IPC: 3.073 cumulative IPC: 3.273 (Simulation time: 00 hr 17 min 09 sec)
Heartbeat CPU 1 instructions: 50000003 cycles: 12500045 heartbeat IPC: 4 cumulative IPC: 4 (Simulation time: 00 hr 17 min 30 sec)
Warmup finished CPU 1 instructions: 50000003 cycles: 12500046 cumulative IPC: 4 (Simulation time: 00 hr 17 min 30 sec)
Heartbeat CPU 3 instructions: 50000003 cycles: 12513280 heartbeat IPC: 3.996 cumulative IPC: 3.996 (Simulation time: 00 hr 17 min 31 sec)
Warmup finished CPU 3 instructions: 50000003 cycles: 12513281 cumulative IPC: 3.996 (Simulation time: 00 hr 17 min 31 sec)
Heartbeat CPU 0 instructions: 30000001 cycles: 12517973 heartbeat IPC: 2.396 cumulative IPC: 2.397 (Simulation time: 00 hr 17 min 31 sec)
Heartbeat CPU 1 instructions: 60000003 cycles: 15000045 heartbeat IPC: 4 cumulative IPC: 4 (Simulation time: 00 hr 21 min 20 sec)
Heartbeat CPU 3 instructions: 60000001 cycles: 15016014 heartbeat IPC: 3.996 cumulative IPC: 3.996 (Simulation time: 00 hr 21 min 22 sec)
Heartbeat CPU 2 instructions: 50000002 cycles: 15376591 heartbeat IPC: 3.171 cumulative IPC: 3.252 (Simulation time: 00 hr 21 min 58 sec)
Warmup finished CPU 2 instructions: 50000002 cycles: 15376592 cumulative IPC: 3.252 (Simulation time: 00 hr 21 min 58 sec)
Heartbeat CPU 0 instructions: 40000000 cycles: 16704010 heartbeat IPC: 2.389 cumulative IPC: 2.395 (Simulation time: 00 hr 24 min 10 sec)
Heartbeat CPU 1 instructions: 70000003 cycles: 17500045 heartbeat IPC: 4 cumulative IPC: 4 (Simulation time: 00 hr 25 min 22 sec)
Heartbeat CPU 3 instructions: 70000000 cycles: 17520815 heartbeat IPC: 3.992 cumulative IPC: 3.995 (Simulation time: 00 hr 25 min 24 sec)
Heartbeat CPU 2 instructions: 60000001 cycles: 18084620 heartbeat IPC: 3.693 cumulative IPC: 3.318 (Simulation time: 00 hr 26 min 19 sec)
Heartbeat CPU 1 instructions: 80000003 cycles: 20000045 heartbeat IPC: 4 cumulative IPC: 4 (Simulation time: 00 hr 29 min 37 sec)
Heartbeat CPU 3 instructions: 80000001 cycles: 20022994 heartbeat IPC: 3.997 cumulative IPC: 3.995 (Simulation time: 00 hr 29 min 39 sec)
Heartbeat CPU 2 instructions: 70000001 cycles: 20811210 heartbeat IPC: 3.668 cumulative IPC: 3.364 (Simulation time: 00 hr 30 min 36 sec)
Heartbeat CPU 0 instructions: 50000003 cycles: 20868704 heartbeat IPC: 2.401 cumulative IPC: 2.396 (Simulation time: 00 hr 30 min 40 sec)
Warmup finished CPU 0 instructions: 50000003 cycles: 20868705 cumulative IPC: 2.396 (Simulation time: 00 hr 30 min 40 sec)
Warmup complete CPU 0 instructions: 50000003 cycles: 20868705 cumulative IPC: 2.396 (Simulation time: 00 hr 30 min 40 sec)
Warmup complete CPU 1 instructions: 83474639 cycles: 20868705 cumulative IPC: 4 (Simulation time: 00 hr 30 min 40 sec)
Warmup complete CPU 2 instructions: 70197950 cycles: 20868705 cumulative IPC: 3.364 (Simulation time: 00 hr 30 min 40 sec)
Warmup complete CPU 3 instructions: 83382841 cycles: 20868705 cumulative IPC: 3.996 (Simulation time: 00 hr 30 min 40 sec)
Heartbeat CPU 3 instructions: 90000002 cycles: 23989253 heartbeat IPC: 2.521 cumulative IPC: 2.121 (Simulation time: 00 hr 32 min 29 sec)
Heartbeat CPU 1 instructions: 90000001 cycles: 26783554 heartbeat IPC: 1.474 cumulative IPC: 1.103 (Simulation time: 00 hr 34 min 24 sec)
Heartbeat CPU 3 instructions: 100000000 cycles: 28725080 heartbeat IPC: 2.112 cumulative IPC: 2.115 (Simulation time: 00 hr 35 min 55 sec)
Heartbeat CPU 2 instructions: 80000001 cycles: 32404756 heartbeat IPC: 0.8625 cumulative IPC: 0.8497 (Simulation time: 00 hr 39 min 09 sec)
Heartbeat CPU 3 instructions: 110000001 cycles: 33436913 heartbeat IPC: 2.122 cumulative IPC: 2.118 (Simulation time: 00 hr 40 min 10 sec)
Heartbeat CPU 1 instructions: 100000002 cycles: 36531098 heartbeat IPC: 1.026 cumulative IPC: 1.055 (Simulation time: 00 hr 42 min 09 sec)
Heartbeat CPU 3 instructions: 120000000 cycles: 38094191 heartbeat IPC: 2.147 cumulative IPC: 2.126 (Simulation time: 00 hr 43 min 07 sec)
Heartbeat CPU 2 instructions: 90000001 cycles: 41097491 heartbeat IPC: 1.15 cumulative IPC: 0.9789 (Simulation time: 00 hr 45 min 11 sec)
Heartbeat CPU 3 instructions: 130000002 cycles: 42765224 heartbeat IPC: 2.141 cumulative IPC: 2.129 (Simulation time: 00 hr 46 min 17 sec)
Heartbeat CPU 1 instructions: 110000003 cycles: 46597983 heartbeat IPC: 0.9934 cumulative IPC: 1.031 (Simulation time: 00 hr 48 min 36 sec)
Heartbeat CPU 3 instructions: 140000000 cycles: 47478504 heartbeat IPC: 2.122 cumulative IPC: 2.128 (Simulation time: 00 hr 49 min 24 sec)
Heartbeat CPU 3 instructions: 150000004 cycles: 52105340 heartbeat IPC: 2.161 cumulative IPC: 2.133 (Simulation time: 00 hr 53 min 05 sec)
Heartbeat CPU 2 instructions: 100000000 cycles: 52468551 heartbeat IPC: 0.8794 cumulative IPC: 0.9431 (Simulation time: 00 hr 53 min 18 sec)
Heartbeat CPU 3 instructions: 160000003 cycles: 56733630 heartbeat IPC: 2.161 cumulative IPC: 2.136 (Simulation time: 00 hr 55 min 58 sec)
Heartbeat CPU 1 instructions: 120000004 cycles: 56927541 heartbeat IPC: 0.9681 cumulative IPC: 1.013 (Simulation time: 00 hr 56 min 05 sec)
Heartbeat CPU 3 instructions: 170000003 cycles: 61350722 heartbeat IPC: 2.166 cumulative IPC: 2.14 (Simulation time: 00 hr 58 min 53 sec)
Heartbeat CPU 2 instructions: 110000004 cycles: 61897981 heartbeat IPC: 1.061 cumulative IPC: 0.9701 (Simulation time: 00 hr 59 min 12 sec)
Heartbeat CPU 3 instructions: 180000004 cycles: 65983620 heartbeat IPC: 2.158 cumulative IPC: 2.142 (Simulation time: 01 hr 01 min 54 sec)
Heartbeat CPU 1 instructions: 130000002 cycles: 67562444 heartbeat IPC: 0.9403 cumulative IPC: 0.9964 (Simulation time: 01 hr 02 min 55 sec)
Heartbeat CPU 3 instructions: 190000002 cycles: 70611834 heartbeat IPC: 2.161 cumulative IPC: 2.143 (Simulation time: 01 hr 04 min 53 sec)
Heartbeat CPU 2 instructions: 120000000 cycles: 71209268 heartbeat IPC: 1.074 cumulative IPC: 0.9893 (Simulation time: 01 hr 05 min 13 sec)
Heartbeat CPU 3 instructions: 200000000 cycles: 75280040 heartbeat IPC: 2.142 cumulative IPC: 2.143 (Simulation time: 01 hr 07 min 46 sec)
Heartbeat CPU 1 instructions: 140000004 cycles: 77912578 heartbeat IPC: 0.9662 cumulative IPC: 0.9909 (Simulation time: 01 hr 09 min 25 sec)
Heartbeat CPU 2 instructions: 130000001 cycles: 79096669 heartbeat IPC: 1.268 cumulative IPC: 1.027 (Simulation time: 01 hr 10 min 09 sec)
Heartbeat CPU 3 instructions: 210000000 cycles: 79878960 heartbeat IPC: 2.174 cumulative IPC: 2.146 (Simulation time: 01 hr 10 min 44 sec)
Heartbeat CPU 3 instructions: 220000000 cycles: 84467068 heartbeat IPC: 2.18 cumulative IPC: 2.148 (Simulation time: 01 hr 14 min 15 sec)
Heartbeat CPU 1 instructions: 150000004 cycles: 87246573 heartbeat IPC: 1.071 cumulative IPC: 1.002 (Simulation time: 01 hr 16 min 09 sec)
Heartbeat CPU 2 instructions: 140000000 cycles: 88135343 heartbeat IPC: 1.106 cumulative IPC: 1.038 (Simulation time: 01 hr 16 min 44 sec)
Heartbeat CPU 3 instructions: 230000001 cycles: 89071456 heartbeat IPC: 2.172 cumulative IPC: 2.15 (Simulation time: 01 hr 17 min 20 sec)
Simulation finished CPU 3 instructions: 150000000 cycles: 69780402 cumulative IPC: 2.15 (Simulation time: 01 hr 18 min 17 sec)
Heartbeat CPU 3 instructions: 240000000 cycles: 93698745 heartbeat IPC: 2.161 cumulative IPC: 2.15 (Simulation time: 01 hr 20 min 03 sec)
Heartbeat CPU 0 instructions: 60000003 cycles: 95703325 heartbeat IPC: 0.1336 cumulative IPC: 0.1336 (Simulation time: 01 hr 21 min 21 sec)
Heartbeat CPU 1 instructions: 160000004 cycles: 97463085 heartbeat IPC: 0.9788 cumulative IPC: 0.9991 (Simulation time: 01 hr 22 min 29 sec)
Heartbeat CPU 3 instructions: 250000002 cycles: 98333235 heartbeat IPC: 2.158 cumulative IPC: 2.151 (Simulation time: 01 hr 23 min 04 sec)
Heartbeat CPU 2 instructions: 150000003 cycles: 100940555 heartbeat IPC: 0.7809 cumulative IPC: 0.9966 (Simulation time: 01 hr 24 min 53 sec)
Heartbeat CPU 3 instructions: 260000000 cycles: 103004509 heartbeat IPC: 2.141 cumulative IPC: 2.15 (Simulation time: 01 hr 26 min 18 sec)
Heartbeat CPU 1 instructions: 170000000 cycles: 107176490 heartbeat IPC: 1.03 cumulative IPC: 1.003 (Simulation time: 01 hr 29 min 35 sec)
Heartbeat CPU 3 instructions: 270000000 cycles: 107638697 heartbeat IPC: 2.158 cumulative IPC: 2.151 (Simulation time: 01 hr 29 min 59 sec)
Heartbeat CPU 3 instructions: 280000001 cycles: 112281908 heartbeat IPC: 2.154 cumulative IPC: 2.151 (Simulation time: 01 hr 33 min 39 sec)
Heartbeat CPU 2 instructions: 160000002 cycles: 112655314 heartbeat IPC: 0.8536 cumulative IPC: 0.9784 (Simulation time: 01 hr 34 min 00 sec)
Heartbeat CPU 1 instructions: 180000002 cycles: 116800205 heartbeat IPC: 1.039 cumulative IPC: 1.006 (Simulation time: 01 hr 37 min 57 sec)
Heartbeat CPU 3 instructions: 290000004 cycles: 116927926 heartbeat IPC: 2.152 cumulative IPC: 2.151 (Simulation time: 01 hr 38 min 05 sec)
Heartbeat CPU 2 instructions: 170000004 cycles: 121313824 heartbeat IPC: 1.155 cumulative IPC: 0.9936 (Simulation time: 01 hr 41 min 47 sec)
Heartbeat CPU 3 instructions: 300000000 cycles: 121563951 heartbeat IPC: 2.157 cumulative IPC: 2.151 (Simulation time: 01 hr 41 min 57 sec)
Heartbeat CPU 3 instructions: 310000001 cycles: 126202769 heartbeat IPC: 2.156 cumulative IPC: 2.151 (Simulation time: 01 hr 44 min 57 sec)
Heartbeat CPU 1 instructions: 190000001 cycles: 126903394 heartbeat IPC: 0.9898 cumulative IPC: 1.005 (Simulation time: 01 hr 45 min 22 sec)
Heartbeat CPU 2 instructions: 180000002 cycles: 130332479 heartbeat IPC: 1.109 cumulative IPC: 1.003 (Simulation time: 01 hr 47 min 27 sec)
Heartbeat CPU 3 instructions: 320000001 cycles: 130834297 heartbeat IPC: 2.159 cumulative IPC: 2.152 (Simulation time: 01 hr 47 min 45 sec)
Heartbeat CPU 3 instructions: 330000001 cycles: 135457335 heartbeat IPC: 2.163 cumulative IPC: 2.152 (Simulation time: 01 hr 50 min 28 sec)
Heartbeat CPU 1 instructions: 200000000 cycles: 138994379 heartbeat IPC: 0.8271 cumulative IPC: 0.9865 (Simulation time: 01 hr 52 min 19 sec)
Heartbeat CPU 2 instructions: 190000001 cycles: 140326296 heartbeat IPC: 1.001 cumulative IPC: 1.003 (Simulation time: 01 hr 53 min 10 sec)
Heartbeat CPU 3 instructions: 340000000 cycles: 143100700 heartbeat IPC: 1.308 cumulative IPC: 2.099 (Simulation time: 01 hr 54 min 45 sec)
Heartbeat CPU 3 instructions: 350000002 cycles: 148744778 heartbeat IPC: 1.772 cumulative IPC: 2.085 (Simulation time: 01 hr 58 min 45 sec)
Heartbeat CPU 2 instructions: 200000002 cycles: 148867147 heartbeat IPC: 1.171 cumulative IPC: 1.014 (Simulation time: 01 hr 58 min 50 sec)
Heartbeat CPU 1 instructions: 210000003 cycles: 150273000 heartbeat IPC: 0.8866 cumulative IPC: 0.9778 (Simulation time: 01 hr 59 min 47 sec)
Heartbeat CPU 3 instructions: 360000003 cycles: 154121172 heartbeat IPC: 1.86 cumulative IPC: 2.076 (Simulation time: 02 hr 02 min 25 sec)
Heartbeat CPU 2 instructions: 210000001 cycles: 156527560 heartbeat IPC: 1.305 cumulative IPC: 1.031 (Simulation time: 02 hr 04 min 00 sec)
Heartbeat CPU 3 instructions: 370000000 cycles: 159425414 heartbeat IPC: 1.885 cumulative IPC: 2.069 (Simulation time: 02 hr 05 min 46 sec)
Heartbeat CPU 1 instructions: 220000004 cycles: 160348001 heartbeat IPC: 0.9926 cumulative IPC: 0.9788 (Simulation time: 02 hr 06 min 20 sec)
Heartbeat CPU 3 instructions: 380000002 cycles: 164721748 heartbeat IPC: 1.888 cumulative IPC: 2.062 (Simulation time: 02 hr 08 min 52 sec)
Heartbeat CPU 2 instructions: 220000000 cycles: 173701971 heartbeat IPC: 0.5823 cumulative IPC: 0.9802 (Simulation time: 02 hr 14 min 15 sec)
Simulation finished CPU 2 instructions: 150000000 cycles: 153279548 cumulative IPC: 0.9786 (Simulation time: 02 hr 14 min 32 sec)
Heartbeat CPU 1 instructions: 230000000 cycles: 183852756 heartbeat IPC: 0.4254 cumulative IPC: 0.899 (Simulation time: 02 hr 19 min 24 sec)
Heartbeat CPU 3 instructions: 390000001 cycles: 187778255 heartbeat IPC: 0.4337 cumulative IPC: 1.837 (Simulation time: 02 hr 21 min 35 sec)
Heartbeat CPU 0 instructions: 70000002 cycles: 188870226 heartbeat IPC: 0.1073 cumulative IPC: 0.119 (Simulation time: 02 hr 22 min 15 sec)
Simulation finished CPU 1 instructions: 150000003 cycles: 169297624 cumulative IPC: 0.886 (Simulation time: 02 hr 23 min 04 sec)
Heartbeat CPU 2 instructions: 230000000 cycles: 191051664 heartbeat IPC: 0.5764 cumulative IPC: 0.939 (Simulation time: 02 hr 23 min 37 sec)
Heartbeat CPU 3 instructions: 400000003 cycles: 193295887 heartbeat IPC: 1.812 cumulative IPC: 1.836 (Simulation time: 02 hr 25 min 04 sec)
Heartbeat CPU 3 instructions: 410000003 cycles: 199183248 heartbeat IPC: 1.699 cumulative IPC: 1.832 (Simulation time: 02 hr 28 min 50 sec)
Heartbeat CPU 1 instructions: 240000002 cycles: 199927409 heartbeat IPC: 0.6221 cumulative IPC: 0.8742 (Simulation time: 02 hr 29 min 16 sec)
Heartbeat CPU 2 instructions: 240000001 cycles: 201306494 heartbeat IPC: 0.9752 cumulative IPC: 0.9411 (Simulation time: 02 hr 30 min 09 sec)
Heartbeat CPU 3 instructions: 420000001 cycles: 205236784 heartbeat IPC: 1.652 cumulative IPC: 1.826 (Simulation time: 02 hr 32 min 36 sec)
Heartbeat CPU 3 instructions: 430000004 cycles: 211076892 heartbeat IPC: 1.712 cumulative IPC: 1.822 (Simulation time: 02 hr 35 min 55 sec)
Heartbeat CPU 2 instructions: 250000001 cycles: 211468586 heartbeat IPC: 0.984 cumulative IPC: 0.9433 (Simulation time: 02 hr 36 min 07 sec)
Heartbeat CPU 1 instructions: 250000000 cycles: 214363838 heartbeat IPC: 0.6927 cumulative IPC: 0.8606 (Simulation time: 02 hr 37 min 44 sec)
Heartbeat CPU 3 instructions: 440000003 cycles: 216826414 heartbeat IPC: 1.739 cumulative IPC: 1.82 (Simulation time: 02 hr 39 min 32 sec)
Heartbeat CPU 2 instructions: 260000000 cycles: 221227566 heartbeat IPC: 1.025 cumulative IPC: 0.9473 (Simulation time: 02 hr 42 min 42 sec)
Heartbeat CPU 3 instructions: 450000000 cycles: 222826305 heartbeat IPC: 1.667 cumulative IPC: 1.815 (Simulation time: 02 hr 43 min 45 sec)
Heartbeat CPU 1 instructions: 260000001 cycles: 227411372 heartbeat IPC: 0.7664 cumulative IPC: 0.8547 (Simulation time: 02 hr 47 min 20 sec)
Heartbeat CPU 3 instructions: 460000004 cycles: 228255962 heartbeat IPC: 1.842 cumulative IPC: 1.816 (Simulation time: 02 hr 48 min 00 sec)
Heartbeat CPU 2 instructions: 270000000 cycles: 229707086 heartbeat IPC: 1.179 cumulative IPC: 0.9567 (Simulation time: 02 hr 49 min 09 sec)
Heartbeat CPU 3 instructions: 470000003 cycles: 233472233 heartbeat IPC: 1.917 cumulative IPC: 1.818 (Simulation time: 02 hr 51 min 45 sec)
Heartbeat CPU 2 instructions: 280000000 cycles: 237415697 heartbeat IPC: 1.297 cumulative IPC: 0.9689 (Simulation time: 02 hr 54 min 13 sec)
Heartbeat CPU 1 instructions: 270000003 cycles: 237703628 heartbeat IPC: 0.9716 cumulative IPC: 0.8602 (Simulation time: 02 hr 54 min 26 sec)
Heartbeat CPU 3 instructions: 480000000 cycles: 238812250 heartbeat IPC: 1.873 cumulative IPC: 1.82 (Simulation time: 02 hr 55 min 09 sec)
Heartbeat CPU 2 instructions: 290000003 cycles: 247260697 heartbeat IPC: 1.016 cumulative IPC: 0.9709 (Simulation time: 03 hr 00 min 18 sec)
Heartbeat CPU 3 instructions: 490000002 cycles: 247972987 heartbeat IPC: 1.092 cumulative IPC: 1.79 (Simulation time: 03 hr 00 min 50 sec)
Heartbeat CPU 1 instructions: 280000000 cycles: 248819746 heartbeat IPC: 0.8996 cumulative IPC: 0.8621 (Simulation time: 03 hr 01 min 26 sec)
Heartbeat CPU 3 instructions: 500000000 cycles: 255390623 heartbeat IPC: 1.348 cumulative IPC: 1.776 (Simulation time: 03 hr 05 min 19 sec)
Heartbeat CPU 1 instructions: 290000004 cycles: 261250148 heartbeat IPC: 0.8045 cumulative IPC: 0.8592 (Simulation time: 03 hr 08 min 30 sec)
Heartbeat CPU 3 instructions: 510000002 cycles: 262551576 heartbeat IPC: 1.396 cumulative IPC: 1.765 (Simulation time: 03 hr 09 min 13 sec)
Heartbeat CPU 2 instructions: 300000004 cycles: 264159808 heartbeat IPC: 0.5917 cumulative IPC: 0.9446 (Simulation time: 03 hr 10 min 08 sec)
Heartbeat CPU 3 instructions: 520000000 cycles: 269948024 heartbeat IPC: 1.352 cumulative IPC: 1.753 (Simulation time: 03 hr 13 min 23 sec)
Heartbeat CPU 1 instructions: 300000000 cycles: 273810481 heartbeat IPC: 0.7962 cumulative IPC: 0.856 (Simulation time: 03 hr 15 min 35 sec)
Heartbeat CPU 2 instructions: 310000001 cycles: 276090307 heartbeat IPC: 0.8382 cumulative IPC: 0.9396 (Simulation time: 03 hr 16 min 51 sec)
Heartbeat CPU 3 instructions: 530000003 cycles: 277177814 heartbeat IPC: 1.383 cumulative IPC: 1.742 (Simulation time: 03 hr 17 min 34 sec)
Heartbeat CPU 0 instructions: 80000002 cycles: 283655869 heartbeat IPC: 0.1055 cumulative IPC: 0.1142 (Simulation time: 03 hr 21 min 14 sec)
Heartbeat CPU 3 instructions: 540000000 cycles: 284345341 heartbeat IPC: 1.395 cumulative IPC: 1.733 (Simulation time: 03 hr 21 min 34 sec)
Heartbeat CPU 1 instructions: 310000002 cycles: 286477421 heartbeat IPC: 0.7895 cumulative IPC: 0.8529 (Simulation time: 03 hr 22 min 39 sec)
Heartbeat CPU 2 instructions: 320000001 cycles: 290578990 heartbeat IPC: 0.6902 cumulative IPC: 0.9262 (Simulation time: 03 hr 24 min 50 sec)
Heartbeat CPU 3 instructions: 550000002 cycles: 292133804 heartbeat IPC: 1.284 cumulative IPC: 1.72 (Simulation time: 03 hr 25 min 40 sec)
Heartbeat CPU 3 instructions: 560000002 cycles: 299690202 heartbeat IPC: 1.323 cumulative IPC: 1.709 (Simulation time: 03 hr 29 min 55 sec)
Heartbeat CPU 1 instructions: 320000002 cycles: 301225678 heartbeat IPC: 0.678 cumulative IPC: 0.8437 (Simulation time: 03 hr 30 min 46 sec)
Heartbeat CPU 2 instructions: 330000000 cycles: 303599097 heartbeat IPC: 0.768 cumulative IPC: 0.9189 (Simulation time: 03 hr 32 min 08 sec)
Heartbeat CPU 3 instructions: 570000004 cycles: 307447271 heartbeat IPC: 1.289 cumulative IPC: 1.698 (Simulation time: 03 hr 34 min 21 sec)
Heartbeat CPU 3 instructions: 580000000 cycles: 315047712 heartbeat IPC: 1.316 cumulative IPC: 1.688 (Simulation time: 03 hr 38 min 42 sec)
Heartbeat CPU 2 instructions: 340000000 cycles: 315690274 heartbeat IPC: 0.827 cumulative IPC: 0.9151 (Simulation time: 03 hr 39 min 03 sec)
Heartbeat CPU 1 instructions: 330000001 cycles: 317105639 heartbeat IPC: 0.6297 cumulative IPC: 0.8322 (Simulation time: 03 hr 39 min 52 sec)
Heartbeat CPU 3 instructions: 590000001 cycles: 322647575 heartbeat IPC: 1.316 cumulative IPC: 1.679 (Simulation time: 03 hr 43 min 14 sec)
Heartbeat CPU 2 instructions: 350000003 cycles: 326720640 heartbeat IPC: 0.9066 cumulative IPC: 0.9148 (Simulation time: 03 hr 45 min 50 sec)
Heartbeat CPU 3 instructions: 600000000 cycles: 329746819 heartbeat IPC: 1.409 cumulative IPC: 1.673 (Simulation time: 03 hr 47 min 32 sec)
Heartbeat CPU 1 instructions: 340000001 cycles: 332139006 heartbeat IPC: 0.6652 cumulative IPC: 0.8241 (Simulation time: 03 hr 48 min 52 sec)
Heartbeat CPU 3 instructions: 610000000 cycles: 337179236 heartbeat IPC: 1.345 cumulative IPC: 1.665 (Simulation time: 03 hr 51 min 35 sec)
Heartbeat CPU 2 instructions: 360000001 cycles: 337503655 heartbeat IPC: 0.9274 cumulative IPC: 0.9153 (Simulation time: 03 hr 51 min 46 sec)
Heartbeat CPU 2 instructions: 370000000 cycles: 350043248 heartbeat IPC: 0.7975 cumulative IPC: 0.9108 (Simulation time: 03 hr 58 min 02 sec)
Heartbeat CPU 1 instructions: 350000000 cycles: 352357213 heartbeat IPC: 0.4946 cumulative IPC: 0.804 (Simulation time: 03 hr 59 min 21 sec)
Heartbeat CPU 2 instructions: 380000003 cycles: 360135505 heartbeat IPC: 0.9909 cumulative IPC: 0.9132 (Simulation time: 04 hr 03 min 49 sec)
Heartbeat CPU 3 instructions: 620000003 cycles: 366958745 heartbeat IPC: 0.3358 cumulative IPC: 1.551 (Simulation time: 04 hr 07 min 37 sec)
Heartbeat CPU 2 instructions: 390000000 cycles: 369251137 heartbeat IPC: 1.097 cumulative IPC: 0.918 (Simulation time: 04 hr 08 min 51 sec)
Heartbeat CPU 1 instructions: 360000002 cycles: 374334939 heartbeat IPC: 0.455 cumulative IPC: 0.7823 (Simulation time: 04 hr 11 min 24 sec)
Heartbeat CPU 2 instructions: 400000000 cycles: 379884845 heartbeat IPC: 0.9404 cumulative IPC: 0.9186 (Simulation time: 04 hr 14 min 20 sec)
Heartbeat CPU 3 instructions: 630000003 cycles: 387415235 heartbeat IPC: 0.4888 cumulative IPC: 1.491 (Simulation time: 04 hr 18 min 21 sec)
Heartbeat CPU 2 instructions: 410000001 cycles: 391540895 heartbeat IPC: 0.8579 cumulative IPC: 0.9167 (Simulation time: 04 hr 20 min 34 sec)
Heartbeat CPU 1 instructions: 370000004 cycles: 394188979 heartbeat IPC: 0.5037 cumulative IPC: 0.7675 (Simulation time: 04 hr 22 min 18 sec)
Heartbeat CPU 3 instructions: 640000004 cycles: 404279339 heartbeat IPC: 0.593 cumulative IPC: 1.452 (Simulation time: 04 hr 27 min 55 sec)
Heartbeat CPU 1 instructions: 380000000 cycles: 411107562 heartbeat IPC: 0.5911 cumulative IPC: 0.7599 (Simulation time: 04 hr 31 min 12 sec)
Heartbeat CPU 2 instructions: 420000002 cycles: 412124492 heartbeat IPC: 0.4858 cumulative IPC: 0.894 (Simulation time: 04 hr 31 min 42 sec)
Heartbeat CPU 0 instructions: 90000001 cycles: 413143075 heartbeat IPC: 0.07723 cumulative IPC: 0.102 (Simulation time: 04 hr 32 min 11 sec)
Heartbeat CPU 3 instructions: 650000000 cycles: 425295090 heartbeat IPC: 0.4758 cumulative IPC: 1.401 (Simulation time: 04 hr 38 min 24 sec)
Heartbeat CPU 2 instructions: 430000002 cycles: 426697260 heartbeat IPC: 0.6862 cumulative IPC: 0.8866 (Simulation time: 04 hr 39 min 08 sec)
Heartbeat CPU 1 instructions: 390000003 cycles: 429267417 heartbeat IPC: 0.5507 cumulative IPC: 0.7506 (Simulation time: 04 hr 40 min 27 sec)
Heartbeat CPU 3 instructions: 660000001 cycles: 434064410 heartbeat IPC: 1.14 cumulative IPC: 1.396 (Simulation time: 04 hr 42 min 55 sec)
Heartbeat CPU 2 instructions: 440000001 cycles: 438768482 heartbeat IPC: 0.8284 cumulative IPC: 0.8849 (Simulation time: 04 hr 45 min 15 sec)
Heartbeat CPU 3 instructions: 670000002 cycles: 448974739 heartbeat IPC: 0.6707 cumulative IPC: 1.37 (Simulation time: 04 hr 50 min 12 sec)
Heartbeat CPU 1 instructions: 400000003 cycles: 451638329 heartbeat IPC: 0.447 cumulative IPC: 0.7348 (Simulation time: 04 hr 51 min 22 sec)
Heartbeat CPU 2 instructions: 450000001 cycles: 454269413 heartbeat IPC: 0.6451 cumulative IPC: 0.8763 (Simulation time: 04 hr 52 min 30 sec)
Heartbeat CPU 2 instructions: 460000002 cycles: 465512872 heartbeat IPC: 0.8894 cumulative IPC: 0.8767 (Simulation time: 04 hr 57 min 52 sec)
Heartbeat CPU 1 instructions: 410000001 cycles: 474976558 heartbeat IPC: 0.4285 cumulative IPC: 0.719 (Simulation time: 05 hr 02 min 16 sec)
Heartbeat CPU 2 instructions: 470000003 cycles: 492317242 heartbeat IPC: 0.3731 cumulative IPC: 0.848 (Simulation time: 05 hr 09 min 20 sec)
Heartbeat CPU 3 instructions: 680000004 cycles: 494193561 heartbeat IPC: 0.2211 cumulative IPC: 1.26 (Simulation time: 05 hr 10 min 14 sec)
Heartbeat CPU 1 instructions: 420000002 cycles: 497960453 heartbeat IPC: 0.4351 cumulative IPC: 0.7054 (Simulation time: 05 hr 12 min 05 sec)
Heartbeat CPU 3 instructions: 690000001 cycles: 501550302 heartbeat IPC: 1.359 cumulative IPC: 1.262 (Simulation time: 05 hr 13 min 58 sec)
Heartbeat CPU 2 instructions: 480000000 cycles: 503901379 heartbeat IPC: 0.8632 cumulative IPC: 0.8484 (Simulation time: 05 hr 15 min 06 sec)
Heartbeat CPU 3 instructions: 700000003 cycles: 510530720 heartbeat IPC: 1.114 cumulative IPC: 1.259 (Simulation time: 05 hr 18 min 27 sec)
Heartbeat CPU 1 instructions: 430000001 cycles: 512897511 heartbeat IPC: 0.6695 cumulative IPC: 0.7043 (Simulation time: 05 hr 19 min 38 sec)
Heartbeat CPU 2 instructions: 490000002 cycles: 514289414 heartbeat IPC: 0.9626 cumulative IPC: 0.8508 (Simulation time: 05 hr 20 min 26 sec)
Heartbeat CPU 3 instructions: 710000000 cycles: 519308779 heartbeat IPC: 1.139 cumulative IPC: 1.257 (Simulation time: 05 hr 23 min 00 sec)
Heartbeat CPU 1 instructions: 440000001 cycles: 525891603 heartbeat IPC: 0.7696 cumulative IPC: 0.706 (Simulation time: 05 hr 26 min 14 sec)
Heartbeat CPU 3 instructions: 720000003 cycles: 526927027 heartbeat IPC: 1.313 cumulative IPC: 1.258 (Simulation time: 05 hr 26 min 42 sec)
Heartbeat CPU 2 instructions: 500000000 cycles: 531163155 heartbeat IPC: 0.5926 cumulative IPC: 0.8423 (Simulation time: 05 hr 28 min 42 sec)
Heartbeat CPU 3 instructions: 730000001 cycles: 536317204 heartbeat IPC: 1.065 cumulative IPC: 1.254 (Simulation time: 05 hr 31 min 12 sec)
Heartbeat CPU 1 instructions: 450000000 cycles: 540294969 heartbeat IPC: 0.6943 cumulative IPC: 0.7056 (Simulation time: 05 hr 33 min 11 sec)
Heartbeat CPU 2 instructions: 510000001 cycles: 545946846 heartbeat IPC: 0.6764 cumulative IPC: 0.8376 (Simulation time: 05 hr 35 min 49 sec)
Heartbeat CPU 3 instructions: 740000004 cycles: 551912657 heartbeat IPC: 0.6412 cumulative IPC: 1.236 (Simulation time: 05 hr 38 min 32 sec)
Heartbeat CPU 0 instructions: 100000000 cycles: 557108293 heartbeat IPC: 0.06946 cumulative IPC: 0.09324 (Simulation time: 05 hr 41 min 06 sec)
Heartbeat CPU 1 instructions: 460000004 cycles: 558125414 heartbeat IPC: 0.5608 cumulative IPC: 0.7008 (Simulation time: 05 hr 41 min 37 sec)
Heartbeat CPU 2 instructions: 520000000 cycles: 558951668 heartbeat IPC: 0.7689 cumulative IPC: 0.8359 (Simulation time: 05 hr 41 min 59 sec)
Heartbeat CPU 2 instructions: 530000001 cycles: 573189569 heartbeat IPC: 0.7024 cumulative IPC: 0.8325 (Simulation time: 05 hr 48 min 26 sec)
Heartbeat CPU 3 instructions: 750000003 cycles: 575002751 heartbeat IPC: 0.4331 cumulative IPC: 1.203 (Simulation time: 05 hr 49 min 17 sec)
Heartbeat CPU 1 instructions: 470000002 cycles: 581017375 heartbeat IPC: 0.4368 cumulative IPC: 0.69 (Simulation time: 05 hr 52 min 03 sec)
Heartbeat CPU 2 instructions: 540000000 cycles: 585657952 heartbeat IPC: 0.802 cumulative IPC: 0.8318 (Simulation time: 05 hr 54 min 20 sec)
Heartbeat CPU 3 instructions: 760000004 cycles: 588799157 heartbeat IPC: 0.7248 cumulative IPC: 1.191 (Simulation time: 05 hr 55 min 49 sec)
Heartbeat CPU 2 instructions: 550000004 cycles: 598047497 heartbeat IPC: 0.8071 cumulative IPC: 0.8313 (Simulation time: 06 hr 00 min 12 sec)
Heartbeat CPU 1 instructions: 480000001 cycles: 602649509 heartbeat IPC: 0.4623 cumulative IPC: 0.6816 (Simulation time: 06 hr 02 min 20 sec)
Heartbeat CPU 2 instructions: 560000001 cycles: 610996206 heartbeat IPC: 0.7723 cumulative IPC: 0.83 (Simulation time: 06 hr 06 min 33 sec)
Heartbeat CPU 3 instructions: 770000000 cycles: 612726698 heartbeat IPC: 0.4179 cumulative IPC: 1.16 (Simulation time: 06 hr 07 min 27 sec)
Heartbeat CPU 2 instructions: 570000004 cycles: 619711296 heartbeat IPC: 1.147 cumulative IPC: 0.8346 (Simulation time: 06 hr 11 min 00 sec)
Heartbeat CPU 1 instructions: 490000001 cycles: 622337876 heartbeat IPC: 0.5079 cumulative IPC: 0.6759 (Simulation time: 06 hr 12 min 24 sec)
Heartbeat CPU 3 instructions: 780000004 cycles: 625339887 heartbeat IPC: 0.7928 cumulative IPC: 1.152 (Simulation time: 06 hr 14 min 05 sec)
Heartbeat CPU 2 instructions: 580000000 cycles: 627034274 heartbeat IPC: 1.366 cumulative IPC: 0.841 (Simulation time: 06 hr 15 min 01 sec)
Heartbeat CPU 2 instructions: 590000001 cycles: 635562033 heartbeat IPC: 1.173 cumulative IPC: 0.8456 (Simulation time: 06 hr 19 min 34 sec)
Heartbeat CPU 3 instructions: 790000000 cycles: 636309326 heartbeat IPC: 0.9116 cumulative IPC: 1.148 (Simulation time: 06 hr 19 min 57 sec)
Heartbeat CPU 1 instructions: 500000001 cycles: 637984949 heartbeat IPC: 0.6391 cumulative IPC: 0.675 (Simulation time: 06 hr 20 min 48 sec)
Heartbeat CPU 2 instructions: 600000000 cycles: 644843991 heartbeat IPC: 1.077 cumulative IPC: 0.8491 (Simulation time: 06 hr 24 min 10 sec)
Heartbeat CPU 3 instructions: 800000000 cycles: 653953664 heartbeat IPC: 0.5668 cumulative IPC: 1.132 (Simulation time: 06 hr 29 min 06 sec)
Heartbeat CPU 1 instructions: 510000000 cycles: 655716820 heartbeat IPC: 0.564 cumulative IPC: 0.6719 (Simulation time: 06 hr 29 min 57 sec)
Heartbeat CPU 2 instructions: 610000000 cycles: 657465406 heartbeat IPC: 0.7923 cumulative IPC: 0.8479 (Simulation time: 06 hr 30 min 45 sec)
Heartbeat CPU 3 instructions: 810000001 cycles: 670017356 heartbeat IPC: 0.6225 cumulative IPC: 1.119 (Simulation time: 06 hr 36 min 49 sec)
Heartbeat CPU 1 instructions: 520000003 cycles: 681835805 heartbeat IPC: 0.3829 cumulative IPC: 0.6604 (Simulation time: 06 hr 41 min 44 sec)
Heartbeat CPU 2 instructions: 620000000 cycles: 683450551 heartbeat IPC: 0.3848 cumulative IPC: 0.8298 (Simulation time: 06 hr 42 min 25 sec)
Heartbeat CPU 2 instructions: 630000002 cycles: 707009166 heartbeat IPC: 0.4245 cumulative IPC: 0.8159 (Simulation time: 06 hr 52 min 32 sec)
Heartbeat CPU 1 instructions: 530000004 cycles: 713038459 heartbeat IPC: 0.3205 cumulative IPC: 0.6451 (Simulation time: 06 hr 55 min 13 sec)
Heartbeat CPU 0 instructions: 110000004 cycles: 724042194 heartbeat IPC: 0.0599 cumulative IPC: 0.08533 (Simulation time: 06 hr 59 min 51 sec)
Heartbeat CPU 3 instructions: 820000000 cycles: 725261382 heartbeat IPC: 0.181 cumulative IPC: 1.046 (Simulation time: 07 hr 00 min 26 sec)
Heartbeat CPU 2 instructions: 640000002 cycles: 729639679 heartbeat IPC: 0.4419 cumulative IPC: 0.8039 (Simulation time: 07 hr 02 min 28 sec)
Heartbeat CPU 1 instructions: 540000002 cycles: 737886212 heartbeat IPC: 0.4025 cumulative IPC: 0.6367 (Simulation time: 07 hr 06 min 09 sec)
Heartbeat CPU 2 instructions: 650000000 cycles: 745046796 heartbeat IPC: 0.6491 cumulative IPC: 0.8006 (Simulation time: 07 hr 09 min 25 sec)
Heartbeat CPU 3 instructions: 830000004 cycles: 757589379 heartbeat IPC: 0.3093 cumulative IPC: 1.013 (Simulation time: 07 hr 15 min 19 sec)
Heartbeat CPU 2 instructions: 660000004 cycles: 757862435 heartbeat IPC: 0.7803 cumulative IPC: 0.8003 (Simulation time: 07 hr 15 min 27 sec)
Heartbeat CPU 1 instructions: 550000002 cycles: 759734124 heartbeat IPC: 0.4577 cumulative IPC: 0.6314 (Simulation time: 07 hr 16 min 25 sec)
Heartbeat CPU 2 instructions: 670000004 cycles: 770264169 heartbeat IPC: 0.8063 cumulative IPC: 0.8004 (Simulation time: 07 hr 21 min 48 sec)
Heartbeat CPU 1 instructions: 560000004 cycles: 779012947 heartbeat IPC: 0.5187 cumulative IPC: 0.6285 (Simulation time: 07 hr 26 min 00 sec)
Heartbeat CPU 2 instructions: 680000004 cycles: 784429757 heartbeat IPC: 0.7059 cumulative IPC: 0.7986 (Simulation time: 07 hr 28 min 35 sec)
Heartbeat CPU 3 instructions: 840000004 cycles: 789144654 heartbeat IPC: 0.3169 cumulative IPC: 0.9848 (Simulation time: 07 hr 31 min 00 sec)
Heartbeat CPU 2 instructions: 690000000 cycles: 793421026 heartbeat IPC: 1.112 cumulative IPC: 0.8023 (Simulation time: 07 hr 33 min 12 sec)
Heartbeat CPU 1 instructions: 570000004 cycles: 798215043 heartbeat IPC: 0.5208 cumulative IPC: 0.6259 (Simulation time: 07 hr 35 min 40 sec)
Heartbeat CPU 2 instructions: 700000000 cycles: 803732151 heartbeat IPC: 0.9698 cumulative IPC: 0.8045 (Simulation time: 07 hr 38 min 23 sec)
Heartbeat CPU 2 instructions: 710000002 cycles: 816600889 heartbeat IPC: 0.7771 cumulative IPC: 0.804 (Simulation time: 07 hr 44 min 32 sec)
Heartbeat CPU 1 instructions: 580000002 cycles: 818536353 heartbeat IPC: 0.4921 cumulative IPC: 0.6225 (Simulation time: 07 hr 45 min 27 sec)
Heartbeat CPU 3 instructions: 850000004 cycles: 826355381 heartbeat IPC: 0.2687 cumulative IPC: 0.9517 (Simulation time: 07 hr 49 min 01 sec)
Heartbeat CPU 2 instructions: 720000004 cycles: 840820614 heartbeat IPC: 0.4129 cumulative IPC: 0.7925 (Simulation time: 07 hr 55 min 41 sec)
Heartbeat CPU 1 instructions: 590000004 cycles: 844606910 heartbeat IPC: 0.3836 cumulative IPC: 0.6149 (Simulation time: 07 hr 57 min 25 sec)
Heartbeat CPU 3 instructions: 860000004 cycles: 851244455 heartbeat IPC: 0.4018 cumulative IPC: 0.9353 (Simulation time: 08 hr 00 min 55 sec)
Heartbeat CPU 2 instructions: 730000000 cycles: 858250419 heartbeat IPC: 0.5737 cumulative IPC: 0.7879 (Simulation time: 08 hr 04 min 42 sec)
Heartbeat CPU 1 instructions: 600000003 cycles: 859107291 heartbeat IPC: 0.6896 cumulative IPC: 0.6162 (Simulation time: 08 hr 05 min 10 sec)
Heartbeat CPU 3 instructions: 870000004 cycles: 859408274 heartbeat IPC: 1.225 cumulative IPC: 0.9381 (Simulation time: 08 hr 05 min 20 sec)
Heartbeat CPU 2 instructions: 740000000 cycles: 872879055 heartbeat IPC: 0.6836 cumulative IPC: 0.7861 (Simulation time: 08 hr 12 min 06 sec)
Heartbeat CPU 3 instructions: 880000003 cycles: 873485121 heartbeat IPC: 0.7104 cumulative IPC: 0.9343 (Simulation time: 08 hr 12 min 26 sec)
Heartbeat CPU 1 instructions: 610000000 cycles: 876670395 heartbeat IPC: 0.5694 cumulative IPC: 0.6152 (Simulation time: 08 hr 14 min 10 sec)
Heartbeat CPU 0 instructions: 120000004 cycles: 879838404 heartbeat IPC: 0.06419 cumulative IPC: 0.08149 (Simulation time: 08 hr 15 min 51 sec)
Heartbeat CPU 3 instructions: 890000000 cycles: 880562447 heartbeat IPC: 1.413 cumulative IPC: 0.9383 (Simulation time: 08 hr 16 min 16 sec)
Heartbeat CPU 2 instructions: 750000002 cycles: 889246798 heartbeat IPC: 0.611 cumulative IPC: 0.7828 (Simulation time: 08 hr 20 min 47 sec)
Heartbeat CPU 1 instructions: 620000003 cycles: 892584959 heartbeat IPC: 0.6284 cumulative IPC: 0.6155 (Simulation time: 08 hr 22 min 17 sec)
Heartbeat CPU 3 instructions: 900000003 cycles: 894538039 heartbeat IPC: 0.7155 cumulative IPC: 0.9347 (Simulation time: 08 hr 23 min 12 sec)
Heartbeat CPU 3 instructions: 910000002 cycles: 900651518 heartbeat IPC: 1.636 cumulative IPC: 0.9396 (Simulation time: 08 hr 26 min 46 sec)
Heartbeat CPU 2 instructions: 760000000 cycles: 905240705 heartbeat IPC: 0.6252 cumulative IPC: 0.78 (Simulation time: 08 hr 29 min 14 sec)
Heartbeat CPU 1 instructions: 630000000 cycles: 907837011 heartbeat IPC: 0.6556 cumulative IPC: 0.6162 (Simulation time: 08 hr 30 min 31 sec)
Heartbeat CPU 3 instructions: 920000003 cycles: 916232807 heartbeat IPC: 0.6418 cumulative IPC: 0.9344 (Simulation time: 08 hr 34 min 41 sec)
Heartbeat CPU 2 instructions: 770000004 cycles: 919300600 heartbeat IPC: 0.7112 cumulative IPC: 0.7789 (Simulation time: 08 hr 36 min 20 sec)
Heartbeat CPU 3 instructions: 930000003 cycles: 924042468 heartbeat IPC: 1.28 cumulative IPC: 0.9374 (Simulation time: 08 hr 39 min 10 sec)
Heartbeat CPU 1 instructions: 640000004 cycles: 925889712 heartbeat IPC: 0.5539 cumulative IPC: 0.6149 (Simulation time: 08 hr 40 min 13 sec)
Heartbeat CPU 2 instructions: 780000000 cycles: 930503839 heartbeat IPC: 0.8926 cumulative IPC: 0.7803 (Simulation time: 08 hr 42 min 48 sec)
Heartbeat CPU 3 instructions: 940000003 cycles: 939146165 heartbeat IPC: 0.6621 cumulative IPC: 0.9329 (Simulation time: 08 hr 47 min 07 sec)
Heartbeat CPU 2 instructions: 790000000 cycles: 943233355 heartbeat IPC: 0.7856 cumulative IPC: 0.7804 (Simulation time: 08 hr 49 min 24 sec)
Heartbeat CPU 1 instructions: 650000000 cycles: 944186685 heartbeat IPC: 0.5465 cumulative IPC: 0.6136 (Simulation time: 08 hr 49 min 58 sec)
Heartbeat CPU 3 instructions: 950000003 cycles: 946107497 heartbeat IPC: 1.437 cumulative IPC: 0.9366 (Simulation time: 08 hr 51 min 06 sec)
Heartbeat CPU 2 instructions: 800000002 cycles: 952053777 heartbeat IPC: 1.134 cumulative IPC: 0.7837 (Simulation time: 08 hr 54 min 32 sec)
Heartbeat CPU 3 instructions: 960000000 cycles: 960651807 heartbeat IPC: 0.6876 cumulative IPC: 0.9328 (Simulation time: 08 hr 59 min 00 sec)
Heartbeat CPU 1 instructions: 660000000 cycles: 961035833 heartbeat IPC: 0.5935 cumulative IPC: 0.6132 (Simulation time: 08 hr 59 min 14 sec)
Heartbeat CPU 2 instructions: 810000002 cycles: 963715456 heartbeat IPC: 0.8575 cumulative IPC: 0.7846 (Simulation time: 09 hr 00 min 50 sec)
Heartbeat CPU 3 instructions: 970000001 cycles: 965262201 heartbeat IPC: 2.169 cumulative IPC: 0.9388 (Simulation time: 09 hr 01 min 47 sec)
Heartbeat CPU 3 instructions: 980000002 cycles: 969960510 heartbeat IPC: 2.128 cumulative IPC: 0.9447 (Simulation time: 09 hr 04 min 27 sec)
Heartbeat CPU 1 instructions: 670000001 cycles: 972968325 heartbeat IPC: 0.838 cumulative IPC: 0.616 (Simulation time: 09 hr 06 min 10 sec)
Heartbeat CPU 3 instructions: 990000000 cycles: 974780982 heartbeat IPC: 2.074 cumulative IPC: 0.9504 (Simulation time: 09 hr 07 min 20 sec)
Heartbeat CPU 2 instructions: 820000000 cycles: 979260108 heartbeat IPC: 0.6433 cumulative IPC: 0.7824 (Simulation time: 09 hr 09 min 40 sec)
Heartbeat CPU 1 instructions: 680000000 cycles: 992779798 heartbeat IPC: 0.5048 cumulative IPC: 0.6138 (Simulation time: 09 hr 16 min 18 sec)
Heartbeat CPU 2 instructions: 830000000 cycles: 997176493 heartbeat IPC: 0.5581 cumulative IPC: 0.7782 (Simulation time: 09 hr 18 min 46 sec)
Heartbeat CPU 3 instructions: 1000000003 cycles: 1000534300 heartbeat IPC: 0.3883 cumulative IPC: 0.9356 (Simulation time: 09 hr 20 min 32 sec)
Heartbeat CPU 1 instructions: 690000000 cycles: 1005032920 heartbeat IPC: 0.8161 cumulative IPC: 0.6163 (Simulation time: 09 hr 23 min 11 sec)
Heartbeat CPU 0 instructions: 130000003 cycles: 1006294001 heartbeat IPC: 0.07908 cumulative IPC: 0.08118 (Simulation time: 09 hr 23 min 55 sec)
Heartbeat CPU 2 instructions: 840000004 cycles: 1010093216 heartbeat IPC: 0.7742 cumulative IPC: 0.7782 (Simulation time: 09 hr 26 min 10 sec)
Heartbeat CPU 1 instructions: 700000000 cycles: 1017767896 heartbeat IPC: 0.7852 cumulative IPC: 0.6184 (Simulation time: 09 hr 30 min 19 sec)
Heartbeat CPU 2 instructions: 850000000 cycles: 1020768257 heartbeat IPC: 0.9368 cumulative IPC: 0.7799 (Simulation time: 09 hr 31 min 50 sec)
Heartbeat CPU 1 instructions: 710000002 cycles: 1031104393 heartbeat IPC: 0.7498 cumulative IPC: 0.6202 (Simulation time: 09 hr 37 min 06 sec)
Heartbeat CPU 2 instructions: 860000000 cycles: 1032616170 heartbeat IPC: 0.844 cumulative IPC: 0.7806 (Simulation time: 09 hr 37 min 48 sec)
Heartbeat CPU 2 instructions: 870000002 cycles: 1048682206 heartbeat IPC: 0.6224 cumulative IPC: 0.7782 (Simulation time: 09 hr 45 min 19 sec)
Heartbeat CPU 1 instructions: 720000000 cycles: 1049537059 heartbeat IPC: 0.5425 cumulative IPC: 0.6188 (Simulation time: 09 hr 45 min 43 sec)
Heartbeat CPU 3 instructions: 1010000001 cycles: 1063256513 heartbeat IPC: 0.1594 cumulative IPC: 0.8889 (Simulation time: 09 hr 51 min 45 sec)
Heartbeat CPU 2 instructions: 880000001 cycles: 1063804088 heartbeat IPC: 0.6613 cumulative IPC: 0.7765 (Simulation time: 09 hr 52 min 01 sec)
Heartbeat CPU 1 instructions: 730000004 cycles: 1072143230 heartbeat IPC: 0.4424 cumulative IPC: 0.615 (Simulation time: 09 hr 56 min 31 sec)
Heartbeat CPU 3 instructions: 1020000002 cycles: 1073122682 heartbeat IPC: 1.014 cumulative IPC: 0.8901 (Simulation time: 09 hr 57 min 06 sec)
Heartbeat CPU 2 instructions: 890000000 cycles: 1075317681 heartbeat IPC: 0.8685 cumulative IPC: 0.7775 (Simulation time: 09 hr 58 min 24 sec)
Heartbeat CPU 3 instructions: 1030000003 cycles: 1082673480 heartbeat IPC: 1.047 cumulative IPC: 0.8915 (Simulation time: 10 hr 02 min 14 sec)
Heartbeat CPU 1 instructions: 740000000 cycles: 1085744116 heartbeat IPC: 0.7352 cumulative IPC: 0.6165 (Simulation time: 10 hr 03 min 59 sec)
Heartbeat CPU 3 instructions: 1040000003 cycles: 1089789239 heartbeat IPC: 1.405 cumulative IPC: 0.8949 (Simulation time: 10 hr 06 min 16 sec)
Heartbeat CPU 2 instructions: 900000000 cycles: 1092958538 heartbeat IPC: 0.5669 cumulative IPC: 0.774 (Simulation time: 10 hr 07 min 50 sec)
Heartbeat CPU 3 instructions: 1050000002 cycles: 1098927924 heartbeat IPC: 1.094 cumulative IPC: 0.8966 (Simulation time: 10 hr 11 min 08 sec)
Heartbeat CPU 1 instructions: 750000000 cycles: 1098996286 heartbeat IPC: 0.7546 cumulative IPC: 0.6182 (Simulation time: 10 hr 11 min 11 sec)
Heartbeat CPU 2 instructions: 910000004 cycles: 1103746867 heartbeat IPC: 0.9269 cumulative IPC: 0.7755 (Simulation time: 10 hr 13 min 48 sec)
Heartbeat CPU 3 instructions: 1060000000 cycles: 1108097739 heartbeat IPC: 1.091 cumulative IPC: 0.8983 (Simulation time: 10 hr 16 min 05 sec)
Heartbeat CPU 1 instructions: 760000001 cycles: 1113504279 heartbeat IPC: 0.6893 cumulative IPC: 0.6192 (Simulation time: 10 hr 19 min 07 sec)
Heartbeat CPU 2 instructions: 920000004 cycles: 1115035578 heartbeat IPC: 0.8858 cumulative IPC: 0.7767 (Simulation time: 10 hr 19 min 56 sec)
Heartbeat CPU 3 instructions: 1070000001 cycles: 1116525665 heartbeat IPC: 1.187 cumulative IPC: 0.9005 (Simulation time: 10 hr 20 min 47 sec)
Heartbeat CPU 2 instructions: 930000004 cycles: 1125673236 heartbeat IPC: 0.9401 cumulative IPC: 0.7782 (Simulation time: 10 hr 25 min 26 sec)
Heartbeat CPU 0 instructions: 140000001 cycles: 1127311372 heartbeat IPC: 0.08263 cumulative IPC: 0.08134 (Simulation time: 10 hr 26 min 37 sec)
Heartbeat CPU 1 instructions: 770000000 cycles: 1128466866 heartbeat IPC: 0.6683 cumulative IPC: 0.6198 (Simulation time: 10 hr 27 min 28 sec)
Heartbeat CPU 3 instructions: 1080000004 cycles: 1135826492 heartbeat IPC: 0.5181 cumulative IPC: 0.8939 (Simulation time: 10 hr 32 min 09 sec)
Heartbeat CPU 2 instructions: 940000004 cycles: 1143752907 heartbeat IPC: 0.5531 cumulative IPC: 0.7746 (Simulation time: 10 hr 35 min 51 sec)
Heartbeat CPU 1 instructions: 780000004 cycles: 1145643721 heartbeat IPC: 0.5822 cumulative IPC: 0.6193 (Simulation time: 10 hr 36 min 40 sec)
Heartbeat CPU 3 instructions: 1090000003 cycles: 1154696667 heartbeat IPC: 0.5299 cumulative IPC: 0.8878 (Simulation time: 10 hr 41 min 11 sec)
Heartbeat CPU 2 instructions: 950000002 cycles: 1159319398 heartbeat IPC: 0.6424 cumulative IPC: 0.7728 (Simulation time: 10 hr 43 min 32 sec)
Heartbeat CPU 1 instructions: 790000004 cycles: 1163466631 heartbeat IPC: 0.5611 cumulative IPC: 0.6183 (Simulation time: 10 hr 45 min 33 sec)
Heartbeat CPU 3 instructions: 1100000000 cycles: 1170369100 heartbeat IPC: 0.6381 cumulative IPC: 0.8844 (Simulation time: 10 hr 48 min 53 sec)
Heartbeat CPU 2 instructions: 960000000 cycles: 1178274439 heartbeat IPC: 0.5276 cumulative IPC: 0.7688 (Simulation time: 10 hr 52 min 46 sec)
Heartbeat CPU 1 instructions: 800000004 cycles: 1182403091 heartbeat IPC: 0.5281 cumulative IPC: 0.6169 (Simulation time: 10 hr 54 min 45 sec)
Heartbeat CPU 2 instructions: 970000000 cycles: 1192826204 heartbeat IPC: 0.6872 cumulative IPC: 0.7678 (Simulation time: 10 hr 59 min 54 sec)
Heartbeat CPU 3 instructions: 1110000002 cycles: 1193177500 heartbeat IPC: 0.4384 cumulative IPC: 0.8757 (Simulation time: 11 hr 00 min 04 sec)
Heartbeat CPU 1 instructions: 810000004 cycles: 1203340037 heartbeat IPC: 0.4776 cumulative IPC: 0.6144 (Simulation time: 11 hr 05 min 14 sec)
Heartbeat CPU 2 instructions: 980000001 cycles: 1206204840 heartbeat IPC: 0.7475 cumulative IPC: 0.7675 (Simulation time: 11 hr 06 min 49 sec)
Heartbeat CPU 2 instructions: 990000000 cycles: 1222432879 heartbeat IPC: 0.6162 cumulative IPC: 0.7655 (Simulation time: 11 hr 14 min 11 sec)
Heartbeat CPU 3 instructions: 1120000004 cycles: 1224756294 heartbeat IPC: 0.3167 cumulative IPC: 0.8611 (Simulation time: 11 hr 15 min 15 sec)
Heartbeat CPU 1 instructions: 820000004 cycles: 1234052575 heartbeat IPC: 0.3256 cumulative IPC: 0.6071 (Simulation time: 11 hr 19 min 19 sec)
Heartbeat CPU 2 instructions: 1000000001 cycles: 1239689925 heartbeat IPC: 0.5795 cumulative IPC: 0.7629 (Simulation time: 11 hr 21 min 53 sec)
Heartbeat CPU 2 instructions: 1010000000 cycles: 1251078576 heartbeat IPC: 0.8781 cumulative IPC: 0.7639 (Simulation time: 11 hr 27 min 39 sec)
Heartbeat CPU 1 instructions: 830000003 cycles: 1255955328 heartbeat IPC: 0.4566 cumulative IPC: 0.6044 (Simulation time: 11 hr 29 min 57 sec)
Heartbeat CPU 3 instructions: 1130000004 cycles: 1264580830 heartbeat IPC: 0.2511 cumulative IPC: 0.8415 (Simulation time: 11 hr 34 min 03 sec)
Heartbeat CPU 2 instructions: 1020000001 cycles: 1273457344 heartbeat IPC: 0.4469 cumulative IPC: 0.7583 (Simulation time: 11 hr 37 min 57 sec)
Heartbeat CPU 1 instructions: 840000001 cycles: 1275689222 heartbeat IPC: 0.5067 cumulative IPC: 0.6029 (Simulation time: 11 hr 38 min 59 sec)
Heartbeat CPU 2 instructions: 1030000002 cycles: 1287247347 heartbeat IPC: 0.7252 cumulative IPC: 0.7579 (Simulation time: 11 hr 44 min 36 sec)
Heartbeat CPU 3 instructions: 1140000001 cycles: 1291854445 heartbeat IPC: 0.3667 cumulative IPC: 0.8313 (Simulation time: 11 hr 46 min 55 sec)
Heartbeat CPU 1 instructions: 850000001 cycles: 1292400581 heartbeat IPC: 0.5984 cumulative IPC: 0.6028 (Simulation time: 11 hr 47 min 10 sec)
Heartbeat CPU 0 instructions: 150000003 cycles: 1293237389 heartbeat IPC: 0.06027 cumulative IPC: 0.07859 (Simulation time: 11 hr 47 min 36 sec)
Heartbeat CPU 2 instructions: 1040000001 cycles: 1302117911 heartbeat IPC: 0.6725 cumulative IPC: 0.7569 (Simulation time: 11 hr 51 min 36 sec)
Heartbeat CPU 1 instructions: 860000001 cycles: 1311778179 heartbeat IPC: 0.5161 cumulative IPC: 0.6015 (Simulation time: 11 hr 56 min 15 sec)
Heartbeat CPU 2 instructions: 1050000000 cycles: 1316563825 heartbeat IPC: 0.6922 cumulative IPC: 0.7562 (Simulation time: 11 hr 58 min 21 sec)
Heartbeat CPU 3 instructions: 1150000001 cycles: 1321134326 heartbeat IPC: 0.3415 cumulative IPC: 0.8203 (Simulation time: 12 hr 00 min 12 sec)
Heartbeat CPU 1 instructions: 870000002 cycles: 1332414541 heartbeat IPC: 0.4846 cumulative IPC: 0.5997 (Simulation time: 12 hr 04 min 51 sec)
Heartbeat CPU 2 instructions: 1060000000 cycles: 1337991285 heartbeat IPC: 0.4667 cumulative IPC: 0.7515 (Simulation time: 12 hr 07 min 05 sec)
Heartbeat CPU 2 instructions: 1070000000 cycles: 1351670208 heartbeat IPC: 0.7311 cumulative IPC: 0.7513 (Simulation time: 12 hr 13 min 07 sec)
Heartbeat CPU 1 instructions: 880000001 cycles: 1355240942 heartbeat IPC: 0.4381 cumulative IPC: 0.5969 (Simulation time: 12 hr 14 min 45 sec)
Heartbeat CPU 3 instructions: 1160000004 cycles: 1359902923 heartbeat IPC: 0.2579 cumulative IPC: 0.804 (Simulation time: 12 hr 16 min 57 sec)
Heartbeat CPU 2 instructions: 1080000000 cycles: 1363861961 heartbeat IPC: 0.8202 cumulative IPC: 0.7519 (Simulation time: 12 hr 18 min 49 sec)
Heartbeat CPU 1 instructions: 890000004 cycles: 1371845656 heartbeat IPC: 0.6022 cumulative IPC: 0.597 (Simulation time: 12 hr 22 min 32 sec)
Heartbeat CPU 2 instructions: 1090000000 cycles: 1383747831 heartbeat IPC: 0.5029 cumulative IPC: 0.7483 (Simulation time: 12 hr 27 min 36 sec)
Heartbeat CPU 3 instructions: 1170000000 cycles: 1389713674 heartbeat IPC: 0.3354 cumulative IPC: 0.7938 (Simulation time: 12 hr 30 min 15 sec)
Heartbeat CPU 1 instructions: 900000000 cycles: 1390311191 heartbeat IPC: 0.5415 cumulative IPC: 0.5962 (Simulation time: 12 hr 30 min 30 sec)
Heartbeat CPU 2 instructions: 1100000001 cycles: 1397718229 heartbeat IPC: 0.7158 cumulative IPC: 0.7479 (Simulation time: 12 hr 33 min 57 sec)
Heartbeat CPU 1 instructions: 910000000 cycles: 1412362774 heartbeat IPC: 0.4535 cumulative IPC: 0.594 (Simulation time: 12 hr 40 min 20 sec)
Heartbeat CPU 2 instructions: 1110000003 cycles: 1413920406 heartbeat IPC: 0.6172 cumulative IPC: 0.7464 (Simulation time: 12 hr 40 min 59 sec)
Heartbeat CPU 3 instructions: 1180000003 cycles: 1426102850 heartbeat IPC: 0.2748 cumulative IPC: 0.7804 (Simulation time: 12 hr 46 min 17 sec)
Heartbeat CPU 2 instructions: 1120000001 cycles: 1430262193 heartbeat IPC: 0.6119 cumulative IPC: 0.7449 (Simulation time: 12 hr 47 min 59 sec)
Heartbeat CPU 1 instructions: 920000002 cycles: 1435584138 heartbeat IPC: 0.4306 cumulative IPC: 0.5913 (Simulation time: 12 hr 50 min 10 sec)
Heartbeat CPU 2 instructions: 1130000002 cycles: 1455116097 heartbeat IPC: 0.4024 cumulative IPC: 0.7389 (Simulation time: 12 hr 58 min 00 sec)
Heartbeat CPU 3 instructions: 1190000000 cycles: 1457233536 heartbeat IPC: 0.3212 cumulative IPC: 0.7704 (Simulation time: 12 hr 58 min 55 sec)
Heartbeat CPU 1 instructions: 930000004 cycles: 1457755245 heartbeat IPC: 0.451 cumulative IPC: 0.5891 (Simulation time: 12 hr 59 min 11 sec)
Heartbeat CPU 0 instructions: 160000002 cycles: 1462510100 heartbeat IPC: 0.05908 cumulative IPC: 0.0763 (Simulation time: 13 hr 01 min 42 sec)
Heartbeat CPU 3 instructions: 1200000002 cycles: 1466359531 heartbeat IPC: 1.096 cumulative IPC: 0.7725 (Simulation time: 13 hr 03 min 26 sec)
Heartbeat CPU 2 instructions: 1140000001 cycles: 1467197833 heartbeat IPC: 0.8277 cumulative IPC: 0.7397 (Simulation time: 13 hr 03 min 48 sec)
Heartbeat CPU 1 instructions: 940000002 cycles: 1476015476 heartbeat IPC: 0.5476 cumulative IPC: 0.5886 (Simulation time: 13 hr 07 min 34 sec)
Heartbeat CPU 2 instructions: 1150000000 cycles: 1479341512 heartbeat IPC: 0.8235 cumulative IPC: 0.7404 (Simulation time: 13 hr 09 min 15 sec)
Heartbeat CPU 3 instructions: 1210000000 cycles: 1479576018 heartbeat IPC: 0.7566 cumulative IPC: 0.7723 (Simulation time: 13 hr 09 min 22 sec)
Heartbeat CPU 2 instructions: 1160000002 cycles: 1489167965 heartbeat IPC: 1.018 cumulative IPC: 0.7422 (Simulation time: 13 hr 14 min 01 sec)
Heartbeat CPU 1 instructions: 950000004 cycles: 1492310774 heartbeat IPC: 0.6137 cumulative IPC: 0.5889 (Simulation time: 13 hr 15 min 19 sec)
Heartbeat CPU 3 instructions: 1220000004 cycles: 1493386142 heartbeat IPC: 0.7241 cumulative IPC: 0.7719 (Simulation time: 13 hr 15 min 52 sec)
Heartbeat CPU 3 instructions: 1230000004 cycles: 1499757377 heartbeat IPC: 1.57 cumulative IPC: 0.7753 (Simulation time: 13 hr 19 min 13 sec)
Heartbeat CPU 2 instructions: 1170000001 cycles: 1499775071 heartbeat IPC: 0.9428 cumulative IPC: 0.7437 (Simulation time: 13 hr 19 min 14 sec)
Heartbeat CPU 1 instructions: 960000000 cycles: 1506774192 heartbeat IPC: 0.6914 cumulative IPC: 0.5899 (Simulation time: 13 hr 22 min 36 sec)
Heartbeat CPU 3 instructions: 1240000000 cycles: 1513397495 heartbeat IPC: 0.7331 cumulative IPC: 0.7749 (Simulation time: 13 hr 25 min 13 sec)
Heartbeat CPU 2 instructions: 1180000000 cycles: 1518234097 heartbeat IPC: 0.5417 cumulative IPC: 0.7412 (Simulation time: 13 hr 27 min 35 sec)
Heartbeat CPU 3 instructions: 1250000002 cycles: 1520445284 heartbeat IPC: 1.419 cumulative IPC: 0.778 (Simulation time: 13 hr 28 min 34 sec)
Heartbeat CPU 1 instructions: 970000003 cycles: 1521659949 heartbeat IPC: 0.6718 cumulative IPC: 0.5907 (Simulation time: 13 hr 29 min 06 sec)
Heartbeat CPU 3 instructions: 1260000004 cycles: 1533448324 heartbeat IPC: 0.7691 cumulative IPC: 0.7779 (Simulation time: 13 hr 34 min 15 sec)
Heartbeat CPU 2 instructions: 1190000000 cycles: 1536728425 heartbeat IPC: 0.5407 cumulative IPC: 0.7387 (Simulation time: 13 hr 35 min 48 sec)
Heartbeat CPU 1 instructions: 980000000 cycles: 1537344450 heartbeat IPC: 0.6376 cumulative IPC: 0.5912 (Simulation time: 13 hr 36 min 07 sec)
Heartbeat CPU 3 instructions: 1270000003 cycles: 1548653212 heartbeat IPC: 0.6577 cumulative IPC: 0.7767 (Simulation time: 13 hr 40 min 48 sec)
Heartbeat CPU 2 instructions: 1200000002 cycles: 1550007783 heartbeat IPC: 0.753 cumulative IPC: 0.7388 (Simulation time: 13 hr 41 min 30 sec)
Heartbeat CPU 3 instructions: 1280000000 cycles: 1553292338 heartbeat IPC: 2.156 cumulative IPC: 0.7809 (Simulation time: 13 hr 43 min 12 sec)
Heartbeat CPU 1 instructions: 990000002 cycles: 1553510672 heartbeat IPC: 0.6186 cumulative IPC: 0.5915 (Simulation time: 13 hr 43 min 19 sec)
Heartbeat CPU 3 instructions: 1290000003 cycles: 1558042459 heartbeat IPC: 2.105 cumulative IPC: 0.785 (Simulation time: 13 hr 45 min 44 sec)
Heartbeat CPU 2 instructions: 1210000001 cycles: 1560349117 heartbeat IPC: 0.967 cumulative IPC: 0.7404 (Simulation time: 13 hr 46 min 49 sec)
Heartbeat CPU 3 instructions: 1300000000 cycles: 1563034450 heartbeat IPC: 2.003 cumulative IPC: 0.7889 (Simulation time: 13 hr 48 min 09 sec)
Heartbeat CPU 1 instructions: 1000000004 cycles: 1567908068 heartbeat IPC: 0.6946 cumulative IPC: 0.5924 (Simulation time: 13 hr 50 min 09 sec)
Heartbeat CPU 2 instructions: 1220000003 cycles: 1572916856 heartbeat IPC: 0.7957 cumulative IPC: 0.7408 (Simulation time: 13 hr 52 min 00 sec)
Heartbeat CPU 2 instructions: 1230000001 cycles: 1583954141 heartbeat IPC: 0.906 cumulative IPC: 0.742 (Simulation time: 13 hr 56 min 47 sec)
Heartbeat CPU 1 instructions: 1010000004 cycles: 1586416279 heartbeat IPC: 0.5403 cumulative IPC: 0.5918 (Simulation time: 13 hr 57 min 51 sec)
Heartbeat CPU 3 instructions: 1310000002 cycles: 1589419634 heartbeat IPC: 0.379 cumulative IPC: 0.782 (Simulation time: 13 hr 59 min 11 sec)
Heartbeat CPU 0 instructions: 170000001 cycles: 1589896891 heartbeat IPC: 0.0785 cumulative IPC: 0.07648 (Simulation time: 13 hr 59 min 23 sec)
Heartbeat CPU 1 instructions: 1020000003 cycles: 1598522186 heartbeat IPC: 0.826 cumulative IPC: 0.5936 (Simulation time: 14 hr 03 min 29 sec)
Heartbeat CPU 2 instructions: 1240000003 cycles: 1598937650 heartbeat IPC: 0.6674 cumulative IPC: 0.7413 (Simulation time: 14 hr 03 min 39 sec)
Heartbeat CPU 2 instructions: 1250000000 cycles: 1610539688 heartbeat IPC: 0.8619 cumulative IPC: 0.7422 (Simulation time: 14 hr 09 min 01 sec)
Heartbeat CPU 1 instructions: 1030000000 cycles: 1613247377 heartbeat IPC: 0.6791 cumulative IPC: 0.5944 (Simulation time: 14 hr 10 min 24 sec)
Heartbeat CPU 2 instructions: 1260000000 cycles: 1621053888 heartbeat IPC: 0.9511 cumulative IPC: 0.7435 (Simulation time: 14 hr 14 min 02 sec)
Heartbeat CPU 1 instructions: 1040000003 cycles: 1627388588 heartbeat IPC: 0.7072 cumulative IPC: 0.5954 (Simulation time: 14 hr 17 min 01 sec)
Heartbeat CPU 2 instructions: 1270000003 cycles: 1632616938 heartbeat IPC: 0.8648 cumulative IPC: 0.7444 (Simulation time: 14 hr 19 min 17 sec)
Heartbeat CPU 2 instructions: 1280000001 cycles: 1645309479 heartbeat IPC: 0.7879 cumulative IPC: 0.7447 (Simulation time: 14 hr 24 min 23 sec)
Heartbeat CPU 1 instructions: 1050000000 cycles: 1649843345 heartbeat IPC: 0.4453 cumulative IPC: 0.5933 (Simulation time: 14 hr 26 min 08 sec)
Heartbeat CPU 3 instructions: 1320000004 cycles: 1653543661 heartbeat IPC: 0.1559 cumulative IPC: 0.7574 (Simulation time: 14 hr 27 min 31 sec)
Heartbeat CPU 2 instructions: 1290000004 cycles: 1657878126 heartbeat IPC: 0.7956 cumulative IPC: 0.7451 (Simulation time: 14 hr 29 min 37 sec)
Heartbeat CPU 3 instructions: 1330000002 cycles: 1663024964 heartbeat IPC: 1.055 cumulative IPC: 0.7591 (Simulation time: 14 hr 32 min 07 sec)
Heartbeat CPU 1 instructions: 1060000004 cycles: 1667204474 heartbeat IPC: 0.576 cumulative IPC: 0.5932 (Simulation time: 14 hr 34 min 05 sec)
Heartbeat CPU 3 instructions: 1340000000 cycles: 1672734496 heartbeat IPC: 1.03 cumulative IPC: 0.7607 (Simulation time: 14 hr 36 min 20 sec)
Heartbeat CPU 2 instructions: 1300000000 cycles: 1675690979 heartbeat IPC: 0.5614 cumulative IPC: 0.7432 (Simulation time: 14 hr 37 min 41 sec)
Heartbeat CPU 3 instructions: 1350000002 cycles: 1680336679 heartbeat IPC: 1.315 cumulative IPC: 0.7633 (Simulation time: 14 hr 39 min 44 sec)
Heartbeat CPU 1 instructions: 1070000000 cycles: 1680879897 heartbeat IPC: 0.7312 cumulative IPC: 0.5943 (Simulation time: 14 hr 39 min 58 sec)
Heartbeat CPU 2 instructions: 1310000002 cycles: 1687129584 heartbeat IPC: 0.8742 cumulative IPC: 0.7441 (Simulation time: 14 hr 42 min 46 sec)
Heartbeat CPU 3 instructions: 1360000004 cycles: 1689584024 heartbeat IPC: 1.081 cumulative IPC: 0.765 (Simulation time: 14 hr 43 min 56 sec)
Heartbeat CPU 1 instructions: 1080000003 cycles: 1695107574 heartbeat IPC: 0.7029 cumulative IPC: 0.5952 (Simulation time: 14 hr 46 min 37 sec)
Heartbeat CPU 3 instructions: 1370000004 cycles: 1698348673 heartbeat IPC: 1.141 cumulative IPC: 0.767 (Simulation time: 14 hr 47 min 58 sec)
Heartbeat CPU 2 instructions: 1320000000 cycles: 1699043023 heartbeat IPC: 0.8394 cumulative IPC: 0.7447 (Simulation time: 14 hr 48 min 21 sec)
Heartbeat CPU 3 instructions: 1380000003 cycles: 1706024617 heartbeat IPC: 1.303 cumulative IPC: 0.7694 (Simulation time: 14 hr 51 min 43 sec)
Heartbeat CPU 1 instructions: 1090000002 cycles: 1708357871 heartbeat IPC: 0.7547 cumulative IPC: 0.5965 (Simulation time: 14 hr 52 min 43 sec)
Heartbeat CPU 2 instructions: 1330000002 cycles: 1712637109 heartbeat IPC: 0.7356 cumulative IPC: 0.7447 (Simulation time: 14 hr 54 min 16 sec)
Heartbeat CPU 0 instructions: 180000001 cycles: 1713154934 heartbeat IPC: 0.08113 cumulative IPC: 0.07682 (Simulation time: 14 hr 54 min 28 sec)
Heartbeat CPU 1 instructions: 1100000004 cycles: 1723887673 heartbeat IPC: 0.6439 cumulative IPC: 0.5969 (Simulation time: 14 hr 58 min 55 sec)
Heartbeat CPU 3 instructions: 1390000001 cycles: 1725454282 heartbeat IPC: 0.5147 cumulative IPC: 0.7665 (Simulation time: 14 hr 59 min 38 sec)
Heartbeat CPU 2 instructions: 1340000001 cycles: 1731161579 heartbeat IPC: 0.5398 cumulative IPC: 0.7424 (Simulation time: 15 hr 01 min 52 sec)
Heartbeat CPU 1 instructions: 1110000000 cycles: 1741917920 heartbeat IPC: 0.5546 cumulative IPC: 0.5965 (Simulation time: 15 hr 06 min 22 sec)
Heartbeat CPU 3 instructions: 1400000000 cycles: 1743804020 heartbeat IPC: 0.545 cumulative IPC: 0.7642 (Simulation time: 15 hr 07 min 15 sec)
Heartbeat CPU 2 instructions: 1350000001 cycles: 1751134594 heartbeat IPC: 0.5007 cumulative IPC: 0.7397 (Simulation time: 15 hr 10 min 33 sec)
Heartbeat CPU 3 instructions: 1410000004 cycles: 1760740994 heartbeat IPC: 0.5904 cumulative IPC: 0.7625 (Simulation time: 15 hr 14 min 43 sec)
Heartbeat CPU 1 instructions: 1120000003 cycles: 1760991674 heartbeat IPC: 0.5243 cumulative IPC: 0.5957 (Simulation time: 15 hr 14 min 49 sec)
Heartbeat CPU 2 instructions: 1360000002 cycles: 1764323251 heartbeat IPC: 0.7582 cumulative IPC: 0.7398 (Simulation time: 15 hr 16 min 08 sec)
Heartbeat CPU 2 instructions: 1370000001 cycles: 1776958943 heartbeat IPC: 0.7914 cumulative IPC: 0.7402 (Simulation time: 15 hr 21 min 39 sec)
Heartbeat CPU 1 instructions: 1130000003 cycles: 1781339005 heartbeat IPC: 0.4915 cumulative IPC: 0.5945 (Simulation time: 15 hr 23 min 40 sec)
Heartbeat CPU 3 instructions: 1420000004 cycles: 1782786217 heartbeat IPC: 0.4536 cumulative IPC: 0.7586 (Simulation time: 15 hr 24 min 16 sec)
Heartbeat CPU 2 instructions: 1380000000 cycles: 1788482082 heartbeat IPC: 0.8678 cumulative IPC: 0.741 (Simulation time: 15 hr 27 min 01 sec)
Heartbeat CPU 2 instructions: 1390000000 cycles: 1801623113 heartbeat IPC: 0.761 cumulative IPC: 0.7411 (Simulation time: 15 hr 32 min 46 sec)
Heartbeat CPU 1 instructions: 1140000001 cycles: 1803024295 heartbeat IPC: 0.4611 cumulative IPC: 0.5928 (Simulation time: 15 hr 33 min 25 sec)
Heartbeat CPU 3 instructions: 1430000003 cycles: 1813223301 heartbeat IPC: 0.3285 cumulative IPC: 0.7513 (Simulation time: 15 hr 37 min 57 sec)
Heartbeat CPU 2 instructions: 1400000002 cycles: 1832033126 heartbeat IPC: 0.3288 cumulative IPC: 0.7342 (Simulation time: 15 hr 45 min 11 sec)
Heartbeat CPU 1 instructions: 1150000002 cycles: 1833081302 heartbeat IPC: 0.3327 cumulative IPC: 0.5885 (Simulation time: 15 hr 45 min 39 sec)
Heartbeat CPU 2 instructions: 1410000003 cycles: 1846478853 heartbeat IPC: 0.6922 cumulative IPC: 0.7339 (Simulation time: 15 hr 51 min 37 sec)
Heartbeat CPU 3 instructions: 1440000003 cycles: 1852278667 heartbeat IPC: 0.256 cumulative IPC: 0.7408 (Simulation time: 15 hr 54 min 10 sec)
Heartbeat CPU 1 instructions: 1160000002 cycles: 1852519280 heartbeat IPC: 0.5145 cumulative IPC: 0.5877 (Simulation time: 15 hr 54 min 15 sec)
Heartbeat CPU 2 instructions: 1420000001 cycles: 1868745960 heartbeat IPC: 0.4491 cumulative IPC: 0.7305 (Simulation time: 16 hr 01 min 00 sec)
Heartbeat CPU 1 instructions: 1170000004 cycles: 1869973898 heartbeat IPC: 0.5729 cumulative IPC: 0.5876 (Simulation time: 16 hr 01 min 34 sec)
Heartbeat CPU 0 instructions: 190000003 cycles: 1875448563 heartbeat IPC: 0.06162 cumulative IPC: 0.07549 (Simulation time: 16 hr 04 min 09 sec)
Heartbeat CPU 2 instructions: 1430000002 cycles: 1880429069 heartbeat IPC: 0.8559 cumulative IPC: 0.7312 (Simulation time: 16 hr 06 min 26 sec)
Heartbeat CPU 3 instructions: 1450000003 cycles: 1880576096 heartbeat IPC: 0.3534 cumulative IPC: 0.7349 (Simulation time: 16 hr 06 min 31 sec)
Heartbeat CPU 1 instructions: 1180000004 cycles: 1886759682 heartbeat IPC: 0.5957 cumulative IPC: 0.5877 (Simulation time: 16 hr 09 min 10 sec)
Heartbeat CPU 2 instructions: 1440000000 cycles: 1900403076 heartbeat IPC: 0.5007 cumulative IPC: 0.7288 (Simulation time: 16 hr 15 min 08 sec)
Heartbeat CPU 1 instructions: 1190000004 cycles: 1906446410 heartbeat IPC: 0.508 cumulative IPC: 0.5868 (Simulation time: 16 hr 17 min 37 sec)
Heartbeat CPU 3 instructions: 1460000002 cycles: 1908673549 heartbeat IPC: 0.3559 cumulative IPC: 0.7292 (Simulation time: 16 hr 18 min 30 sec)
Heartbeat CPU 2 instructions: 1450000000 cycles: 1915090917 heartbeat IPC: 0.6808 cumulative IPC: 0.7284 (Simulation time: 16 hr 21 min 19 sec)
Heartbeat CPU 1 instructions: 1200000000 cycles: 1929520794 heartbeat IPC: 0.4334 cumulative IPC: 0.585 (Simulation time: 16 hr 27 min 09 sec)
Heartbeat CPU 2 instructions: 1460000004 cycles: 1939081208 heartbeat IPC: 0.4168 cumulative IPC: 0.7245 (Simulation time: 16 hr 31 min 10 sec)
Heartbeat CPU 3 instructions: 1470000002 cycles: 1945492998 heartbeat IPC: 0.2716 cumulative IPC: 0.7205 (Simulation time: 16 hr 33 min 37 sec)
Heartbeat CPU 1 instructions: 1210000001 cycles: 1947512288 heartbeat IPC: 0.5558 cumulative IPC: 0.5847 (Simulation time: 16 hr 34 min 29 sec)
Heartbeat CPU 2 instructions: 1470000003 cycles: 1957040828 heartbeat IPC: 0.5568 cumulative IPC: 0.723 (Simulation time: 16 hr 38 min 51 sec)
Heartbeat CPU 1 instructions: 1220000001 cycles: 1964499126 heartbeat IPC: 0.5887 cumulative IPC: 0.5847 (Simulation time: 16 hr 42 min 09 sec)
Heartbeat CPU 2 instructions: 1480000003 cycles: 1969647719 heartbeat IPC: 0.7932 cumulative IPC: 0.7234 (Simulation time: 16 hr 44 min 35 sec)
Heartbeat CPU 3 instructions: 1480000000 cycles: 1975925289 heartbeat IPC: 0.3286 cumulative IPC: 0.7144 (Simulation time: 16 hr 47 min 18 sec)
Heartbeat CPU 2 instructions: 1490000001 cycles: 1982904697 heartbeat IPC: 0.7543 cumulative IPC: 0.7236 (Simulation time: 16 hr 50 min 27 sec)
Heartbeat CPU 1 instructions: 1230000001 cycles: 1983683272 heartbeat IPC: 0.5213 cumulative IPC: 0.5841 (Simulation time: 16 hr 50 min 47 sec)
Heartbeat CPU 1 instructions: 1240000001 cycles: 2007612548 heartbeat IPC: 0.4179 cumulative IPC: 0.5821 (Simulation time: 17 hr 00 min 04 sec)
Heartbeat CPU 2 instructions: 1500000001 cycles: 2008702017 heartbeat IPC: 0.3876 cumulative IPC: 0.7193 (Simulation time: 17 hr 00 min 30 sec)
Heartbeat CPU 3 instructions: 1490000000 cycles: 2013844050 heartbeat IPC: 0.2637 cumulative IPC: 0.7058 (Simulation time: 17 hr 02 min 37 sec)
Heartbeat CPU 2 instructions: 1510000001 cycles: 2022883460 heartbeat IPC: 0.7051 cumulative IPC: 0.7192 (Simulation time: 17 hr 06 min 19 sec)
Heartbeat CPU 1 instructions: 1250000003 cycles: 2028066278 heartbeat IPC: 0.4889 cumulative IPC: 0.5812 (Simulation time: 17 hr 08 min 31 sec)
Heartbeat CPU 0 instructions: 200000001 cycles: 2034510368 heartbeat IPC: 0.06287 cumulative IPC: 0.07449 (Simulation time: 17 hr 11 min 12 sec)
Simulation finished CPU 0 instructions: 150000002 cycles: 2013641665 cumulative IPC: 0.07449 (Simulation time: 17 hr 11 min 12 sec)
Simulation complete CPU 0 instructions: 150000002 cycles: 2013641665 cumulative IPC: 0.07449 (Simulation time: 17 hr 11 min 12 sec)
Simulation complete CPU 1 instructions: 1169972080 cycles: 2013641665 cumulative IPC: 0.581 (Simulation time: 17 hr 11 min 12 sec)
Simulation complete CPU 2 instructions: 1448765994 cycles: 2013641665 cumulative IPC: 0.7195 (Simulation time: 17 hr 11 min 12 sec)
Simulation complete CPU 3 instructions: 1414097371 cycles: 2013641665 cumulative IPC: 0.7023 (Simulation time: 17 hr 11 min 12 sec)

ChampSim completed all CPUs

=== Simulation ===
CPU 0 runs /home/das/dpc3_traces/620.omnetpp_s-874B.champsimtrace.xzCPU 1 runs /home/das/dpc3_traces/649.fotonik3d_s-1176B.champsimtrace.xzCPU 2 runs /home/das/dpc3_traces/623.xalancbmk_s-700B.champsimtrace.xzCPU 3 runs /home/das/dpc3_traces/621.wrf_s-575B.champsimtrace.xz
Total Simulation Statistics (not including warmup)

CPU 0 cumulative IPC: 0.07449 instructions: 150000002 cycles: 2013641665
CPU 0 Branch Prediction Accuracy: 94.9% MPKI: 10.6 Average ROB Occupancy at Mispredict: 86.18
Branch type MPKI
BRANCH_DIRECT_JUMP: 0.923
BRANCH_INDIRECT: 0.128
BRANCH_CONDITIONAL: 8.42
BRANCH_DIRECT_CALL: 0.00016
BRANCH_INDIRECT_CALL: 0.734
BRANCH_RETURN: 0.399


CPU 1 cumulative IPC: 0.581 instructions: 1169972080 cycles: 2013641665
CPU 1 Branch Prediction Accuracy: 99.82% MPKI: 0.03161 Average ROB Occupancy at Mispredict: 103.2
Branch type MPKI
BRANCH_DIRECT_JUMP: 7.61e-05
BRANCH_INDIRECT: 0
BRANCH_CONDITIONAL: 0.0247
BRANCH_DIRECT_CALL: 1.37e-05
BRANCH_INDIRECT_CALL: 0
BRANCH_RETURN: 0.00685


CPU 2 cumulative IPC: 0.7195 instructions: 1448765994 cycles: 2013641665
CPU 2 Branch Prediction Accuracy: 97.14% MPKI: 8.128 Average ROB Occupancy at Mispredict: 42.41
Branch type MPKI
BRANCH_DIRECT_JUMP: 0.112
BRANCH_INDIRECT: 0.352
BRANCH_CONDITIONAL: 5.8
BRANCH_DIRECT_CALL: 0.000235
BRANCH_INDIRECT_CALL: 0.383
BRANCH_RETURN: 1.48


CPU 3 cumulative IPC: 0.7023 instructions: 1414097371 cycles: 2013641665
CPU 3 Branch Prediction Accuracy: 96.19% MPKI: 3.252 Average ROB Occupancy at Mispredict: 135.3
Branch type MPKI
BRANCH_DIRECT_JUMP: 0.000287
BRANCH_INDIRECT: 1.34e-05
BRANCH_CONDITIONAL: 3.05
BRANCH_DIRECT_CALL: 0.00176
BRANCH_INDIRECT_CALL: 0
BRANCH_RETURN: 0.198

LLC TOTAL        ACCESS:    3536277 HIT:     997226 MISS:    2539051
LLC LOAD         ACCESS:    1687653 HIT:     200634 MISS:    1487019
LLC RFO          ACCESS:     257457 HIT:      51765 MISS:     205692
LLC PREFETCH     ACCESS:      27913 HIT:       7335 MISS:      20578
LLC WRITE        ACCESS:     967219 HIT:     713945 MISS:     253274
LLC TRANSLATION  ACCESS:     596035 HIT:      23547 MISS:     572488
LLC PREFETCH REQUESTED:          0 ISSUED:          0 USEFUL:          0 USELESS:          0
LLC AVERAGE MISS LATENCY: 1995 cycles
LLC TOTAL        ACCESS:   31682798 HIT:   16310944 MISS:   15371854
LLC LOAD         ACCESS:     749922 HIT:     380359 MISS:     369563
LLC RFO          ACCESS:       2675 HIT:       2668 MISS:          7
LLC PREFETCH     ACCESS:   20696802 HIT:    5697033 MISS:   14999769
LLC WRITE        ACCESS:   10229066 HIT:   10227481 MISS:       1585
LLC TRANSLATION  ACCESS:       4333 HIT:       3403 MISS:        930
LLC PREFETCH REQUESTED:          0 ISSUED:          0 USEFUL:          0 USELESS:          0
LLC AVERAGE MISS LATENCY: 1995 cycles
LLC TOTAL        ACCESS:    7864543 HIT:    5205329 MISS:    2659214
LLC LOAD         ACCESS:    3131734 HIT:    2546165 MISS:     585569
LLC RFO          ACCESS:    1754006 HIT:      71159 MISS:    1682847
LLC PREFETCH     ACCESS:     543246 HIT:     412425 MISS:     130821
LLC WRITE        ACCESS:    2133908 HIT:    2001045 MISS:     132863
LLC TRANSLATION  ACCESS:     301649 HIT:     174535 MISS:     127114
LLC PREFETCH REQUESTED:          0 ISSUED:          0 USEFUL:          0 USELESS:          0
LLC AVERAGE MISS LATENCY: 1995 cycles
LLC TOTAL        ACCESS:   36508474 HIT:   17176646 MISS:   19331828
LLC LOAD         ACCESS:    2983156 HIT:    1419904 MISS:    1563252
LLC RFO          ACCESS:    2507899 HIT:     508264 MISS:    1999635
LLC PREFETCH     ACCESS:   25691315 HIT:    9957478 MISS:   15733837
LLC WRITE        ACCESS:    5308275 HIT:    5286205 MISS:      22070
LLC TRANSLATION  ACCESS:      17829 HIT:       4795 MISS:      13034
LLC PREFETCH REQUESTED:          0 ISSUED:          0 USEFUL:          0 USELESS:          0
LLC AVERAGE MISS LATENCY: 1995 cycles
cpu0_DTLB TOTAL        ACCESS:   38327464 HIT:   35023163 MISS:    3304301
cpu0_DTLB LOAD         ACCESS:   38327464 HIT:   35023163 MISS:    3304301
cpu0_DTLB RFO          ACCESS:          0 HIT:          0 MISS:          0
cpu0_DTLB PREFETCH     ACCESS:          0 HIT:          0 MISS:          0
cpu0_DTLB WRITE        ACCESS:          0 HIT:          0 MISS:          0
cpu0_DTLB TRANSLATION  ACCESS:          0 HIT:          0 MISS:          0
cpu0_DTLB PREFETCH REQUESTED:          0 ISSUED:          0 USEFUL:          0 USELESS:          0
cpu0_DTLB AVERAGE MISS LATENCY: 425.6 cycles
cpu0_DTLB TOTAL        ACCESS:          0 HIT:          0 MISS:          0
cpu0_DTLB LOAD         ACCESS:          0 HIT:          0 MISS:          0
cpu0_DTLB RFO          ACCESS:          0 HIT:          0 MISS:          0
cpu0_DTLB PREFETCH     ACCESS:          0 HIT:          0 MISS:          0
cpu0_DTLB WRITE        ACCESS:          0 HIT:          0 MISS:          0
cpu0_DTLB TRANSLATION  ACCESS:          0 HIT:          0 MISS:          0
cpu0_DTLB PREFETCH REQUESTED:          0 ISSUED:          0 USEFUL:          0 USELESS:          0
cpu0_DTLB AVERAGE MISS LATENCY: 425.6 cycles
cpu0_DTLB TOTAL        ACCESS:          0 HIT:          0 MISS:          0
cpu0_DTLB LOAD         ACCESS:          0 HIT:          0 MISS:          0
cpu0_DTLB RFO          ACCESS:          0 HIT:          0 MISS:          0
cpu0_DTLB PREFETCH     ACCESS:          0 HIT:          0 MISS:          0
cpu0_DTLB WRITE        ACCESS:          0 HIT:          0 MISS:          0
cpu0_DTLB TRANSLATION  ACCESS:          0 HIT:          0 MISS:          0
cpu0_DTLB PREFETCH REQUESTED:          0 ISSUED:          0 USEFUL:          0 USELESS:          0
cpu0_DTLB AVERAGE MISS LATENCY: 425.6 cycles
cpu0_DTLB TOTAL        ACCESS:          0 HIT:          0 MISS:          0
cpu0_DTLB LOAD         ACCESS:          0 HIT:          0 MISS:          0
cpu0_DTLB RFO          ACCESS:          0 HIT:          0 MISS:          0
cpu0_DTLB PREFETCH     ACCESS:          0 HIT:          0 MISS:          0
cpu0_DTLB WRITE        ACCESS:          0 HIT:          0 MISS:          0
cpu0_DTLB TRANSLATION  ACCESS:          0 HIT:          0 MISS:          0
cpu0_DTLB PREFETCH REQUESTED:          0 ISSUED:          0 USEFUL:          0 USELESS:          0
cpu0_DTLB AVERAGE MISS LATENCY: 425.6 cycles
cpu0_ITLB TOTAL        ACCESS:   10799111 HIT:   10527098 MISS:     272013
cpu0_ITLB LOAD         ACCESS:   10799111 HIT:   10527098 MISS:     272013
cpu0_ITLB RFO          ACCESS:          0 HIT:          0 MISS:          0
cpu0_ITLB PREFETCH     ACCESS:          0 HIT:          0 MISS:          0
cpu0_ITLB WRITE        ACCESS:          0 HIT:          0 MISS:          0
cpu0_ITLB TRANSLATION  ACCESS:          0 HIT:          0 MISS:          0
cpu0_ITLB PREFETCH REQUESTED:          0 ISSUED:          0 USEFUL:          0 USELESS:          0
cpu0_ITLB AVERAGE MISS LATENCY: 29.87 cycles
cpu0_ITLB TOTAL        ACCESS:          0 HIT:          0 MISS:          0
cpu0_ITLB LOAD         ACCESS:          0 HIT:          0 MISS:          0
cpu0_ITLB RFO          ACCESS:          0 HIT:          0 MISS:          0
cpu0_ITLB PREFETCH     ACCESS:          0 HIT:          0 MISS:          0
cpu0_ITLB WRITE        ACCESS:          0 HIT:          0 MISS:          0
cpu0_ITLB TRANSLATION  ACCESS:          0 HIT:          0 MISS:          0
cpu0_ITLB PREFETCH REQUESTED:          0 ISSUED:          0 USEFUL:          0 USELESS:          0
cpu0_ITLB AVERAGE MISS LATENCY: 29.87 cycles
cpu0_ITLB TOTAL        ACCESS:          0 HIT:          0 MISS:          0
cpu0_ITLB LOAD         ACCESS:          0 HIT:          0 MISS:          0
cpu0_ITLB RFO          ACCESS:          0 HIT:          0 MISS:          0
cpu0_ITLB PREFETCH     ACCESS:          0 HIT:          0 MISS:          0
cpu0_ITLB WRITE        ACCESS:          0 HIT:          0 MISS:          0
cpu0_ITLB TRANSLATION  ACCESS:          0 HIT:          0 MISS:          0
cpu0_ITLB PREFETCH REQUESTED:          0 ISSUED:          0 USEFUL:          0 USELESS:          0
cpu0_ITLB AVERAGE MISS LATENCY: 29.87 cycles
cpu0_ITLB TOTAL        ACCESS:          0 HIT:          0 MISS:          0
cpu0_ITLB LOAD         ACCESS:          0 HIT:          0 MISS:          0
cpu0_ITLB RFO          ACCESS:          0 HIT:          0 MISS:          0
cpu0_ITLB PREFETCH     ACCESS:          0 HIT:          0 MISS:          0
cpu0_ITLB WRITE        ACCESS:          0 HIT:          0 MISS:          0
cpu0_ITLB TRANSLATION  ACCESS:          0 HIT:          0 MISS:          0
cpu0_ITLB PREFETCH REQUESTED:          0 ISSUED:          0 USEFUL:          0 USELESS:          0
cpu0_ITLB AVERAGE MISS LATENCY: 29.87 cycles
cpu0_L1D TOTAL        ACCESS:   49868315 HIT:   44889066 MISS:    4979249
cpu0_L1D LOAD         ACCESS:   23027123 HIT:   19924740 MISS:    3102383
cpu0_L1D RFO          ACCESS:          0 HIT:          0 MISS:          0
cpu0_L1D PREFETCH     ACCESS:          0 HIT:          0 MISS:          0
cpu0_L1D WRITE        ACCESS:   25950029 HIT:   24819129 MISS:    1130900
cpu0_L1D TRANSLATION  ACCESS:     891163 HIT:     145197 MISS:     745966
cpu0_L1D PREFETCH REQUESTED:          0 ISSUED:          0 USEFUL:          0 USELESS:          0
cpu0_L1D AVERAGE MISS LATENCY: 1112 cycles
cpu0_L1D TOTAL        ACCESS:          0 HIT:          0 MISS:          0
cpu0_L1D LOAD         ACCESS:          0 HIT:          0 MISS:          0
cpu0_L1D RFO          ACCESS:          0 HIT:          0 MISS:          0
cpu0_L1D PREFETCH     ACCESS:          0 HIT:          0 MISS:          0
cpu0_L1D WRITE        ACCESS:          0 HIT:          0 MISS:          0
cpu0_L1D TRANSLATION  ACCESS:          0 HIT:          0 MISS:          0
cpu0_L1D PREFETCH REQUESTED:          0 ISSUED:          0 USEFUL:          0 USELESS:          0
cpu0_L1D AVERAGE MISS LATENCY: 1112 cycles
cpu0_L1D TOTAL        ACCESS:          0 HIT:          0 MISS:          0
cpu0_L1D LOAD         ACCESS:          0 HIT:          0 MISS:          0
cpu0_L1D RFO          ACCESS:          0 HIT:          0 MISS:          0
cpu0_L1D PREFETCH     ACCESS:          0 HIT:          0 MISS:          0
cpu0_L1D WRITE        ACCESS:          0 HIT:          0 MISS:          0
cpu0_L1D TRANSLATION  ACCESS:          0 HIT:          0 MISS:          0
cpu0_L1D PREFETCH REQUESTED:          0 ISSUED:          0 USEFUL:          0 USELESS:          0
cpu0_L1D AVERAGE MISS LATENCY: 1112 cycles
cpu0_L1D TOTAL        ACCESS:          0 HIT:          0 MISS:          0
cpu0_L1D LOAD         ACCESS:          0 HIT:          0 MISS:          0
cpu0_L1D RFO          ACCESS:          0 HIT:          0 MISS:          0
cpu0_L1D PREFETCH     ACCESS:          0 HIT:          0 MISS:          0
cpu0_L1D WRITE        ACCESS:          0 HIT:          0 MISS:          0
cpu0_L1D TRANSLATION  ACCESS:          0 HIT:          0 MISS:          0
cpu0_L1D PREFETCH REQUESTED:          0 ISSUED:          0 USEFUL:          0 USELESS:          0
cpu0_L1D AVERAGE MISS LATENCY: 1112 cycles
cpu0_L1I TOTAL        ACCESS:   12880964 HIT:   12806925 MISS:      74039
cpu0_L1I LOAD         ACCESS:   12880964 HIT:   12806925 MISS:      74039
cpu0_L1I RFO          ACCESS:          0 HIT:          0 MISS:          0
cpu0_L1I PREFETCH     ACCESS:          0 HIT:          0 MISS:          0
cpu0_L1I WRITE        ACCESS:          0 HIT:          0 MISS:          0
cpu0_L1I TRANSLATION  ACCESS:          0 HIT:          0 MISS:          0
cpu0_L1I PREFETCH REQUESTED:          0 ISSUED:          0 USEFUL:          0 USELESS:          0
cpu0_L1I AVERAGE MISS LATENCY: 255.5 cycles
cpu0_L1I TOTAL        ACCESS:          0 HIT:          0 MISS:          0
cpu0_L1I LOAD         ACCESS:          0 HIT:          0 MISS:          0
cpu0_L1I RFO          ACCESS:          0 HIT:          0 MISS:          0
cpu0_L1I PREFETCH     ACCESS:          0 HIT:          0 MISS:          0
cpu0_L1I WRITE        ACCESS:          0 HIT:          0 MISS:          0
cpu0_L1I TRANSLATION  ACCESS:          0 HIT:          0 MISS:          0
cpu0_L1I PREFETCH REQUESTED:          0 ISSUED:          0 USEFUL:          0 USELESS:          0
cpu0_L1I AVERAGE MISS LATENCY: 255.5 cycles
cpu0_L1I TOTAL        ACCESS:          0 HIT:          0 MISS:          0
cpu0_L1I LOAD         ACCESS:          0 HIT:          0 MISS:          0
cpu0_L1I RFO          ACCESS:          0 HIT:          0 MISS:          0
cpu0_L1I PREFETCH     ACCESS:          0 HIT:          0 MISS:          0
cpu0_L1I WRITE        ACCESS:          0 HIT:          0 MISS:          0
cpu0_L1I TRANSLATION  ACCESS:          0 HIT:          0 MISS:          0
cpu0_L1I PREFETCH REQUESTED:          0 ISSUED:          0 USEFUL:          0 USELESS:          0
cpu0_L1I AVERAGE MISS LATENCY: 255.5 cycles
cpu0_L1I TOTAL        ACCESS:          0 HIT:          0 MISS:          0
cpu0_L1I LOAD         ACCESS:          0 HIT:          0 MISS:          0
cpu0_L1I RFO          ACCESS:          0 HIT:          0 MISS:          0
cpu0_L1I PREFETCH     ACCESS:          0 HIT:          0 MISS:          0
cpu0_L1I WRITE        ACCESS:          0 HIT:          0 MISS:          0
cpu0_L1I TRANSLATION  ACCESS:          0 HIT:          0 MISS:          0
cpu0_L1I PREFETCH REQUESTED:          0 ISSUED:          0 USEFUL:          0 USELESS:          0
cpu0_L1I AVERAGE MISS LATENCY: 255.5 cycles
cpu0_L2C TOTAL        ACCESS:    5081389 HIT:    2509034 MISS:    2572355
cpu0_L2C LOAD         ACCESS:    2539780 HIT:     852012 MISS:    1687768
cpu0_L2C RFO          ACCESS:     365102 HIT:     107645 MISS:     257457
cpu0_L2C PREFETCH     ACCESS:      35581 HIT:       6750 MISS:      28831
cpu0_L2C WRITE        ACCESS:    1395760 HIT:    1393496 MISS:       2264
cpu0_L2C TRANSLATION  ACCESS:     745166 HIT:     149131 MISS:     596035
cpu0_L2C PREFETCH REQUESTED:      35581 ISSUED:      35581 USEFUL:       3223 USELESS:       1879
cpu0_L2C AVERAGE MISS LATENCY: 2189 cycles
cpu0_L2C TOTAL        ACCESS:          0 HIT:          0 MISS:          0
cpu0_L2C LOAD         ACCESS:          0 HIT:          0 MISS:          0
cpu0_L2C RFO          ACCESS:          0 HIT:          0 MISS:          0
cpu0_L2C PREFETCH     ACCESS:          0 HIT:          0 MISS:          0
[...]
cpu2_L2C PREFETCH     ACCESS:          0 HIT:          0 MISS:          0
cpu2_L2C WRITE        ACCESS:          0 HIT:          0 MISS:          0
cpu2_L2C TRANSLATION  ACCESS:          0 HIT:          0 MISS:          0
cpu2_L2C PREFETCH REQUESTED:     940217 ISSUED:     937862 USEFUL:      59398 USELESS:      10850
cpu2_L2C AVERAGE MISS LATENCY: 1369 cycles
cpu2_L2C TOTAL        ACCESS:          0 HIT:          0 MISS:          0
cpu2_L2C LOAD         ACCESS:          0 HIT:          0 MISS:          0
cpu2_L2C RFO          ACCESS:          0 HIT:          0 MISS:          0
cpu2_L2C PREFETCH     ACCESS:          0 HIT:          0 MISS:          0
cpu2_L2C WRITE        ACCESS:          0 HIT:          0 MISS:          0
cpu2_L2C TRANSLATION  ACCESS:          0 HIT:          0 MISS:          0
cpu2_L2C PREFETCH REQUESTED:     940217 ISSUED:     937862 USEFUL:      59398 USELESS:      10850
cpu2_L2C AVERAGE MISS LATENCY: 1369 cycles
cpu2_L2C TOTAL        ACCESS:    8699073 HIT:    8095101 MISS:     603972
cpu2_L2C LOAD         ACCESS:    7783113 HIT:    7437769 MISS:     345344
cpu2_L2C RFO          ACCESS:     204043 HIT:      39903 MISS:     164140
cpu2_L2C PREFETCH     ACCESS:     118481 HIT:      60041 MISS:      58440
cpu2_L2C WRITE        ACCESS:     336020 HIT:     336018 MISS:          2
cpu2_L2C TRANSLATION  ACCESS:     257416 HIT:     221370 MISS:      36046
cpu2_L2C PREFETCH REQUESTED:     940217 ISSUED:     937862 USEFUL:      59398 USELESS:      10850
cpu2_L2C AVERAGE MISS LATENCY: 1369 cycles
cpu2_L2C TOTAL        ACCESS:          0 HIT:          0 MISS:          0
cpu2_L2C LOAD         ACCESS:          0 HIT:          0 MISS:          0
cpu2_L2C RFO          ACCESS:          0 HIT:          0 MISS:          0
cpu2_L2C PREFETCH     ACCESS:          0 HIT:          0 MISS:          0
cpu2_L2C WRITE        ACCESS:          0 HIT:          0 MISS:          0
cpu2_L2C TRANSLATION  ACCESS:          0 HIT:          0 MISS:          0
cpu2_L2C PREFETCH REQUESTED:     940217 ISSUED:     937862 USEFUL:      59398 USELESS:      10850
cpu2_L2C AVERAGE MISS LATENCY: 1369 cycles
cpu2_STLB TOTAL        ACCESS:          0 HIT:          0 MISS:          0
cpu2_STLB LOAD         ACCESS:          0 HIT:          0 MISS:          0
cpu2_STLB RFO          ACCESS:          0 HIT:          0 MISS:          0
cpu2_STLB PREFETCH     ACCESS:          0 HIT:          0 MISS:          0
cpu2_STLB WRITE        ACCESS:          0 HIT:          0 MISS:          0
cpu2_STLB TRANSLATION  ACCESS:          0 HIT:          0 MISS:          0
cpu2_STLB PREFETCH REQUESTED:          0 ISSUED:          0 USEFUL:          0 USELESS:          0
cpu2_STLB AVERAGE MISS LATENCY: 174 cycles
cpu2_STLB TOTAL        ACCESS:          0 HIT:          0 MISS:          0
cpu2_STLB LOAD         ACCESS:          0 HIT:          0 MISS:          0
cpu2_STLB RFO          ACCESS:          0 HIT:          0 MISS:          0
cpu2_STLB PREFETCH     ACCESS:          0 HIT:          0 MISS:          0
cpu2_STLB WRITE        ACCESS:          0 HIT:          0 MISS:          0
cpu2_STLB TRANSLATION  ACCESS:          0 HIT:          0 MISS:          0
cpu2_STLB PREFETCH REQUESTED:          0 ISSUED:          0 USEFUL:          0 USELESS:          0
cpu2_STLB AVERAGE MISS LATENCY: 174 cycles
cpu2_STLB TOTAL        ACCESS:    4511315 HIT:    4242340 MISS:     268975
cpu2_STLB LOAD         ACCESS:    4511315 HIT:    4242340 MISS:     268975
cpu2_STLB RFO          ACCESS:          0 HIT:          0 MISS:          0
cpu2_STLB PREFETCH     ACCESS:          0 HIT:          0 MISS:          0
cpu2_STLB WRITE        ACCESS:          0 HIT:          0 MISS:          0
cpu2_STLB TRANSLATION  ACCESS:          0 HIT:          0 MISS:          0
cpu2_STLB PREFETCH REQUESTED:          0 ISSUED:          0 USEFUL:          0 USELESS:          0
cpu2_STLB AVERAGE MISS LATENCY: 174 cycles
cpu2_STLB TOTAL        ACCESS:          0 HIT:          0 MISS:          0
cpu2_STLB LOAD         ACCESS:          0 HIT:          0 MISS:          0
cpu2_STLB RFO          ACCESS:          0 HIT:          0 MISS:          0
cpu2_STLB PREFETCH     ACCESS:          0 HIT:          0 MISS:          0
cpu2_STLB WRITE        ACCESS:          0 HIT:          0 MISS:          0
cpu2_STLB TRANSLATION  ACCESS:          0 HIT:          0 MISS:          0
cpu2_STLB PREFETCH REQUESTED:          0 ISSUED:          0 USEFUL:          0 USELESS:          0
cpu2_STLB AVERAGE MISS LATENCY: 174 cycles
cpu3_DTLB TOTAL        ACCESS:          0 HIT:          0 MISS:          0
cpu3_DTLB LOAD         ACCESS:          0 HIT:          0 MISS:          0
cpu3_DTLB RFO          ACCESS:          0 HIT:          0 MISS:          0
cpu3_DTLB PREFETCH     ACCESS:          0 HIT:          0 MISS:          0
cpu3_DTLB WRITE        ACCESS:          0 HIT:          0 MISS:          0
cpu3_DTLB TRANSLATION  ACCESS:          0 HIT:          0 MISS:          0
cpu3_DTLB PREFETCH REQUESTED:          0 ISSUED:          0 USEFUL:          0 USELESS:          0
cpu3_DTLB AVERAGE MISS LATENCY: 19.21 cycles
cpu3_DTLB TOTAL        ACCESS:          0 HIT:          0 MISS:          0
cpu3_DTLB LOAD         ACCESS:          0 HIT:          0 MISS:          0
cpu3_DTLB RFO          ACCESS:          0 HIT:          0 MISS:          0
cpu3_DTLB PREFETCH     ACCESS:          0 HIT:          0 MISS:          0
cpu3_DTLB WRITE        ACCESS:          0 HIT:          0 MISS:          0
cpu3_DTLB TRANSLATION  ACCESS:          0 HIT:          0 MISS:          0
cpu3_DTLB PREFETCH REQUESTED:          0 ISSUED:          0 USEFUL:          0 USELESS:          0
cpu3_DTLB AVERAGE MISS LATENCY: 19.21 cycles
cpu3_DTLB TOTAL        ACCESS:          0 HIT:          0 MISS:          0
cpu3_DTLB LOAD         ACCESS:          0 HIT:          0 MISS:          0
cpu3_DTLB RFO          ACCESS:          0 HIT:          0 MISS:          0
cpu3_DTLB PREFETCH     ACCESS:          0 HIT:          0 MISS:          0
cpu3_DTLB WRITE        ACCESS:          0 HIT:          0 MISS:          0
cpu3_DTLB TRANSLATION  ACCESS:          0 HIT:          0 MISS:          0
cpu3_DTLB PREFETCH REQUESTED:          0 ISSUED:          0 USEFUL:          0 USELESS:          0
cpu3_DTLB AVERAGE MISS LATENCY: 19.21 cycles
cpu3_DTLB TOTAL        ACCESS:   17849413 HIT:   17838985 MISS:      10428
cpu3_DTLB LOAD         ACCESS:   17849413 HIT:   17838985 MISS:      10428
cpu3_DTLB RFO          ACCESS:          0 HIT:          0 MISS:          0
cpu3_DTLB PREFETCH     ACCESS:          0 HIT:          0 MISS:          0
cpu3_DTLB WRITE        ACCESS:          0 HIT:          0 MISS:          0
cpu3_DTLB TRANSLATION  ACCESS:          0 HIT:          0 MISS:          0
cpu3_DTLB PREFETCH REQUESTED:          0 ISSUED:          0 USEFUL:          0 USELESS:          0
cpu3_DTLB AVERAGE MISS LATENCY: 19.21 cycles
cpu3_ITLB TOTAL        ACCESS:          0 HIT:          0 MISS:          0
cpu3_ITLB LOAD         ACCESS:          0 HIT:          0 MISS:          0
cpu3_ITLB RFO          ACCESS:          0 HIT:          0 MISS:          0
cpu3_ITLB PREFETCH     ACCESS:          0 HIT:          0 MISS:          0
cpu3_ITLB WRITE        ACCESS:          0 HIT:          0 MISS:          0
cpu3_ITLB TRANSLATION  ACCESS:          0 HIT:          0 MISS:          0
cpu3_ITLB PREFETCH REQUESTED:          0 ISSUED:          0 USEFUL:          0 USELESS:          0
cpu3_ITLB AVERAGE MISS LATENCY: 462 cycles
cpu3_ITLB TOTAL        ACCESS:          0 HIT:          0 MISS:          0
cpu3_ITLB LOAD         ACCESS:          0 HIT:          0 MISS:          0
cpu3_ITLB RFO          ACCESS:          0 HIT:          0 MISS:          0
cpu3_ITLB PREFETCH     ACCESS:          0 HIT:          0 MISS:          0
cpu3_ITLB WRITE        ACCESS:          0 HIT:          0 MISS:          0
cpu3_ITLB TRANSLATION  ACCESS:          0 HIT:          0 MISS:          0
cpu3_ITLB PREFETCH REQUESTED:          0 ISSUED:          0 USEFUL:          0 USELESS:          0
cpu3_ITLB AVERAGE MISS LATENCY: 462 cycles
cpu3_ITLB TOTAL        ACCESS:          0 HIT:          0 MISS:          0
cpu3_ITLB LOAD         ACCESS:          0 HIT:          0 MISS:          0
cpu3_ITLB RFO          ACCESS:          0 HIT:          0 MISS:          0
cpu3_ITLB PREFETCH     ACCESS:          0 HIT:          0 MISS:          0
cpu3_ITLB WRITE        ACCESS:          0 HIT:          0 MISS:          0
cpu3_ITLB TRANSLATION  ACCESS:          0 HIT:          0 MISS:          0
cpu3_ITLB PREFETCH REQUESTED:          0 ISSUED:          0 USEFUL:          0 USELESS:          0
cpu3_ITLB AVERAGE MISS LATENCY: 462 cycles
cpu3_ITLB TOTAL        ACCESS:     494727 HIT:     494727 MISS:          0
cpu3_ITLB LOAD         ACCESS:     494727 HIT:     494727 MISS:          0
cpu3_ITLB RFO          ACCESS:          0 HIT:          0 MISS:          0
cpu3_ITLB PREFETCH     ACCESS:          0 HIT:          0 MISS:          0
cpu3_ITLB WRITE        ACCESS:          0 HIT:          0 MISS:          0
cpu3_ITLB TRANSLATION  ACCESS:          0 HIT:          0 MISS:          0
cpu3_ITLB PREFETCH REQUESTED:          0 ISSUED:          0 USEFUL:          0 USELESS:          0
cpu3_ITLB AVERAGE MISS LATENCY: 462 cycles
cpu3_L1D TOTAL        ACCESS:          0 HIT:          0 MISS:          0
cpu3_L1D LOAD         ACCESS:          0 HIT:          0 MISS:          0
cpu3_L1D RFO          ACCESS:          0 HIT:          0 MISS:          0
cpu3_L1D PREFETCH     ACCESS:          0 HIT:          0 MISS:          0
cpu3_L1D WRITE        ACCESS:          0 HIT:          0 MISS:          0
cpu3_L1D TRANSLATION  ACCESS:          0 HIT:          0 MISS:          0
cpu3_L1D PREFETCH REQUESTED:          0 ISSUED:          0 USEFUL:          0 USELESS:          0
cpu3_L1D AVERAGE MISS LATENCY: 327 cycles
cpu3_L1D TOTAL        ACCESS:          0 HIT:          0 MISS:          0
cpu3_L1D LOAD         ACCESS:          0 HIT:          0 MISS:          0
cpu3_L1D RFO          ACCESS:          0 HIT:          0 MISS:          0
cpu3_L1D PREFETCH     ACCESS:          0 HIT:          0 MISS:          0
cpu3_L1D WRITE        ACCESS:          0 HIT:          0 MISS:          0
cpu3_L1D TRANSLATION  ACCESS:          0 HIT:          0 MISS:          0
cpu3_L1D PREFETCH REQUESTED:          0 ISSUED:          0 USEFUL:          0 USELESS:          0
cpu3_L1D AVERAGE MISS LATENCY: 327 cycles
cpu3_L1D TOTAL        ACCESS:          0 HIT:          0 MISS:          0
cpu3_L1D LOAD         ACCESS:          0 HIT:          0 MISS:          0
cpu3_L1D RFO          ACCESS:          0 HIT:          0 MISS:          0
cpu3_L1D PREFETCH     ACCESS:          0 HIT:          0 MISS:          0
cpu3_L1D WRITE        ACCESS:          0 HIT:          0 MISS:          0
cpu3_L1D TRANSLATION  ACCESS:          0 HIT:          0 MISS:          0
cpu3_L1D PREFETCH REQUESTED:          0 ISSUED:          0 USEFUL:          0 USELESS:          0
cpu3_L1D AVERAGE MISS LATENCY: 327 cycles
cpu3_L1D TOTAL        ACCESS:   21930536 HIT:   21914985 MISS:      15551
cpu3_L1D LOAD         ACCESS:   16367800 HIT:   16365153 MISS:       2647
cpu3_L1D RFO          ACCESS:          0 HIT:          0 MISS:          0
cpu3_L1D PREFETCH     ACCESS:          0 HIT:          0 MISS:          0
cpu3_L1D WRITE        ACCESS:    5562565 HIT:    5549814 MISS:      12751
cpu3_L1D TRANSLATION  ACCESS:        171 HIT:         18 MISS:        153
cpu3_L1D PREFETCH REQUESTED:          0 ISSUED:          0 USEFUL:          0 USELESS:          0
cpu3_L1D AVERAGE MISS LATENCY: 327 cycles
cpu3_L1I TOTAL        ACCESS:          0 HIT:          0 MISS:          0
cpu3_L1I LOAD         ACCESS:          0 HIT:          0 MISS:          0
cpu3_L1I RFO          ACCESS:          0 HIT:          0 MISS:          0
cpu3_L1I PREFETCH     ACCESS:          0 HIT:          0 MISS:          0
cpu3_L1I WRITE        ACCESS:          0 HIT:          0 MISS:          0
cpu3_L1I TRANSLATION  ACCESS:          0 HIT:          0 MISS:          0
cpu3_L1I PREFETCH REQUESTED:          0 ISSUED:          0 USEFUL:          0 USELESS:          0
cpu3_L1I AVERAGE MISS LATENCY: 59.08 cycles
cpu3_L1I TOTAL        ACCESS:          0 HIT:          0 MISS:          0
cpu3_L1I LOAD         ACCESS:          0 HIT:          0 MISS:          0
cpu3_L1I RFO          ACCESS:          0 HIT:          0 MISS:          0
cpu3_L1I PREFETCH     ACCESS:          0 HIT:          0 MISS:          0
cpu3_L1I WRITE        ACCESS:          0 HIT:          0 MISS:          0
cpu3_L1I TRANSLATION  ACCESS:          0 HIT:          0 MISS:          0
cpu3_L1I PREFETCH REQUESTED:          0 ISSUED:          0 USEFUL:          0 USELESS:          0
cpu3_L1I AVERAGE MISS LATENCY: 59.08 cycles
cpu3_L1I TOTAL        ACCESS:          0 HIT:          0 MISS:          0
cpu3_L1I LOAD         ACCESS:          0 HIT:          0 MISS:          0
cpu3_L1I RFO          ACCESS:          0 HIT:          0 MISS:          0
cpu3_L1I PREFETCH     ACCESS:          0 HIT:          0 MISS:          0
cpu3_L1I WRITE        ACCESS:          0 HIT:          0 MISS:          0
cpu3_L1I TRANSLATION  ACCESS:          0 HIT:          0 MISS:          0
cpu3_L1I PREFETCH REQUESTED:          0 ISSUED:          0 USEFUL:          0 USELESS:          0
cpu3_L1I AVERAGE MISS LATENCY: 59.08 cycles
cpu3_L1I TOTAL        ACCESS:     551029 HIT:     549598 MISS:       1431
cpu3_L1I LOAD         ACCESS:     551029 HIT:     549598 MISS:       1431
cpu3_L1I RFO          ACCESS:          0 HIT:          0 MISS:          0
cpu3_L1I PREFETCH     ACCESS:          0 HIT:          0 MISS:          0
cpu3_L1I WRITE        ACCESS:          0 HIT:          0 MISS:          0
cpu3_L1I TRANSLATION  ACCESS:          0 HIT:          0 MISS:          0
cpu3_L1I PREFETCH REQUESTED:          0 ISSUED:          0 USEFUL:          0 USELESS:          0
cpu3_L1I AVERAGE MISS LATENCY: 59.08 cycles
cpu3_L2C TOTAL        ACCESS:          0 HIT:          0 MISS:          0
cpu3_L2C LOAD         ACCESS:          0 HIT:          0 MISS:          0
cpu3_L2C RFO          ACCESS:          0 HIT:          0 MISS:          0
cpu3_L2C PREFETCH     ACCESS:          0 HIT:          0 MISS:          0
cpu3_L2C WRITE        ACCESS:          0 HIT:          0 MISS:          0
cpu3_L2C TRANSLATION  ACCESS:          0 HIT:          0 MISS:          0
cpu3_L2C PREFETCH REQUESTED:   83371173 ISSUED:   67999970 USEFUL:    7531095 USELESS:    1577962
cpu3_L2C AVERAGE MISS LATENCY: 818.5 cycles
cpu3_L2C TOTAL        ACCESS:          0 HIT:          0 MISS:          0
cpu3_L2C LOAD         ACCESS:          0 HIT:          0 MISS:          0
cpu3_L2C RFO          ACCESS:          0 HIT:          0 MISS:          0
cpu3_L2C PREFETCH     ACCESS:          0 HIT:          0 MISS:          0
cpu3_L2C WRITE        ACCESS:          0 HIT:          0 MISS:          0
cpu3_L2C TRANSLATION  ACCESS:          0 HIT:          0 MISS:          0
cpu3_L2C PREFETCH REQUESTED:   83371173 ISSUED:   67999970 USEFUL:    7531095 USELESS:    1577962
cpu3_L2C AVERAGE MISS LATENCY: 818.5 cycles
cpu3_L2C TOTAL        ACCESS:          0 HIT:          0 MISS:          0
cpu3_L2C LOAD         ACCESS:          0 HIT:          0 MISS:          0
cpu3_L2C RFO          ACCESS:          0 HIT:          0 MISS:          0
cpu3_L2C PREFETCH     ACCESS:          0 HIT:          0 MISS:          0
cpu3_L2C WRITE        ACCESS:          0 HIT:          0 MISS:          0
cpu3_L2C TRANSLATION  ACCESS:          0 HIT:          0 MISS:          0
cpu3_L2C PREFETCH REQUESTED:   83371173 ISSUED:   67999970 USEFUL:    7531095 USELESS:    1577962
cpu3_L2C AVERAGE MISS LATENCY: 818.5 cycles
cpu3_L2C TOTAL        ACCESS:      11431 HIT:       5515 MISS:       5916
cpu3_L2C LOAD         ACCESS:       2786 HIT:       1836 MISS:        950
cpu3_L2C RFO          ACCESS:       2553 HIT:        105 MISS:       2448
cpu3_L2C PREFETCH     ACCESS:       2886 HIT:        470 MISS:       2416
cpu3_L2C WRITE        ACCESS:       3053 HIT:       3046 MISS:          7
cpu3_L2C TRANSLATION  ACCESS:        153 HIT:         58 MISS:         95
cpu3_L2C PREFETCH REQUESTED:   83371173 ISSUED:   67999970 USEFUL:    7531095 USELESS:    1577962
cpu3_L2C AVERAGE MISS LATENCY: 818.5 cycles
cpu3_STLB TOTAL        ACCESS:          0 HIT:          0 MISS:          0
cpu3_STLB LOAD         ACCESS:          0 HIT:          0 MISS:          0
cpu3_STLB RFO          ACCESS:          0 HIT:          0 MISS:          0
cpu3_STLB PREFETCH     ACCESS:          0 HIT:          0 MISS:          0
cpu3_STLB WRITE        ACCESS:          0 HIT:          0 MISS:          0
cpu3_STLB TRANSLATION  ACCESS:          0 HIT:          0 MISS:          0
cpu3_STLB PREFETCH REQUESTED:          0 ISSUED:          0 USEFUL:          0 USELESS:          0
cpu3_STLB AVERAGE MISS LATENCY: 325.7 cycles
cpu3_STLB TOTAL        ACCESS:          0 HIT:          0 MISS:          0
cpu3_STLB LOAD         ACCESS:          0 HIT:          0 MISS:          0
cpu3_STLB RFO          ACCESS:          0 HIT:          0 MISS:          0
cpu3_STLB PREFETCH     ACCESS:          0 HIT:          0 MISS:          0
cpu3_STLB WRITE        ACCESS:          0 HIT:          0 MISS:          0
cpu3_STLB TRANSLATION  ACCESS:          0 HIT:          0 MISS:          0
cpu3_STLB PREFETCH REQUESTED:          0 ISSUED:          0 USEFUL:          0 USELESS:          0
cpu3_STLB AVERAGE MISS LATENCY: 325.7 cycles
cpu3_STLB TOTAL        ACCESS:          0 HIT:          0 MISS:          0
cpu3_STLB LOAD         ACCESS:          0 HIT:          0 MISS:          0
cpu3_STLB RFO          ACCESS:          0 HIT:          0 MISS:          0
cpu3_STLB PREFETCH     ACCESS:          0 HIT:          0 MISS:          0
cpu3_STLB WRITE        ACCESS:          0 HIT:          0 MISS:          0
cpu3_STLB TRANSLATION  ACCESS:          0 HIT:          0 MISS:          0
cpu3_STLB PREFETCH REQUESTED:          0 ISSUED:          0 USEFUL:          0 USELESS:          0
cpu3_STLB AVERAGE MISS LATENCY: 325.7 cycles
cpu3_STLB TOTAL        ACCESS:       9189 HIT:       9019 MISS:        170
cpu3_STLB LOAD         ACCESS:       9189 HIT:       9019 MISS:        170
cpu3_STLB RFO          ACCESS:          0 HIT:          0 MISS:          0
cpu3_STLB PREFETCH     ACCESS:          0 HIT:          0 MISS:          0
cpu3_STLB WRITE        ACCESS:          0 HIT:          0 MISS:          0
cpu3_STLB TRANSLATION  ACCESS:          0 HIT:          0 MISS:          0
cpu3_STLB PREFETCH REQUESTED:          0 ISSUED:          0 USEFUL:          0 USELESS:          0
cpu3_STLB AVERAGE MISS LATENCY: 325.7 cycles

DRAM Statistics

Channel 0 RQ ROW_BUFFER_HIT:    4779760
  ROW_BUFFER_MISS:   21734797
 AVG DBUS CONGESTED CYCLE: 3.993
WQ ROW_BUFFER_HIT: Channel 0 
  ROW_BUFFER_MISS:     478956
  FULL:   16466263
BERTI TO_L1: 123246186 TO_L2: 66739049 TO_L2_BC_MSHR: 2141680
BERTI AVG_LAT: 2002.1 NUM_TRACK_LATENCY: 27158354 NUM_CANT_TRACK_LATENCY: 3133536
BERTI CROSS_PAGE 28397155 NO_CROSS_PAGE: 161588080
BERTI FOUND_BERTI: 98850189 NO_FOUND_BERTI: 11058118
BERTI AVERAGE_ISSUED: 6.27248
BERTI TO_L1: 123246186 TO_L2: 66739049 TO_L2_BC_MSHR: 2141680
BERTI AVG_LAT: 2002.1 NUM_TRACK_LATENCY: 27158354 NUM_CANT_TRACK_LATENCY: 3133536
BERTI CROSS_PAGE 28397155 NO_CROSS_PAGE: 161588080
BERTI FOUND_BERTI: 98850189 NO_FOUND_BERTI: 11058118
BERTI AVERAGE_ISSUED: 6.27248
BERTI TO_L1: 123246186 TO_L2: 66739049 TO_L2_BC_MSHR: 2141680
BERTI AVG_LAT: 2002.1 NUM_TRACK_LATENCY: 27158354 NUM_CANT_TRACK_LATENCY: 3133536
BERTI CROSS_PAGE 28397155 NO_CROSS_PAGE: 161588080
BERTI FOUND_BERTI: 98850189 NO_FOUND_BERTI: 11058118
BERTI AVERAGE_ISSUED: 6.27248
BERTI TO_L1: 123246186 TO_L2: 66739049 TO_L2_BC_MSHR: 2141680
BERTI AVG_LAT: 2002.1 NUM_TRACK_LATENCY: 27158354 NUM_CANT_TRACK_LATENCY: 3133536
BERTI CROSS_PAGE 28397155 NO_CROSS_PAGE: 161588080
BERTI FOUND_BERTI: 98850189 NO_FOUND_BERTI: 11058118
BERTI AVERAGE_ISSUED: 6.27248
