WARNING: physical memory size is smaller than virtual memory size.
WARNING: option --warmup_instructions is deprecated. Use --warmup-instructions instead.
WARNING: option --simulation_instructions is deprecated. Use --simulation-instructions instead.

*** ChampSim Multicore Out-of-Order Simulator ***
Warmup Instructions: 50000000
Simulation Instructions: 150000000
Number of CPUs: 4
Page size: 4096

Berti Prefetcher
BERTI HASH ORIGINAL
BERTI IP MASK ffff
Berti Prefetcher
BERTI HASH ORIGINAL
BERTI IP MASK ffff
Berti Prefetcher
BERTI HASH ORIGINAL
BERTI IP MASK ffff
Berti Prefetcher
BERTI HASH ORIGINAL
BERTI IP MASK ffff
Off-chip DRAM Size: 4 GiB Channels: 1 Width: 64-bit Data Race: 3200 MT/s
Heartbeat CPU 1 instructions: 10000003 cycles: 2521875 heartbeat IPC: 3.965 cumulative IPC: 3.965 (Simulation time: 00 hr 02 min 24 sec)
Heartbeat CPU 3 instructions: 10000002 cycles: 3381347 heartbeat IPC: 2.957 cumulative IPC: 2.957 (Simulation time: 00 hr 03 min 16 sec)
Heartbeat CPU 2 instructions: 10000002 cycles: 3767339 heartbeat IPC: 2.654 cumulative IPC: 2.654 (Simulation time: 00 hr 03 min 40 sec)
Heartbeat CPU 0 instructions: 10000004 cycles: 4174369 heartbeat IPC: 2.396 cumulative IPC: 2.396 (Simulation time: 00 hr 04 min 04 sec)
Heartbeat CPU 1 instructions: 20000001 cycles: 5038237 heartbeat IPC: 3.974 cumulative IPC: 3.97 (Simulation time: 00 hr 04 min 56 sec)
Heartbeat CPU 3 instructions: 20000001 cycles: 6755343 heartbeat IPC: 2.964 cumulative IPC: 2.961 (Simulation time: 00 hr 06 min 39 sec)
Heartbeat CPU 2 instructions: 20000001 cycles: 7535219 heartbeat IPC: 2.654 cumulative IPC: 2.654 (Simulation time: 00 hr 07 min 26 sec)
Heartbeat CPU 1 instructions: 30000001 cycles: 7553266 heartbeat IPC: 3.976 cumulative IPC: 3.972 (Simulation time: 00 hr 07 min 27 sec)
Heartbeat CPU 0 instructions: 20000003 cycles: 8347181 heartbeat IPC: 2.396 cumulative IPC: 2.396 (Simulation time: 00 hr 08 min 13 sec)
Heartbeat CPU 1 instructions: 40000003 cycles: 10077277 heartbeat IPC: 3.962 cumulative IPC: 3.969 (Simulation time: 00 hr 09 min 57 sec)
Heartbeat CPU 3 instructions: 30000002 cycles: 10113416 heartbeat IPC: 2.978 cumulative IPC: 2.966 (Simulation time: 00 hr 09 min 59 sec)
Heartbeat CPU 2 instructions: 30000001 cycles: 11301758 heartbeat IPC: 2.655 cumulative IPC: 2.654 (Simulation time: 00 hr 11 min 09 sec)
Heartbeat CPU 0 instructions: 30000001 cycles: 12519705 heartbeat IPC: 2.397 cumulative IPC: 2.396 (Simulation time: 00 hr 12 min 24 sec)
Heartbeat CPU 1 instructions: 50000000 cycles: 12599099 heartbeat IPC: 3.965 cumulative IPC: 3.969 (Simulation time: 00 hr 12 min 28 sec)
Warmup finished CPU 1 instructions: 50000000 cycles: 12599100 cumulative IPC: 3.969 (Simulation time: 00 hr 12 min 28 sec)
Heartbeat CPU 3 instructions: 40000000 cycles: 13504479 heartbeat IPC: 2.949 cumulative IPC: 2.962 (Simulation time: 00 hr 13 min 21 sec)
Heartbeat CPU 2 instructions: 40000000 cycles: 15069641 heartbeat IPC: 2.654 cumulative IPC: 2.654 (Simulation time: 00 hr 14 min 53 sec)
Heartbeat CPU 1 instructions: 60000002 cycles: 15124094 heartbeat IPC: 3.96 cumulative IPC: 3.967 (Simulation time: 00 hr 14 min 56 sec)
Heartbeat CPU 0 instructions: 40000000 cycles: 16706550 heartbeat IPC: 2.388 cumulative IPC: 2.394 (Simulation time: 00 hr 16 min 24 sec)
Heartbeat CPU 3 instructions: 50000002 cycles: 16901378 heartbeat IPC: 2.944 cumulative IPC: 2.958 (Simulation time: 00 hr 16 min 35 sec)
Warmup finished CPU 3 instructions: 50000002 cycles: 16901379 cumulative IPC: 2.958 (Simulation time: 00 hr 16 min 35 sec)
Heartbeat CPU 1 instructions: 70000000 cycles: 17648868 heartbeat IPC: 3.961 cumulative IPC: 3.966 (Simulation time: 00 hr 17 min 17 sec)
Heartbeat CPU 2 instructions: 50000002 cycles: 18837482 heartbeat IPC: 2.654 cumulative IPC: 2.654 (Simulation time: 00 hr 18 min 28 sec)
Warmup finished CPU 2 instructions: 50000002 cycles: 18837483 cumulative IPC: 2.654 (Simulation time: 00 hr 18 min 28 sec)
Heartbeat CPU 1 instructions: 80000001 cycles: 20174084 heartbeat IPC: 3.96 cumulative IPC: 3.965 (Simulation time: 00 hr 19 min 49 sec)
Heartbeat CPU 3 instructions: 60000004 cycles: 20322450 heartbeat IPC: 2.923 cumulative IPC: 2.952 (Simulation time: 00 hr 19 min 58 sec)
Heartbeat CPU 0 instructions: 50000003 cycles: 20873002 heartbeat IPC: 2.4 cumulative IPC: 2.395 (Simulation time: 00 hr 20 min 30 sec)
Warmup finished CPU 0 instructions: 50000003 cycles: 20873003 cumulative IPC: 2.395 (Simulation time: 00 hr 20 min 30 sec)
Warmup complete CPU 0 instructions: 50000003 cycles: 20873003 cumulative IPC: 2.395 (Simulation time: 00 hr 20 min 30 sec)
Warmup complete CPU 1 instructions: 82766952 cycles: 20873003 cumulative IPC: 3.965 (Simulation time: 00 hr 20 min 30 sec)
Warmup complete CPU 2 instructions: 55219941 cycles: 20873003 cumulative IPC: 2.646 (Simulation time: 00 hr 20 min 30 sec)
Warmup complete CPU 3 instructions: 61633633 cycles: 20873003 cumulative IPC: 2.953 (Simulation time: 00 hr 20 min 30 sec)
Heartbeat CPU 1 instructions: 90000001 cycles: 24086747 heartbeat IPC: 2.556 cumulative IPC: 2.251 (Simulation time: 00 hr 22 min 01 sec)
Heartbeat CPU 1 instructions: 100000000 cycles: 28476600 heartbeat IPC: 2.278 cumulative IPC: 2.266 (Simulation time: 00 hr 24 min 11 sec)
Heartbeat CPU 1 instructions: 110000004 cycles: 33068986 heartbeat IPC: 2.178 cumulative IPC: 2.233 (Simulation time: 00 hr 26 min 22 sec)
Heartbeat CPU 1 instructions: 120000001 cycles: 37493469 heartbeat IPC: 2.26 cumulative IPC: 2.24 (Simulation time: 00 hr 28 min 27 sec)
Heartbeat CPU 2 instructions: 60000002 cycles: 37500003 heartbeat IPC: 0.5358 cumulative IPC: 0.2875 (Simulation time: 00 hr 28 min 27 sec)
Heartbeat CPU 1 instructions: 130000000 cycles: 42217642 heartbeat IPC: 2.117 cumulative IPC: 2.213 (Simulation time: 00 hr 30 min 34 sec)
Heartbeat CPU 1 instructions: 140000002 cycles: 46920435 heartbeat IPC: 2.126 cumulative IPC: 2.197 (Simulation time: 00 hr 32 min 39 sec)
Heartbeat CPU 1 instructions: 150000002 cycles: 51517671 heartbeat IPC: 2.175 cumulative IPC: 2.194 (Simulation time: 00 hr 34 min 39 sec)
Heartbeat CPU 1 instructions: 160000001 cycles: 56186955 heartbeat IPC: 2.142 cumulative IPC: 2.187 (Simulation time: 00 hr 36 min 44 sec)
Heartbeat CPU 1 instructions: 170000000 cycles: 60740944 heartbeat IPC: 2.196 cumulative IPC: 2.188 (Simulation time: 00 hr 38 min 44 sec)
Heartbeat CPU 1 instructions: 180000000 cycles: 65422659 heartbeat IPC: 2.136 cumulative IPC: 2.183 (Simulation time: 00 hr 40 min 46 sec)
Heartbeat CPU 1 instructions: 190000000 cycles: 69984131 heartbeat IPC: 2.192 cumulative IPC: 2.183 (Simulation time: 00 hr 42 min 50 sec)
Heartbeat CPU 2 instructions: 70000004 cycles: 72083546 heartbeat IPC: 0.2892 cumulative IPC: 0.2886 (Simulation time: 00 hr 43 min 47 sec)
Heartbeat CPU 1 instructions: 200000004 cycles: 74494150 heartbeat IPC: 2.217 cumulative IPC: 2.186 (Simulation time: 00 hr 44 min 52 sec)
Heartbeat CPU 3 instructions: 70000000 cycles: 74884666 heartbeat IPC: 0.1833 cumulative IPC: 0.1549 (Simulation time: 00 hr 45 min 02 sec)
Heartbeat CPU 1 instructions: 210000001 cycles: 79221413 heartbeat IPC: 2.115 cumulative IPC: 2.181 (Simulation time: 00 hr 46 min 57 sec)
Heartbeat CPU 1 instructions: 220000002 cycles: 84126377 heartbeat IPC: 2.039 cumulative IPC: 2.17 (Simulation time: 00 hr 49 min 10 sec)
Heartbeat CPU 1 instructions: 230000000 cycles: 88763519 heartbeat IPC: 2.157 cumulative IPC: 2.169 (Simulation time: 00 hr 51 min 13 sec)
Simulation finished CPU 1 instructions: 150000002 cycles: 69211437 cumulative IPC: 2.167 (Simulation time: 00 hr 51 min 47 sec)
Heartbeat CPU 1 instructions: 240000001 cycles: 93489157 heartbeat IPC: 2.116 cumulative IPC: 2.165 (Simulation time: 00 hr 53 min 19 sec)
Heartbeat CPU 1 instructions: 250000001 cycles: 98121359 heartbeat IPC: 2.159 cumulative IPC: 2.165 (Simulation time: 00 hr 55 min 25 sec)
Heartbeat CPU 1 instructions: 260000000 cycles: 102766370 heartbeat IPC: 2.153 cumulative IPC: 2.164 (Simulation time: 00 hr 57 min 26 sec)
Heartbeat CPU 2 instructions: 80000004 cycles: 106541470 heartbeat IPC: 0.2902 cumulative IPC: 0.2893 (Simulation time: 00 hr 59 min 09 sec)
Heartbeat CPU 1 instructions: 270000003 cycles: 107479726 heartbeat IPC: 2.122 cumulative IPC: 2.162 (Simulation time: 00 hr 59 min 34 sec)
Heartbeat CPU 1 instructions: 280000000 cycles: 112096086 heartbeat IPC: 2.166 cumulative IPC: 2.162 (Simulation time: 01 hr 01 min 37 sec)
Heartbeat CPU 1 instructions: 290000001 cycles: 116723159 heartbeat IPC: 2.161 cumulative IPC: 2.162 (Simulation time: 01 hr 03 min 43 sec)
Heartbeat CPU 1 instructions: 300000002 cycles: 121348648 heartbeat IPC: 2.162 cumulative IPC: 2.162 (Simulation time: 01 hr 05 min 50 sec)
Heartbeat CPU 1 instructions: 310000003 cycles: 125901718 heartbeat IPC: 2.196 cumulative IPC: 2.164 (Simulation time: 01 hr 08 min 04 sec)
Heartbeat CPU 1 instructions: 320000002 cycles: 130582251 heartbeat IPC: 2.137 cumulative IPC: 2.162 (Simulation time: 01 hr 10 min 22 sec)
Heartbeat CPU 1 instructions: 330000004 cycles: 135362384 heartbeat IPC: 2.092 cumulative IPC: 2.159 (Simulation time: 01 hr 12 min 32 sec)
Heartbeat CPU 3 instructions: 80000004 cycles: 137968626 heartbeat IPC: 0.1585 cumulative IPC: 0.1568 (Simulation time: 01 hr 13 min 40 sec)
Heartbeat CPU 1 instructions: 340000001 cycles: 140062707 heartbeat IPC: 2.128 cumulative IPC: 2.158 (Simulation time: 01 hr 14 min 33 sec)
Heartbeat CPU 2 instructions: 90000000 cycles: 141240872 heartbeat IPC: 0.2882 cumulative IPC: 0.2889 (Simulation time: 01 hr 15 min 04 sec)
Heartbeat CPU 1 instructions: 350000001 cycles: 144848347 heartbeat IPC: 2.09 cumulative IPC: 2.156 (Simulation time: 01 hr 16 min 42 sec)
Heartbeat CPU 1 instructions: 360000004 cycles: 149667922 heartbeat IPC: 2.075 cumulative IPC: 2.153 (Simulation time: 01 hr 18 min 54 sec)
Heartbeat CPU 1 instructions: 370000000 cycles: 154295069 heartbeat IPC: 2.161 cumulative IPC: 2.153 (Simulation time: 01 hr 20 min 57 sec)
Heartbeat CPU 1 instructions: 380000000 cycles: 158911840 heartbeat IPC: 2.166 cumulative IPC: 2.153 (Simulation time: 01 hr 23 min 02 sec)
Heartbeat CPU 1 instructions: 390000000 cycles: 163571949 heartbeat IPC: 2.146 cumulative IPC: 2.153 (Simulation time: 01 hr 25 min 06 sec)
Heartbeat CPU 1 instructions: 400000000 cycles: 168242285 heartbeat IPC: 2.141 cumulative IPC: 2.153 (Simulation time: 01 hr 27 min 15 sec)
Heartbeat CPU 1 instructions: 410000000 cycles: 172789523 heartbeat IPC: 2.199 cumulative IPC: 2.154 (Simulation time: 01 hr 29 min 19 sec)
Heartbeat CPU 2 instructions: 100000000 cycles: 175861304 heartbeat IPC: 0.2888 cumulative IPC: 0.2889 (Simulation time: 01 hr 30 min 41 sec)
Heartbeat CPU 1 instructions: 420000004 cycles: 177393579 heartbeat IPC: 2.172 cumulative IPC: 2.155 (Simulation time: 01 hr 31 min 15 sec)
Heartbeat CPU 1 instructions: 430000002 cycles: 182141600 heartbeat IPC: 2.106 cumulative IPC: 2.153 (Simulation time: 01 hr 33 min 24 sec)
Heartbeat CPU 1 instructions: 440000003 cycles: 186885511 heartbeat IPC: 2.108 cumulative IPC: 2.152 (Simulation time: 01 hr 35 min 37 sec)
Heartbeat CPU 1 instructions: 450000003 cycles: 191483717 heartbeat IPC: 2.175 cumulative IPC: 2.152 (Simulation time: 01 hr 37 min 44 sec)
Heartbeat CPU 1 instructions: 460000003 cycles: 196207644 heartbeat IPC: 2.117 cumulative IPC: 2.152 (Simulation time: 01 hr 39 min 53 sec)
Heartbeat CPU 1 instructions: 470000002 cycles: 200565750 heartbeat IPC: 2.295 cumulative IPC: 2.155 (Simulation time: 01 hr 41 min 57 sec)
Heartbeat CPU 3 instructions: 90000002 cycles: 201015990 heartbeat IPC: 0.1586 cumulative IPC: 0.1575 (Simulation time: 01 hr 42 min 09 sec)
Heartbeat CPU 1 instructions: 480000000 cycles: 205071023 heartbeat IPC: 2.22 cumulative IPC: 2.157 (Simulation time: 01 hr 44 min 00 sec)
Heartbeat CPU 1 instructions: 490000002 cycles: 209426430 heartbeat IPC: 2.296 cumulative IPC: 2.16 (Simulation time: 01 hr 46 min 06 sec)
Heartbeat CPU 2 instructions: 110000003 cycles: 210623574 heartbeat IPC: 0.2877 cumulative IPC: 0.2887 (Simulation time: 01 hr 46 min 40 sec)
Heartbeat CPU 1 instructions: 500000000 cycles: 213883695 heartbeat IPC: 2.244 cumulative IPC: 2.162 (Simulation time: 01 hr 48 min 05 sec)
Heartbeat CPU 1 instructions: 510000004 cycles: 218246037 heartbeat IPC: 2.292 cumulative IPC: 2.165 (Simulation time: 01 hr 50 min 02 sec)
Heartbeat CPU 1 instructions: 520000000 cycles: 222660542 heartbeat IPC: 2.265 cumulative IPC: 2.167 (Simulation time: 01 hr 51 min 57 sec)
Heartbeat CPU 1 instructions: 530000002 cycles: 232610994 heartbeat IPC: 1.005 cumulative IPC: 2.112 (Simulation time: 01 hr 56 min 06 sec)
Heartbeat CPU 1 instructions: 540000003 cycles: 240783196 heartbeat IPC: 1.224 cumulative IPC: 2.079 (Simulation time: 01 hr 59 min 31 sec)
Heartbeat CPU 1 instructions: 550000001 cycles: 245135343 heartbeat IPC: 2.298 cumulative IPC: 2.083 (Simulation time: 02 hr 01 min 27 sec)
Heartbeat CPU 2 instructions: 120000004 cycles: 248212903 heartbeat IPC: 0.266 cumulative IPC: 0.2849 (Simulation time: 02 hr 02 min 44 sec)
Heartbeat CPU 1 instructions: 560000002 cycles: 249605446 heartbeat IPC: 2.237 cumulative IPC: 2.086 (Simulation time: 02 hr 03 min 20 sec)
Heartbeat CPU 1 instructions: 570000001 cycles: 253966577 heartbeat IPC: 2.293 cumulative IPC: 2.09 (Simulation time: 02 hr 05 min 18 sec)
Heartbeat CPU 1 instructions: 580000001 cycles: 258371840 heartbeat IPC: 2.27 cumulative IPC: 2.094 (Simulation time: 02 hr 07 min 18 sec)
Heartbeat CPU 1 instructions: 590000002 cycles: 262654678 heartbeat IPC: 2.335 cumulative IPC: 2.098 (Simulation time: 02 hr 09 min 05 sec)
Heartbeat CPU 1 instructions: 600000000 cycles: 266923313 heartbeat IPC: 2.343 cumulative IPC: 2.102 (Simulation time: 02 hr 10 min 50 sec)
Heartbeat CPU 3 instructions: 100000003 cycles: 267091900 heartbeat IPC: 0.1513 cumulative IPC: 0.1558 (Simulation time: 02 hr 10 min 55 sec)
Heartbeat CPU 1 instructions: 610000000 cycles: 271294929 heartbeat IPC: 2.287 cumulative IPC: 2.105 (Simulation time: 02 hr 12 min 47 sec)
Heartbeat CPU 0 instructions: 60000000 cycles: 274319178 heartbeat IPC: 0.03946 cumulative IPC: 0.03946 (Simulation time: 02 hr 14 min 06 sec)
Heartbeat CPU 1 instructions: 620000000 cycles: 275731240 heartbeat IPC: 2.254 cumulative IPC: 2.108 (Simulation time: 02 hr 14 min 49 sec)
Heartbeat CPU 1 instructions: 630000001 cycles: 280214330 heartbeat IPC: 2.231 cumulative IPC: 2.11 (Simulation time: 02 hr 16 min 45 sec)
Heartbeat CPU 2 instructions: 130000004 cycles: 282270299 heartbeat IPC: 0.2936 cumulative IPC: 0.2861 (Simulation time: 02 hr 17 min 39 sec)
Heartbeat CPU 1 instructions: 640000001 cycles: 284586596 heartbeat IPC: 2.287 cumulative IPC: 2.113 (Simulation time: 02 hr 18 min 41 sec)
Heartbeat CPU 1 instructions: 650000000 cycles: 289057689 heartbeat IPC: 2.237 cumulative IPC: 2.115 (Simulation time: 02 hr 20 min 45 sec)
Heartbeat CPU 1 instructions: 660000002 cycles: 293577691 heartbeat IPC: 2.212 cumulative IPC: 2.117 (Simulation time: 02 hr 22 min 42 sec)
Heartbeat CPU 1 instructions: 670000001 cycles: 298184364 heartbeat IPC: 2.171 cumulative IPC: 2.118 (Simulation time: 02 hr 24 min 38 sec)
Heartbeat CPU 1 instructions: 680000002 cycles: 302931484 heartbeat IPC: 2.107 cumulative IPC: 2.117 (Simulation time: 02 hr 26 min 36 sec)
Heartbeat CPU 1 instructions: 690000001 cycles: 307538408 heartbeat IPC: 2.171 cumulative IPC: 2.118 (Simulation time: 02 hr 28 min 30 sec)
Heartbeat CPU 1 instructions: 700000000 cycles: 312245833 heartbeat IPC: 2.124 cumulative IPC: 2.118 (Simulation time: 02 hr 30 min 27 sec)
Heartbeat CPU 1 instructions: 710000002 cycles: 316904012 heartbeat IPC: 2.147 cumulative IPC: 2.119 (Simulation time: 02 hr 32 min 21 sec)
Heartbeat CPU 2 instructions: 140000002 cycles: 317038911 heartbeat IPC: 0.2876 cumulative IPC: 0.2863 (Simulation time: 02 hr 32 min 24 sec)
Heartbeat CPU 1 instructions: 720000004 cycles: 321662503 heartbeat IPC: 2.102 cumulative IPC: 2.119 (Simulation time: 02 hr 34 min 31 sec)
Heartbeat CPU 1 instructions: 730000002 cycles: 326366693 heartbeat IPC: 2.126 cumulative IPC: 2.119 (Simulation time: 02 hr 36 min 23 sec)
Heartbeat CPU 3 instructions: 110000002 cycles: 329403196 heartbeat IPC: 0.1605 cumulative IPC: 0.1568 (Simulation time: 02 hr 37 min 40 sec)
Heartbeat CPU 1 instructions: 740000004 cycles: 331024855 heartbeat IPC: 2.147 cumulative IPC: 2.119 (Simulation time: 02 hr 38 min 20 sec)
Heartbeat CPU 1 instructions: 750000001 cycles: 335832310 heartbeat IPC: 2.08 cumulative IPC: 2.118 (Simulation time: 02 hr 40 min 28 sec)
Heartbeat CPU 1 instructions: 760000000 cycles: 340513372 heartbeat IPC: 2.136 cumulative IPC: 2.119 (Simulation time: 02 hr 42 min 31 sec)
Heartbeat CPU 1 instructions: 770000002 cycles: 345099499 heartbeat IPC: 2.18 cumulative IPC: 2.12 (Simulation time: 02 hr 44 min 52 sec)
Heartbeat CPU 1 instructions: 780000002 cycles: 349672841 heartbeat IPC: 2.187 cumulative IPC: 2.121 (Simulation time: 02 hr 46 min 54 sec)
Heartbeat CPU 2 instructions: 150000004 cycles: 352241757 heartbeat IPC: 0.2841 cumulative IPC: 0.286 (Simulation time: 02 hr 48 min 10 sec)
Heartbeat CPU 1 instructions: 790000002 cycles: 354257596 heartbeat IPC: 2.181 cumulative IPC: 2.121 (Simulation time: 02 hr 49 min 05 sec)
Heartbeat CPU 1 instructions: 800000001 cycles: 358839326 heartbeat IPC: 2.183 cumulative IPC: 2.122 (Simulation time: 02 hr 51 min 13 sec)
Heartbeat CPU 1 instructions: 810000000 cycles: 363469591 heartbeat IPC: 2.16 cumulative IPC: 2.123 (Simulation time: 02 hr 53 min 26 sec)
Heartbeat CPU 1 instructions: 820000000 cycles: 368045691 heartbeat IPC: 2.185 cumulative IPC: 2.124 (Simulation time: 02 hr 55 min 26 sec)
Heartbeat CPU 1 instructions: 830000004 cycles: 372638979 heartbeat IPC: 2.177 cumulative IPC: 2.124 (Simulation time: 02 hr 57 min 30 sec)
Heartbeat CPU 1 instructions: 840000003 cycles: 377295553 heartbeat IPC: 2.148 cumulative IPC: 2.125 (Simulation time: 02 hr 59 min 24 sec)
Heartbeat CPU 1 instructions: 850000001 cycles: 381827273 heartbeat IPC: 2.207 cumulative IPC: 2.126 (Simulation time: 03 hr 01 min 27 sec)
Heartbeat CPU 1 instructions: 860000003 cycles: 386381939 heartbeat IPC: 2.196 cumulative IPC: 2.126 (Simulation time: 03 hr 03 min 30 sec)
Heartbeat CPU 2 instructions: 160000004 cycles: 386902626 heartbeat IPC: 0.2885 cumulative IPC: 0.2863 (Simulation time: 03 hr 03 min 44 sec)
Heartbeat CPU 1 instructions: 870000003 cycles: 390986420 heartbeat IPC: 2.172 cumulative IPC: 2.127 (Simulation time: 03 hr 05 min 29 sec)
Heartbeat CPU 3 instructions: 120000003 cycles: 392718664 heartbeat IPC: 0.1579 cumulative IPC: 0.157 (Simulation time: 03 hr 06 min 16 sec)
Heartbeat CPU 1 instructions: 880000000 cycles: 395608496 heartbeat IPC: 2.164 cumulative IPC: 2.127 (Simulation time: 03 hr 07 min 28 sec)
Heartbeat CPU 1 instructions: 890000004 cycles: 400257487 heartbeat IPC: 2.151 cumulative IPC: 2.128 (Simulation time: 03 hr 09 min 24 sec)
Heartbeat CPU 1 instructions: 900000000 cycles: 404833482 heartbeat IPC: 2.185 cumulative IPC: 2.128 (Simulation time: 03 hr 11 min 12 sec)
Heartbeat CPU 1 instructions: 910000003 cycles: 409483631 heartbeat IPC: 2.15 cumulative IPC: 2.129 (Simulation time: 03 hr 13 min 09 sec)
Heartbeat CPU 1 instructions: 920000001 cycles: 414040377 heartbeat IPC: 2.195 cumulative IPC: 2.129 (Simulation time: 03 hr 15 min 11 sec)
Heartbeat CPU 1 instructions: 930000001 cycles: 418705500 heartbeat IPC: 2.144 cumulative IPC: 2.13 (Simulation time: 03 hr 17 min 14 sec)
Heartbeat CPU 2 instructions: 170000000 cycles: 421705074 heartbeat IPC: 0.2873 cumulative IPC: 0.2864 (Simulation time: 03 hr 18 min 30 sec)
Heartbeat CPU 1 instructions: 940000000 cycles: 423443308 heartbeat IPC: 2.111 cumulative IPC: 2.129 (Simulation time: 03 hr 19 min 12 sec)
Heartbeat CPU 1 instructions: 950000000 cycles: 428133159 heartbeat IPC: 2.132 cumulative IPC: 2.129 (Simulation time: 03 hr 21 min 11 sec)
Heartbeat CPU 1 instructions: 960000003 cycles: 432846352 heartbeat IPC: 2.122 cumulative IPC: 2.129 (Simulation time: 03 hr 23 min 06 sec)
Heartbeat CPU 1 instructions: 970000001 cycles: 437438105 heartbeat IPC: 2.178 cumulative IPC: 2.13 (Simulation time: 03 hr 25 min 05 sec)
Heartbeat CPU 1 instructions: 980000000 cycles: 442162253 heartbeat IPC: 2.117 cumulative IPC: 2.13 (Simulation time: 03 hr 26 min 57 sec)
Heartbeat CPU 1 instructions: 990000002 cycles: 446772504 heartbeat IPC: 2.169 cumulative IPC: 2.13 (Simulation time: 03 hr 28 min 43 sec)
Heartbeat CPU 1 instructions: 1000000004 cycles: 451432731 heartbeat IPC: 2.146 cumulative IPC: 2.13 (Simulation time: 03 hr 30 min 30 sec)
Heartbeat CPU 3 instructions: 130000000 cycles: 454577324 heartbeat IPC: 0.1617 cumulative IPC: 0.1576 (Simulation time: 03 hr 31 min 47 sec)
Heartbeat CPU 1 instructions: 1010000000 cycles: 456097216 heartbeat IPC: 2.144 cumulative IPC: 2.13 (Simulation time: 03 hr 32 min 25 sec)
Heartbeat CPU 2 instructions: 180000001 cycles: 456582057 heartbeat IPC: 0.2867 cumulative IPC: 0.2864 (Simulation time: 03 hr 32 min 36 sec)
Heartbeat CPU 1 instructions: 1020000002 cycles: 460657946 heartbeat IPC: 2.193 cumulative IPC: 2.131 (Simulation time: 03 hr 34 min 14 sec)
Heartbeat CPU 1 instructions: 1030000004 cycles: 465188120 heartbeat IPC: 2.207 cumulative IPC: 2.132 (Simulation time: 03 hr 36 min 08 sec)
Heartbeat CPU 1 instructions: 1040000001 cycles: 469681297 heartbeat IPC: 2.226 cumulative IPC: 2.133 (Simulation time: 03 hr 38 min 07 sec)
Heartbeat CPU 1 instructions: 1050000004 cycles: 473987096 heartbeat IPC: 2.322 cumulative IPC: 2.135 (Simulation time: 03 hr 40 min 09 sec)
Heartbeat CPU 1 instructions: 1060000001 cycles: 478341289 heartbeat IPC: 2.297 cumulative IPC: 2.136 (Simulation time: 03 hr 42 min 08 sec)
Heartbeat CPU 1 instructions: 1070000000 cycles: 482771746 heartbeat IPC: 2.257 cumulative IPC: 2.137 (Simulation time: 03 hr 44 min 12 sec)
Heartbeat CPU 1 instructions: 1080000000 cycles: 487246605 heartbeat IPC: 2.235 cumulative IPC: 2.138 (Simulation time: 03 hr 46 min 14 sec)
Heartbeat CPU 2 instructions: 190000003 cycles: 490745848 heartbeat IPC: 0.2927 cumulative IPC: 0.2868 (Simulation time: 03 hr 47 min 49 sec)
Heartbeat CPU 1 instructions: 1090000000 cycles: 491551892 heartbeat IPC: 2.323 cumulative IPC: 2.14 (Simulation time: 03 hr 48 min 10 sec)
Heartbeat CPU 1 instructions: 1100000000 cycles: 495839880 heartbeat IPC: 2.332 cumulative IPC: 2.142 (Simulation time: 03 hr 50 min 00 sec)
Heartbeat CPU 1 instructions: 1110000001 cycles: 500302955 heartbeat IPC: 2.241 cumulative IPC: 2.143 (Simulation time: 03 hr 51 min 58 sec)
Heartbeat CPU 1 instructions: 1120000004 cycles: 504627118 heartbeat IPC: 2.313 cumulative IPC: 2.144 (Simulation time: 03 hr 54 min 07 sec)
Heartbeat CPU 1 instructions: 1130000000 cycles: 509125077 heartbeat IPC: 2.223 cumulative IPC: 2.145 (Simulation time: 03 hr 56 min 09 sec)
Heartbeat CPU 1 instructions: 1140000002 cycles: 513571189 heartbeat IPC: 2.249 cumulative IPC: 2.146 (Simulation time: 03 hr 58 min 10 sec)
Heartbeat CPU 3 instructions: 140000003 cycles: 515814569 heartbeat IPC: 0.1633 cumulative IPC: 0.1583 (Simulation time: 03 hr 59 min 10 sec)
Heartbeat CPU 1 instructions: 1150000000 cycles: 517852769 heartbeat IPC: 2.336 cumulative IPC: 2.147 (Simulation time: 04 hr 00 min 07 sec)
Heartbeat CPU 0 instructions: 70000002 cycles: 521568048 heartbeat IPC: 0.04045 cumulative IPC: 0.03994 (Simulation time: 04 hr 01 min 45 sec)
Heartbeat CPU 2 instructions: 200000002 cycles: 526517570 heartbeat IPC: 0.2796 cumulative IPC: 0.2863 (Simulation time: 04 hr 03 min 50 sec)
Heartbeat CPU 1 instructions: 1160000001 cycles: 531426188 heartbeat IPC: 0.7367 cumulative IPC: 2.11 (Simulation time: 04 hr 05 min 55 sec)
Heartbeat CPU 1 instructions: 1170000004 cycles: 535972522 heartbeat IPC: 2.2 cumulative IPC: 2.111 (Simulation time: 04 hr 07 min 56 sec)
Heartbeat CPU 1 instructions: 1180000001 cycles: 540292576 heartbeat IPC: 2.315 cumulative IPC: 2.112 (Simulation time: 04 hr 09 min 50 sec)
Heartbeat CPU 1 instructions: 1190000001 cycles: 544729167 heartbeat IPC: 2.254 cumulative IPC: 2.114 (Simulation time: 04 hr 11 min 47 sec)
Simulation finished CPU 2 instructions: 150000001 cycles: 524513641 cumulative IPC: 0.286 (Simulation time: 04 hr 12 min 00 sec)
Heartbeat CPU 1 instructions: 1200000001 cycles: 549026041 heartbeat IPC: 2.327 cumulative IPC: 2.115 (Simulation time: 04 hr 13 min 42 sec)
Heartbeat CPU 1 instructions: 1210000002 cycles: 553323635 heartbeat IPC: 2.327 cumulative IPC: 2.117 (Simulation time: 04 hr 15 min 31 sec)
Heartbeat CPU 1 instructions: 1220000003 cycles: 557773055 heartbeat IPC: 2.247 cumulative IPC: 2.118 (Simulation time: 04 hr 17 min 34 sec)
Heartbeat CPU 2 instructions: 210000002 cycles: 561508767 heartbeat IPC: 0.2858 cumulative IPC: 0.2863 (Simulation time: 04 hr 19 min 16 sec)
Heartbeat CPU 1 instructions: 1230000004 cycles: 562080915 heartbeat IPC: 2.321 cumulative IPC: 2.12 (Simulation time: 04 hr 19 min 35 sec)
Heartbeat CPU 1 instructions: 1240000002 cycles: 566411161 heartbeat IPC: 2.309 cumulative IPC: 2.121 (Simulation time: 04 hr 21 min 29 sec)
Heartbeat CPU 1 instructions: 1250000003 cycles: 570862130 heartbeat IPC: 2.247 cumulative IPC: 2.122 (Simulation time: 04 hr 23 min 19 sec)
Heartbeat CPU 1 instructions: 1260000000 cycles: 575169705 heartbeat IPC: 2.321 cumulative IPC: 2.124 (Simulation time: 04 hr 25 min 10 sec)
Heartbeat CPU 1 instructions: 1270000000 cycles: 579474857 heartbeat IPC: 2.323 cumulative IPC: 2.125 (Simulation time: 04 hr 26 min 55 sec)
Heartbeat CPU 3 instructions: 150000004 cycles: 583001231 heartbeat IPC: 0.1488 cumulative IPC: 0.1572 (Simulation time: 04 hr 28 min 25 sec)
Heartbeat CPU 1 instructions: 1280000001 cycles: 583753963 heartbeat IPC: 2.337 cumulative IPC: 2.127 (Simulation time: 04 hr 28 min 43 sec)
Heartbeat CPU 1 instructions: 1290000003 cycles: 588246646 heartbeat IPC: 2.226 cumulative IPC: 2.128 (Simulation time: 04 hr 30 min 44 sec)
Heartbeat CPU 1 instructions: 1300000001 cycles: 592646626 heartbeat IPC: 2.273 cumulative IPC: 2.129 (Simulation time: 04 hr 32 min 37 sec)
Heartbeat CPU 2 instructions: 220000000 cycles: 595688591 heartbeat IPC: 0.2926 cumulative IPC: 0.2867 (Simulation time: 04 hr 33 min 57 sec)
Heartbeat CPU 1 instructions: 1310000003 cycles: 597184565 heartbeat IPC: 2.204 cumulative IPC: 2.129 (Simulation time: 04 hr 34 min 41 sec)
Heartbeat CPU 1 instructions: 1320000003 cycles: 601747649 heartbeat IPC: 2.192 cumulative IPC: 2.13 (Simulation time: 04 hr 36 min 43 sec)
Heartbeat CPU 1 instructions: 1330000004 cycles: 606309482 heartbeat IPC: 2.192 cumulative IPC: 2.13 (Simulation time: 04 hr 38 min 37 sec)
Heartbeat CPU 1 instructions: 1340000000 cycles: 610868240 heartbeat IPC: 2.194 cumulative IPC: 2.131 (Simulation time: 04 hr 40 min 35 sec)
Heartbeat CPU 1 instructions: 1350000002 cycles: 615492773 heartbeat IPC: 2.162 cumulative IPC: 2.131 (Simulation time: 04 hr 42 min 32 sec)
Heartbeat CPU 1 instructions: 1360000003 cycles: 620093234 heartbeat IPC: 2.174 cumulative IPC: 2.131 (Simulation time: 04 hr 44 min 33 sec)
Heartbeat CPU 1 instructions: 1370000003 cycles: 624751430 heartbeat IPC: 2.147 cumulative IPC: 2.132 (Simulation time: 04 hr 46 min 38 sec)
Heartbeat CPU 1 instructions: 1380000002 cycles: 629340613 heartbeat IPC: 2.179 cumulative IPC: 2.132 (Simulation time: 04 hr 48 min 46 sec)
Heartbeat CPU 2 instructions: 230000000 cycles: 630026748 heartbeat IPC: 0.2912 cumulative IPC: 0.2869 (Simulation time: 04 hr 49 min 01 sec)
Heartbeat CPU 1 instructions: 1390000000 cycles: 634101846 heartbeat IPC: 2.1 cumulative IPC: 2.132 (Simulation time: 04 hr 50 min 53 sec)
Heartbeat CPU 1 instructions: 1400000003 cycles: 638649069 heartbeat IPC: 2.199 cumulative IPC: 2.132 (Simulation time: 04 hr 52 min 54 sec)
Heartbeat CPU 1 instructions: 1410000002 cycles: 643160403 heartbeat IPC: 2.217 cumulative IPC: 2.133 (Simulation time: 04 hr 54 min 50 sec)
Heartbeat CPU 3 instructions: 160000004 cycles: 646434580 heartbeat IPC: 0.1576 cumulative IPC: 0.1572 (Simulation time: 04 hr 56 min 22 sec)
Heartbeat CPU 1 instructions: 1420000003 cycles: 647907616 heartbeat IPC: 2.106 cumulative IPC: 2.133 (Simulation time: 04 hr 57 min 01 sec)
Heartbeat CPU 1 instructions: 1430000000 cycles: 652451376 heartbeat IPC: 2.201 cumulative IPC: 2.133 (Simulation time: 04 hr 59 min 08 sec)
Heartbeat CPU 1 instructions: 1440000000 cycles: 657101915 heartbeat IPC: 2.15 cumulative IPC: 2.133 (Simulation time: 05 hr 01 min 10 sec)
Heartbeat CPU 1 instructions: 1450000001 cycles: 661756307 heartbeat IPC: 2.149 cumulative IPC: 2.133 (Simulation time: 05 hr 03 min 05 sec)
Heartbeat CPU 2 instructions: 240000003 cycles: 665372873 heartbeat IPC: 0.2829 cumulative IPC: 0.2867 (Simulation time: 05 hr 04 min 39 sec)
Heartbeat CPU 1 instructions: 1460000004 cycles: 666275551 heartbeat IPC: 2.213 cumulative IPC: 2.134 (Simulation time: 05 hr 05 min 03 sec)
Heartbeat CPU 1 instructions: 1470000004 cycles: 670861346 heartbeat IPC: 2.181 cumulative IPC: 2.134 (Simulation time: 05 hr 07 min 01 sec)
Heartbeat CPU 1 instructions: 1480000001 cycles: 675446456 heartbeat IPC: 2.181 cumulative IPC: 2.135 (Simulation time: 05 hr 09 min 02 sec)
Heartbeat CPU 1 instructions: 1490000000 cycles: 680014521 heartbeat IPC: 2.189 cumulative IPC: 2.135 (Simulation time: 05 hr 11 min 03 sec)
Heartbeat CPU 1 instructions: 1500000003 cycles: 684578685 heartbeat IPC: 2.191 cumulative IPC: 2.135 (Simulation time: 05 hr 12 min 57 sec)
Heartbeat CPU 1 instructions: 1510000002 cycles: 689150351 heartbeat IPC: 2.187 cumulative IPC: 2.136 (Simulation time: 05 hr 15 min 04 sec)
Heartbeat CPU 1 instructions: 1520000003 cycles: 693779757 heartbeat IPC: 2.16 cumulative IPC: 2.136 (Simulation time: 05 hr 17 min 10 sec)
Heartbeat CPU 1 instructions: 1530000000 cycles: 698348348 heartbeat IPC: 2.189 cumulative IPC: 2.136 (Simulation time: 05 hr 19 min 16 sec)
Heartbeat CPU 2 instructions: 250000003 cycles: 700211890 heartbeat IPC: 0.287 cumulative IPC: 0.2867 (Simulation time: 05 hr 20 min 05 sec)
Heartbeat CPU 1 instructions: 1540000002 cycles: 702896073 heartbeat IPC: 2.199 cumulative IPC: 2.137 (Simulation time: 05 hr 21 min 13 sec)
Heartbeat CPU 1 instructions: 1550000003 cycles: 707491263 heartbeat IPC: 2.176 cumulative IPC: 2.137 (Simulation time: 05 hr 23 min 17 sec)
Heartbeat CPU 3 instructions: 170000002 cycles: 709479944 heartbeat IPC: 0.1586 cumulative IPC: 0.1574 (Simulation time: 05 hr 24 min 11 sec)
Heartbeat CPU 1 instructions: 1560000000 cycles: 712015174 heartbeat IPC: 2.21 cumulative IPC: 2.137 (Simulation time: 05 hr 25 min 16 sec)
Heartbeat CPU 1 instructions: 1570000000 cycles: 716527696 heartbeat IPC: 2.216 cumulative IPC: 2.138 (Simulation time: 05 hr 27 min 14 sec)
Heartbeat CPU 1 instructions: 1580000000 cycles: 721026258 heartbeat IPC: 2.223 cumulative IPC: 2.138 (Simulation time: 05 hr 29 min 16 sec)
Heartbeat CPU 1 instructions: 1590000000 cycles: 725620605 heartbeat IPC: 2.177 cumulative IPC: 2.139 (Simulation time: 05 hr 31 min 10 sec)
Heartbeat CPU 1 instructions: 1600000003 cycles: 730157222 heartbeat IPC: 2.204 cumulative IPC: 2.139 (Simulation time: 05 hr 33 min 04 sec)
Heartbeat CPU 2 instructions: 260000001 cycles: 734561262 heartbeat IPC: 0.2911 cumulative IPC: 0.2869 (Simulation time: 05 hr 34 min 57 sec)
Heartbeat CPU 1 instructions: 1610000001 cycles: 734817049 heartbeat IPC: 2.146 cumulative IPC: 2.139 (Simulation time: 05 hr 35 min 03 sec)
Heartbeat CPU 1 instructions: 1620000000 cycles: 739299157 heartbeat IPC: 2.231 cumulative IPC: 2.14 (Simulation time: 05 hr 36 min 55 sec)
Heartbeat CPU 1 instructions: 1630000000 cycles: 743912668 heartbeat IPC: 2.168 cumulative IPC: 2.14 (Simulation time: 05 hr 38 min 53 sec)
Heartbeat CPU 1 instructions: 1640000001 cycles: 748459362 heartbeat IPC: 2.199 cumulative IPC: 2.14 (Simulation time: 05 hr 40 min 50 sec)
Heartbeat CPU 1 instructions: 1650000001 cycles: 753080896 heartbeat IPC: 2.164 cumulative IPC: 2.14 (Simulation time: 05 hr 42 min 45 sec)
Heartbeat CPU 1 instructions: 1660000004 cycles: 757642564 heartbeat IPC: 2.192 cumulative IPC: 2.141 (Simulation time: 05 hr 44 min 43 sec)
Heartbeat CPU 1 instructions: 1670000003 cycles: 762234658 heartbeat IPC: 2.178 cumulative IPC: 2.141 (Simulation time: 05 hr 46 min 33 sec)
Heartbeat CPU 1 instructions: 1680000000 cycles: 766912786 heartbeat IPC: 2.138 cumulative IPC: 2.141 (Simulation time: 05 hr 48 min 28 sec)
Heartbeat CPU 2 instructions: 270000002 cycles: 769095814 heartbeat IPC: 0.2896 cumulative IPC: 0.2871 (Simulation time: 05 hr 49 min 24 sec)
Heartbeat CPU 1 instructions: 1690000003 cycles: 771492913 heartbeat IPC: 2.183 cumulative IPC: 2.141 (Simulation time: 05 hr 50 min 28 sec)
Heartbeat CPU 3 instructions: 180000002 cycles: 772060393 heartbeat IPC: 0.1598 cumulative IPC: 0.1576 (Simulation time: 05 hr 50 min 42 sec)
Heartbeat CPU 1 instructions: 1700000002 cycles: 776100310 heartbeat IPC: 2.17 cumulative IPC: 2.141 (Simulation time: 05 hr 52 min 18 sec)
Heartbeat CPU 0 instructions: 80000002 cycles: 776995519 heartbeat IPC: 0.03915 cumulative IPC: 0.03968 (Simulation time: 05 hr 52 min 40 sec)
Heartbeat CPU 1 instructions: 1710000000 cycles: 780699315 heartbeat IPC: 2.174 cumulative IPC: 2.142 (Simulation time: 05 hr 54 min 09 sec)
Heartbeat CPU 1 instructions: 1720000002 cycles: 785330876 heartbeat IPC: 2.159 cumulative IPC: 2.142 (Simulation time: 05 hr 55 min 58 sec)
Heartbeat CPU 1 instructions: 1730000001 cycles: 789799530 heartbeat IPC: 2.238 cumulative IPC: 2.142 (Simulation time: 05 hr 57 min 42 sec)
Heartbeat CPU 1 instructions: 1740000002 cycles: 794261671 heartbeat IPC: 2.241 cumulative IPC: 2.143 (Simulation time: 05 hr 59 min 28 sec)
Heartbeat CPU 1 instructions: 1750000001 cycles: 798513443 heartbeat IPC: 2.352 cumulative IPC: 2.144 (Simulation time: 06 hr 01 min 08 sec)
Heartbeat CPU 1 instructions: 1760000003 cycles: 802756369 heartbeat IPC: 2.357 cumulative IPC: 2.145 (Simulation time: 06 hr 02 min 45 sec)
Heartbeat CPU 2 instructions: 280000000 cycles: 803533611 heartbeat IPC: 0.2904 cumulative IPC: 0.2872 (Simulation time: 06 hr 03 min 03 sec)
Heartbeat CPU 1 instructions: 1770000001 cycles: 807164509 heartbeat IPC: 2.269 cumulative IPC: 2.146 (Simulation time: 06 hr 04 min 24 sec)
Heartbeat CPU 1 instructions: 1780000002 cycles: 811374132 heartbeat IPC: 2.376 cumulative IPC: 2.147 (Simulation time: 06 hr 06 min 07 sec)
Heartbeat CPU 1 instructions: 1790000004 cycles: 815652523 heartbeat IPC: 2.337 cumulative IPC: 2.148 (Simulation time: 06 hr 07 min 47 sec)
Heartbeat CPU 1 instructions: 1800000003 cycles: 819946156 heartbeat IPC: 2.329 cumulative IPC: 2.149 (Simulation time: 06 hr 09 min 36 sec)
Heartbeat CPU 1 instructions: 1810000002 cycles: 824400963 heartbeat IPC: 2.245 cumulative IPC: 2.15 (Simulation time: 06 hr 11 min 39 sec)
Heartbeat CPU 1 instructions: 1820000002 cycles: 828621306 heartbeat IPC: 2.369 cumulative IPC: 2.151 (Simulation time: 06 hr 13 min 23 sec)
Heartbeat CPU 1 instructions: 1830000002 cycles: 833006380 heartbeat IPC: 2.28 cumulative IPC: 2.151 (Simulation time: 06 hr 15 min 18 sec)
Heartbeat CPU 3 instructions: 190000002 cycles: 834335300 heartbeat IPC: 0.1606 cumulative IPC: 0.1578 (Simulation time: 06 hr 15 min 50 sec)
Heartbeat CPU 1 instructions: 1840000001 cycles: 837261282 heartbeat IPC: 2.35 cumulative IPC: 2.152 (Simulation time: 06 hr 17 min 03 sec)
Heartbeat CPU 2 instructions: 290000001 cycles: 838219575 heartbeat IPC: 0.2883 cumulative IPC: 0.2872 (Simulation time: 06 hr 17 min 29 sec)
Heartbeat CPU 1 instructions: 1850000001 cycles: 841510761 heartbeat IPC: 2.353 cumulative IPC: 2.153 (Simulation time: 06 hr 18 min 53 sec)
Heartbeat CPU 1 instructions: 1860000001 cycles: 845764126 heartbeat IPC: 2.351 cumulative IPC: 2.155 (Simulation time: 06 hr 20 min 40 sec)
Heartbeat CPU 1 instructions: 1870000004 cycles: 850178350 heartbeat IPC: 2.265 cumulative IPC: 2.155 (Simulation time: 06 hr 22 min 23 sec)
Heartbeat CPU 1 instructions: 1880000003 cycles: 854439391 heartbeat IPC: 2.347 cumulative IPC: 2.156 (Simulation time: 06 hr 24 min 01 sec)
Heartbeat CPU 1 instructions: 1890000000 cycles: 859045090 heartbeat IPC: 2.171 cumulative IPC: 2.156 (Simulation time: 06 hr 25 min 52 sec)
Heartbeat CPU 1 instructions: 1900000000 cycles: 863374050 heartbeat IPC: 2.31 cumulative IPC: 2.157 (Simulation time: 06 hr 27 min 46 sec)
Heartbeat CPU 2 instructions: 300000001 cycles: 875107501 heartbeat IPC: 0.2711 cumulative IPC: 0.2865 (Simulation time: 06 hr 32 min 04 sec)
Heartbeat CPU 1 instructions: 1910000002 cycles: 877067252 heartbeat IPC: 0.7303 cumulative IPC: 2.134 (Simulation time: 06 hr 32 min 47 sec)
Heartbeat CPU 1 instructions: 1920000001 cycles: 881511805 heartbeat IPC: 2.25 cumulative IPC: 2.135 (Simulation time: 06 hr 34 min 27 sec)
Heartbeat CPU 1 instructions: 1930000002 cycles: 885817176 heartbeat IPC: 2.323 cumulative IPC: 2.136 (Simulation time: 06 hr 36 min 08 sec)
Heartbeat CPU 1 instructions: 1940000002 cycles: 890279243 heartbeat IPC: 2.241 cumulative IPC: 2.136 (Simulation time: 06 hr 37 min 56 sec)
Heartbeat CPU 1 instructions: 1950000004 cycles: 894535912 heartbeat IPC: 2.349 cumulative IPC: 2.137 (Simulation time: 06 hr 39 min 39 sec)
Heartbeat CPU 1 instructions: 1960000000 cycles: 898765092 heartbeat IPC: 2.365 cumulative IPC: 2.138 (Simulation time: 06 hr 41 min 21 sec)
Heartbeat CPU 3 instructions: 200000001 cycles: 901595551 heartbeat IPC: 0.1487 cumulative IPC: 0.1571 (Simulation time: 06 hr 42 min 34 sec)
Heartbeat CPU 1 instructions: 1970000004 cycles: 903136951 heartbeat IPC: 2.287 cumulative IPC: 2.139 (Simulation time: 06 hr 43 min 12 sec)
Heartbeat CPU 1 instructions: 1980000000 cycles: 907400913 heartbeat IPC: 2.345 cumulative IPC: 2.14 (Simulation time: 06 hr 44 min 54 sec)
Heartbeat CPU 2 instructions: 310000000 cycles: 909792234 heartbeat IPC: 0.2883 cumulative IPC: 0.2866 (Simulation time: 06 hr 45 min 52 sec)
Heartbeat CPU 1 instructions: 1990000001 cycles: 911653306 heartbeat IPC: 2.352 cumulative IPC: 2.141 (Simulation time: 06 hr 46 min 36 sec)
*** Reached end of trace: (1, "/home/das/dpc3_traces/603.bwaves_s-3699B.champsimtrace.xz")
Heartbeat CPU 1 instructions: 2000000001 cycles: 915943856 heartbeat IPC: 2.331 cumulative IPC: 2.142 (Simulation time: 06 hr 48 min 23 sec)
Heartbeat CPU 1 instructions: 2010000004 cycles: 920316244 heartbeat IPC: 2.287 cumulative IPC: 2.143 (Simulation time: 06 hr 50 min 13 sec)
Heartbeat CPU 1 instructions: 2020000004 cycles: 929076976 heartbeat IPC: 1.141 cumulative IPC: 2.133 (Simulation time: 06 hr 53 min 47 sec)
Heartbeat CPU 1 instructions: 2030000000 cycles: 938566879 heartbeat IPC: 1.054 cumulative IPC: 2.122 (Simulation time: 06 hr 57 min 33 sec)
Heartbeat CPU 1 instructions: 2040000001 cycles: 942994290 heartbeat IPC: 2.259 cumulative IPC: 2.123 (Simulation time: 06 hr 59 min 22 sec)
Heartbeat CPU 2 instructions: 320000001 cycles: 947158943 heartbeat IPC: 0.2676 cumulative IPC: 0.2859 (Simulation time: 07 hr 01 min 07 sec)
Heartbeat CPU 1 instructions: 2050000003 cycles: 947430928 heartbeat IPC: 2.254 cumulative IPC: 2.123 (Simulation time: 07 hr 01 min 15 sec)
Heartbeat CPU 1 instructions: 2060000001 cycles: 951752233 heartbeat IPC: 2.314 cumulative IPC: 2.124 (Simulation time: 07 hr 03 min 04 sec)
Heartbeat CPU 1 instructions: 2070000003 cycles: 956098686 heartbeat IPC: 2.301 cumulative IPC: 2.125 (Simulation time: 07 hr 04 min 54 sec)
Heartbeat CPU 1 instructions: 2080000002 cycles: 960365068 heartbeat IPC: 2.344 cumulative IPC: 2.126 (Simulation time: 07 hr 06 min 36 sec)
Heartbeat CPU 1 instructions: 2090000000 cycles: 964750188 heartbeat IPC: 2.28 cumulative IPC: 2.127 (Simulation time: 07 hr 08 min 23 sec)
Heartbeat CPU 1 instructions: 2100000003 cycles: 969181421 heartbeat IPC: 2.257 cumulative IPC: 2.127 (Simulation time: 07 hr 10 min 05 sec)
Heartbeat CPU 3 instructions: 210000000 cycles: 969495392 heartbeat IPC: 0.1473 cumulative IPC: 0.1564 (Simulation time: 07 hr 10 min 12 sec)
Heartbeat CPU 1 instructions: 2110000000 cycles: 973873091 heartbeat IPC: 2.131 cumulative IPC: 2.127 (Simulation time: 07 hr 11 min 55 sec)
Heartbeat CPU 1 instructions: 2120000000 cycles: 978349190 heartbeat IPC: 2.234 cumulative IPC: 2.128 (Simulation time: 07 hr 13 min 49 sec)
Simulation finished CPU 3 instructions: 150000003 cycles: 959246591 cumulative IPC: 0.1564 (Simulation time: 07 hr 14 min 37 sec)
Heartbeat CPU 2 instructions: 330000001 cycles: 981616646 heartbeat IPC: 0.2902 cumulative IPC: 0.286 (Simulation time: 07 hr 15 min 11 sec)
Heartbeat CPU 1 instructions: 2130000004 cycles: 983120379 heartbeat IPC: 2.096 cumulative IPC: 2.128 (Simulation time: 07 hr 15 min 49 sec)
Heartbeat CPU 1 instructions: 2140000001 cycles: 987799192 heartbeat IPC: 2.137 cumulative IPC: 2.128 (Simulation time: 07 hr 17 min 33 sec)
Heartbeat CPU 1 instructions: 2150000001 cycles: 992401431 heartbeat IPC: 2.173 cumulative IPC: 2.128 (Simulation time: 07 hr 19 min 20 sec)
Heartbeat CPU 1 instructions: 2160000000 cycles: 997068104 heartbeat IPC: 2.143 cumulative IPC: 2.128 (Simulation time: 07 hr 21 min 09 sec)
Heartbeat CPU 1 instructions: 2170000000 cycles: 1001760201 heartbeat IPC: 2.131 cumulative IPC: 2.128 (Simulation time: 07 hr 22 min 57 sec)
Heartbeat CPU 1 instructions: 2180000002 cycles: 1006546515 heartbeat IPC: 2.089 cumulative IPC: 2.128 (Simulation time: 07 hr 24 min 50 sec)
Heartbeat CPU 1 instructions: 2190000000 cycles: 1011240481 heartbeat IPC: 2.13 cumulative IPC: 2.128 (Simulation time: 07 hr 26 min 34 sec)
Heartbeat CPU 1 instructions: 2200000003 cycles: 1015825953 heartbeat IPC: 2.181 cumulative IPC: 2.128 (Simulation time: 07 hr 28 min 33 sec)
Heartbeat CPU 2 instructions: 340000003 cycles: 1017373611 heartbeat IPC: 0.2797 cumulative IPC: 0.2858 (Simulation time: 07 hr 29 min 12 sec)
Heartbeat CPU 1 instructions: 2210000000 cycles: 1020675193 heartbeat IPC: 2.062 cumulative IPC: 2.128 (Simulation time: 07 hr 30 min 32 sec)
Heartbeat CPU 1 instructions: 2220000001 cycles: 1025693785 heartbeat IPC: 1.993 cumulative IPC: 2.127 (Simulation time: 07 hr 32 min 30 sec)
Heartbeat CPU 0 instructions: 90000001 cycles: 1027795689 heartbeat IPC: 0.03987 cumulative IPC: 0.03972 (Simulation time: 07 hr 33 min 14 sec)
Heartbeat CPU 1 instructions: 2230000004 cycles: 1030536021 heartbeat IPC: 2.065 cumulative IPC: 2.127 (Simulation time: 07 hr 34 min 19 sec)
Heartbeat CPU 3 instructions: 220000001 cycles: 1033955653 heartbeat IPC: 0.1551 cumulative IPC: 0.1563 (Simulation time: 07 hr 35 min 40 sec)
Heartbeat CPU 1 instructions: 2240000000 cycles: 1035397189 heartbeat IPC: 2.057 cumulative IPC: 2.126 (Simulation time: 07 hr 36 min 12 sec)
Heartbeat CPU 1 instructions: 2250000004 cycles: 1040180010 heartbeat IPC: 2.091 cumulative IPC: 2.126 (Simulation time: 07 hr 38 min 08 sec)
Heartbeat CPU 1 instructions: 2260000000 cycles: 1044816850 heartbeat IPC: 2.157 cumulative IPC: 2.126 (Simulation time: 07 hr 40 min 08 sec)
Heartbeat CPU 1 instructions: 2270000002 cycles: 1049594866 heartbeat IPC: 2.093 cumulative IPC: 2.126 (Simulation time: 07 hr 42 min 02 sec)
Heartbeat CPU 2 instructions: 350000000 cycles: 1052601118 heartbeat IPC: 0.2839 cumulative IPC: 0.2857 (Simulation time: 07 hr 43 min 16 sec)
Heartbeat CPU 1 instructions: 2280000002 cycles: 1054256534 heartbeat IPC: 2.145 cumulative IPC: 2.126 (Simulation time: 07 hr 43 min 55 sec)
Heartbeat CPU 1 instructions: 2290000000 cycles: 1058901236 heartbeat IPC: 2.153 cumulative IPC: 2.126 (Simulation time: 07 hr 45 min 43 sec)
Heartbeat CPU 1 instructions: 2300000000 cycles: 1063619348 heartbeat IPC: 2.119 cumulative IPC: 2.126 (Simulation time: 07 hr 47 min 51 sec)
Heartbeat CPU 1 instructions: 2310000002 cycles: 1068199714 heartbeat IPC: 2.183 cumulative IPC: 2.127 (Simulation time: 07 hr 49 min 51 sec)
Heartbeat CPU 1 instructions: 2320000001 cycles: 1072836327 heartbeat IPC: 2.157 cumulative IPC: 2.127 (Simulation time: 07 hr 51 min 45 sec)
Heartbeat CPU 1 instructions: 2330000003 cycles: 1077518313 heartbeat IPC: 2.136 cumulative IPC: 2.127 (Simulation time: 07 hr 53 min 42 sec)
Heartbeat CPU 1 instructions: 2340000000 cycles: 1082229904 heartbeat IPC: 2.122 cumulative IPC: 2.127 (Simulation time: 07 hr 55 min 47 sec)
Heartbeat CPU 1 instructions: 2350000000 cycles: 1087001354 heartbeat IPC: 2.096 cumulative IPC: 2.127 (Simulation time: 07 hr 57 min 53 sec)
Heartbeat CPU 2 instructions: 360000000 cycles: 1087256443 heartbeat IPC: 0.2886 cumulative IPC: 0.2858 (Simulation time: 07 hr 58 min 01 sec)
Heartbeat CPU 1 instructions: 2360000003 cycles: 1091913157 heartbeat IPC: 2.036 cumulative IPC: 2.126 (Simulation time: 07 hr 59 min 54 sec)
Heartbeat CPU 1 instructions: 2370000001 cycles: 1096600866 heartbeat IPC: 2.133 cumulative IPC: 2.126 (Simulation time: 08 hr 01 min 54 sec)
Heartbeat CPU 3 instructions: 230000000 cycles: 1097346695 heartbeat IPC: 0.1578 cumulative IPC: 0.1564 (Simulation time: 08 hr 02 min 13 sec)
Heartbeat CPU 1 instructions: 2380000001 cycles: 1101276900 heartbeat IPC: 2.139 cumulative IPC: 2.126 (Simulation time: 08 hr 03 min 53 sec)
Heartbeat CPU 1 instructions: 2390000004 cycles: 1105953338 heartbeat IPC: 2.138 cumulative IPC: 2.126 (Simulation time: 08 hr 06 min 02 sec)
Heartbeat CPU 1 instructions: 2400000000 cycles: 1110606243 heartbeat IPC: 2.149 cumulative IPC: 2.126 (Simulation time: 08 hr 08 min 07 sec)
Heartbeat CPU 1 instructions: 2410000000 cycles: 1115177662 heartbeat IPC: 2.188 cumulative IPC: 2.127 (Simulation time: 08 hr 10 min 04 sec)
Heartbeat CPU 1 instructions: 2420000003 cycles: 1119694816 heartbeat IPC: 2.214 cumulative IPC: 2.127 (Simulation time: 08 hr 11 min 50 sec)
Heartbeat CPU 2 instructions: 370000001 cycles: 1121584622 heartbeat IPC: 0.2913 cumulative IPC: 0.286 (Simulation time: 08 hr 12 min 38 sec)
Heartbeat CPU 1 instructions: 2430000003 cycles: 1124392548 heartbeat IPC: 2.129 cumulative IPC: 2.127 (Simulation time: 08 hr 13 min 45 sec)
Heartbeat CPU 1 instructions: 2440000002 cycles: 1129044755 heartbeat IPC: 2.15 cumulative IPC: 2.127 (Simulation time: 08 hr 15 min 39 sec)
Heartbeat CPU 1 instructions: 2450000002 cycles: 1133565299 heartbeat IPC: 2.212 cumulative IPC: 2.127 (Simulation time: 08 hr 17 min 32 sec)
Heartbeat CPU 1 instructions: 2460000001 cycles: 1138247682 heartbeat IPC: 2.136 cumulative IPC: 2.128 (Simulation time: 08 hr 19 min 24 sec)
Heartbeat CPU 1 instructions: 2470000001 cycles: 1142517653 heartbeat IPC: 2.342 cumulative IPC: 2.128 (Simulation time: 08 hr 21 min 04 sec)
Heartbeat CPU 1 instructions: 2480000004 cycles: 1147014540 heartbeat IPC: 2.224 cumulative IPC: 2.129 (Simulation time: 08 hr 22 min 49 sec)
Heartbeat CPU 1 instructions: 2490000001 cycles: 1151295940 heartbeat IPC: 2.336 cumulative IPC: 2.129 (Simulation time: 08 hr 24 min 26 sec)
Heartbeat CPU 2 instructions: 380000002 cycles: 1155426194 heartbeat IPC: 0.2955 cumulative IPC: 0.2863 (Simulation time: 08 hr 25 min 56 sec)
Heartbeat CPU 1 instructions: 2500000000 cycles: 1155727013 heartbeat IPC: 2.257 cumulative IPC: 2.13 (Simulation time: 08 hr 26 min 03 sec)
Heartbeat CPU 1 instructions: 2510000003 cycles: 1160072507 heartbeat IPC: 2.301 cumulative IPC: 2.131 (Simulation time: 08 hr 27 min 39 sec)
Heartbeat CPU 3 instructions: 240000003 cycles: 1160357443 heartbeat IPC: 0.1587 cumulative IPC: 0.1565 (Simulation time: 08 hr 27 min 46 sec)
Heartbeat CPU 1 instructions: 2520000004 cycles: 1164541974 heartbeat IPC: 2.237 cumulative IPC: 2.131 (Simulation time: 08 hr 29 min 20 sec)
Heartbeat CPU 1 instructions: 2530000001 cycles: 1174441608 heartbeat IPC: 1.01 cumulative IPC: 2.121 (Simulation time: 08 hr 32 min 49 sec)
Heartbeat CPU 1 instructions: 2540000003 cycles: 1182774867 heartbeat IPC: 1.2 cumulative IPC: 2.115 (Simulation time: 08 hr 35 min 49 sec)
Heartbeat CPU 1 instructions: 2550000000 cycles: 1187088595 heartbeat IPC: 2.318 cumulative IPC: 2.116 (Simulation time: 08 hr 37 min 22 sec)
Heartbeat CPU 1 instructions: 2560000001 cycles: 1191538732 heartbeat IPC: 2.247 cumulative IPC: 2.116 (Simulation time: 08 hr 39 min 09 sec)
Heartbeat CPU 2 instructions: 390000004 cycles: 1192382987 heartbeat IPC: 0.2706 cumulative IPC: 0.2858 (Simulation time: 08 hr 39 min 27 sec)
Heartbeat CPU 1 instructions: 2570000000 cycles: 1195829384 heartbeat IPC: 2.331 cumulative IPC: 2.117 (Simulation time: 08 hr 40 min 48 sec)
Heartbeat CPU 1 instructions: 2580000001 cycles: 1200304087 heartbeat IPC: 2.235 cumulative IPC: 2.117 (Simulation time: 08 hr 42 min 29 sec)
Heartbeat CPU 1 instructions: 2590000001 cycles: 1204578416 heartbeat IPC: 2.34 cumulative IPC: 2.118 (Simulation time: 08 hr 44 min 15 sec)
Heartbeat CPU 1 instructions: 2600000004 cycles: 1208863400 heartbeat IPC: 2.334 cumulative IPC: 2.119 (Simulation time: 08 hr 45 min 52 sec)
Heartbeat CPU 1 instructions: 2610000004 cycles: 1213270952 heartbeat IPC: 2.269 cumulative IPC: 2.119 (Simulation time: 08 hr 47 min 35 sec)
Heartbeat CPU 1 instructions: 2620000000 cycles: 1217658263 heartbeat IPC: 2.279 cumulative IPC: 2.12 (Simulation time: 08 hr 49 min 14 sec)
Heartbeat CPU 1 instructions: 2630000000 cycles: 1222098137 heartbeat IPC: 2.252 cumulative IPC: 2.121 (Simulation time: 08 hr 50 min 51 sec)
Heartbeat CPU 1 instructions: 2640000000 cycles: 1226438729 heartbeat IPC: 2.304 cumulative IPC: 2.121 (Simulation time: 08 hr 52 min 30 sec)
Heartbeat CPU 2 instructions: 400000000 cycles: 1226546952 heartbeat IPC: 0.2927 cumulative IPC: 0.286 (Simulation time: 08 hr 52 min 32 sec)
Heartbeat CPU 3 instructions: 250000000 cycles: 1226882527 heartbeat IPC: 0.1503 cumulative IPC: 0.1562 (Simulation time: 08 hr 52 min 42 sec)
Heartbeat CPU 1 instructions: 2650000004 cycles: 1230897970 heartbeat IPC: 2.243 cumulative IPC: 2.122 (Simulation time: 08 hr 54 min 15 sec)
Heartbeat CPU 1 instructions: 2660000000 cycles: 1235496607 heartbeat IPC: 2.175 cumulative IPC: 2.122 (Simulation time: 08 hr 55 min 57 sec)
Heartbeat CPU 1 instructions: 2670000000 cycles: 1240059346 heartbeat IPC: 2.192 cumulative IPC: 2.122 (Simulation time: 08 hr 57 min 40 sec)
Heartbeat CPU 1 instructions: 2680000001 cycles: 1244711203 heartbeat IPC: 2.15 cumulative IPC: 2.122 (Simulation time: 08 hr 59 min 15 sec)
Heartbeat CPU 1 instructions: 2690000000 cycles: 1249326647 heartbeat IPC: 2.167 cumulative IPC: 2.122 (Simulation time: 09 hr 00 min 49 sec)
Heartbeat CPU 1 instructions: 2700000002 cycles: 1254047857 heartbeat IPC: 2.118 cumulative IPC: 2.122 (Simulation time: 09 hr 02 min 31 sec)
Heartbeat CPU 1 instructions: 2710000001 cycles: 1258656745 heartbeat IPC: 2.17 cumulative IPC: 2.123 (Simulation time: 09 hr 04 min 05 sec)
Heartbeat CPU 2 instructions: 410000002 cycles: 1261121244 heartbeat IPC: 0.2892 cumulative IPC: 0.2861 (Simulation time: 09 hr 04 min 57 sec)
Heartbeat CPU 1 instructions: 2720000003 cycles: 1263312862 heartbeat IPC: 2.148 cumulative IPC: 2.123 (Simulation time: 09 hr 05 min 43 sec)
Heartbeat CPU 1 instructions: 2730000001 cycles: 1267883097 heartbeat IPC: 2.188 cumulative IPC: 2.123 (Simulation time: 09 hr 07 min 23 sec)
Heartbeat CPU 1 instructions: 2740000003 cycles: 1272495436 heartbeat IPC: 2.168 cumulative IPC: 2.123 (Simulation time: 09 hr 08 min 59 sec)
Heartbeat CPU 1 instructions: 2750000000 cycles: 1277253124 heartbeat IPC: 2.102 cumulative IPC: 2.123 (Simulation time: 09 hr 10 min 41 sec)
Heartbeat CPU 1 instructions: 2760000000 cycles: 1281790253 heartbeat IPC: 2.204 cumulative IPC: 2.123 (Simulation time: 09 hr 12 min 16 sec)
Heartbeat CPU 1 instructions: 2770000001 cycles: 1286395615 heartbeat IPC: 2.171 cumulative IPC: 2.123 (Simulation time: 09 hr 13 min 53 sec)
Heartbeat CPU 3 instructions: 260000003 cycles: 1289240131 heartbeat IPC: 0.1604 cumulative IPC: 0.1564 (Simulation time: 09 hr 14 min 54 sec)
Heartbeat CPU 1 instructions: 2780000001 cycles: 1290971881 heartbeat IPC: 2.185 cumulative IPC: 2.124 (Simulation time: 09 hr 15 min 30 sec)
Heartbeat CPU 0 instructions: 100000000 cycles: 1291673674 heartbeat IPC: 0.0379 cumulative IPC: 0.03935 (Simulation time: 09 hr 15 min 44 sec)
Heartbeat CPU 2 instructions: 420000000 cycles: 1295586661 heartbeat IPC: 0.2901 cumulative IPC: 0.2862 (Simulation time: 09 hr 17 min 08 sec)
Heartbeat CPU 1 instructions: 2790000001 cycles: 1295616213 heartbeat IPC: 2.153 cumulative IPC: 2.124 (Simulation time: 09 hr 17 min 09 sec)
Heartbeat CPU 1 instructions: 2800000000 cycles: 1300211548 heartbeat IPC: 2.176 cumulative IPC: 2.124 (Simulation time: 09 hr 18 min 44 sec)
Heartbeat CPU 1 instructions: 2810000004 cycles: 1304902130 heartbeat IPC: 2.132 cumulative IPC: 2.124 (Simulation time: 09 hr 20 min 23 sec)
Heartbeat CPU 1 instructions: 2820000002 cycles: 1309578039 heartbeat IPC: 2.139 cumulative IPC: 2.124 (Simulation time: 09 hr 22 min 01 sec)
Heartbeat CPU 1 instructions: 2830000003 cycles: 1314242849 heartbeat IPC: 2.144 cumulative IPC: 2.124 (Simulation time: 09 hr 23 min 39 sec)
Heartbeat CPU 1 instructions: 2840000002 cycles: 1318945529 heartbeat IPC: 2.126 cumulative IPC: 2.124 (Simulation time: 09 hr 25 min 16 sec)
Heartbeat CPU 1 instructions: 2850000000 cycles: 1323527738 heartbeat IPC: 2.182 cumulative IPC: 2.124 (Simulation time: 09 hr 26 min 53 sec)
Heartbeat CPU 1 instructions: 2860000002 cycles: 1328163742 heartbeat IPC: 2.157 cumulative IPC: 2.124 (Simulation time: 09 hr 28 min 30 sec)
Heartbeat CPU 2 instructions: 430000002 cycles: 1330717130 heartbeat IPC: 0.2847 cumulative IPC: 0.2861 (Simulation time: 09 hr 29 min 24 sec)
Heartbeat CPU 1 instructions: 2870000002 cycles: 1332750241 heartbeat IPC: 2.18 cumulative IPC: 2.125 (Simulation time: 09 hr 30 min 07 sec)
Heartbeat CPU 1 instructions: 2880000004 cycles: 1337423893 heartbeat IPC: 2.14 cumulative IPC: 2.125 (Simulation time: 09 hr 31 min 45 sec)
Heartbeat CPU 1 instructions: 2890000003 cycles: 1342021583 heartbeat IPC: 2.175 cumulative IPC: 2.125 (Simulation time: 09 hr 33 min 23 sec)
Heartbeat CPU 1 instructions: 2900000001 cycles: 1346645132 heartbeat IPC: 2.163 cumulative IPC: 2.125 (Simulation time: 09 hr 35 min 00 sec)
Heartbeat CPU 1 instructions: 2910000002 cycles: 1351444680 heartbeat IPC: 2.084 cumulative IPC: 2.125 (Simulation time: 09 hr 36 min 41 sec)
Heartbeat CPU 3 instructions: 270000002 cycles: 1351517452 heartbeat IPC: 0.1606 cumulative IPC: 0.1566 (Simulation time: 09 hr 36 min 42 sec)
Heartbeat CPU 1 instructions: 2920000000 cycles: 1356054395 heartbeat IPC: 2.169 cumulative IPC: 2.125 (Simulation time: 09 hr 38 min 19 sec)
Heartbeat CPU 1 instructions: 2930000000 cycles: 1360723830 heartbeat IPC: 2.142 cumulative IPC: 2.125 (Simulation time: 09 hr 39 min 57 sec)
Heartbeat CPU 2 instructions: 440000000 cycles: 1365523074 heartbeat IPC: 0.2873 cumulative IPC: 0.2862 (Simulation time: 09 hr 41 min 37 sec)
Heartbeat CPU 1 instructions: 2940000004 cycles: 1365536213 heartbeat IPC: 2.078 cumulative IPC: 2.125 (Simulation time: 09 hr 41 min 37 sec)
Heartbeat CPU 1 instructions: 2950000004 cycles: 1370189590 heartbeat IPC: 2.149 cumulative IPC: 2.125 (Simulation time: 09 hr 43 min 14 sec)
Heartbeat CPU 1 instructions: 2960000000 cycles: 1374853070 heartbeat IPC: 2.144 cumulative IPC: 2.125 (Simulation time: 09 hr 44 min 51 sec)
Heartbeat CPU 1 instructions: 2970000000 cycles: 1379413432 heartbeat IPC: 2.193 cumulative IPC: 2.125 (Simulation time: 09 hr 46 min 26 sec)
Heartbeat CPU 1 instructions: 2980000004 cycles: 1384155043 heartbeat IPC: 2.109 cumulative IPC: 2.125 (Simulation time: 09 hr 48 min 03 sec)
Heartbeat CPU 1 instructions: 2990000003 cycles: 1388812207 heartbeat IPC: 2.147 cumulative IPC: 2.125 (Simulation time: 09 hr 49 min 38 sec)
Heartbeat CPU 1 instructions: 3000000003 cycles: 1393491812 heartbeat IPC: 2.137 cumulative IPC: 2.125 (Simulation time: 09 hr 51 min 13 sec)
Heartbeat CPU 1 instructions: 3010000004 cycles: 1398239337 heartbeat IPC: 2.106 cumulative IPC: 2.125 (Simulation time: 09 hr 52 min 50 sec)
Heartbeat CPU 2 instructions: 450000002 cycles: 1400516290 heartbeat IPC: 0.2858 cumulative IPC: 0.2861 (Simulation time: 09 hr 53 min 37 sec)
Heartbeat CPU 1 instructions: 3020000001 cycles: 1402844485 heartbeat IPC: 2.171 cumulative IPC: 2.125 (Simulation time: 09 hr 54 min 25 sec)
Heartbeat CPU 1 instructions: 3030000003 cycles: 1407371822 heartbeat IPC: 2.209 cumulative IPC: 2.126 (Simulation time: 09 hr 55 min 59 sec)
Heartbeat CPU 1 instructions: 3040000000 cycles: 1411897878 heartbeat IPC: 2.209 cumulative IPC: 2.126 (Simulation time: 09 hr 57 min 32 sec)
Heartbeat CPU 3 instructions: 280000003 cycles: 1412515380 heartbeat IPC: 0.1639 cumulative IPC: 0.1569 (Simulation time: 09 hr 57 min 45 sec)
Heartbeat CPU 1 instructions: 3050000000 cycles: 1416202718 heartbeat IPC: 2.323 cumulative IPC: 2.127 (Simulation time: 09 hr 59 min 01 sec)
Heartbeat CPU 1 instructions: 3060000000 cycles: 1420506484 heartbeat IPC: 2.324 cumulative IPC: 2.127 (Simulation time: 10 hr 00 min 29 sec)
Heartbeat CPU 1 instructions: 3070000004 cycles: 1424977006 heartbeat IPC: 2.237 cumulative IPC: 2.128 (Simulation time: 10 hr 02 min 00 sec)
Heartbeat CPU 1 instructions: 3080000004 cycles: 1429461733 heartbeat IPC: 2.23 cumulative IPC: 2.128 (Simulation time: 10 hr 03 min 31 sec)
Heartbeat CPU 1 instructions: 3090000004 cycles: 1433811022 heartbeat IPC: 2.299 cumulative IPC: 2.128 (Simulation time: 10 hr 05 min 00 sec)
Heartbeat CPU 2 instructions: 460000001 cycles: 1434990296 heartbeat IPC: 0.2901 cumulative IPC: 0.2862 (Simulation time: 10 hr 05 min 24 sec)
Heartbeat CPU 1 instructions: 3100000004 cycles: 1438147139 heartbeat IPC: 2.306 cumulative IPC: 2.129 (Simulation time: 10 hr 06 min 29 sec)
Heartbeat CPU 1 instructions: 3110000000 cycles: 1442600341 heartbeat IPC: 2.246 cumulative IPC: 2.129 (Simulation time: 10 hr 08 min 01 sec)
Heartbeat CPU 1 instructions: 3120000003 cycles: 1446886498 heartbeat IPC: 2.333 cumulative IPC: 2.13 (Simulation time: 10 hr 09 min 31 sec)
Heartbeat CPU 1 instructions: 3130000002 cycles: 1451370079 heartbeat IPC: 2.23 cumulative IPC: 2.13 (Simulation time: 10 hr 11 min 03 sec)
Heartbeat CPU 1 instructions: 3140000001 cycles: 1455868901 heartbeat IPC: 2.223 cumulative IPC: 2.13 (Simulation time: 10 hr 12 min 34 sec)
Heartbeat CPU 1 instructions: 3150000002 cycles: 1460142284 heartbeat IPC: 2.34 cumulative IPC: 2.131 (Simulation time: 10 hr 14 min 02 sec)
Heartbeat CPU 2 instructions: 470000001 cycles: 1472308160 heartbeat IPC: 0.268 cumulative IPC: 0.2858 (Simulation time: 10 hr 17 min 45 sec)
Heartbeat CPU 1 instructions: 3160000000 cycles: 1473696718 heartbeat IPC: 0.7378 cumulative IPC: 2.118 (Simulation time: 10 hr 18 min 13 sec)
Heartbeat CPU 1 instructions: 3170000000 cycles: 1478256859 heartbeat IPC: 2.193 cumulative IPC: 2.118 (Simulation time: 10 hr 19 min 45 sec)
Heartbeat CPU 3 instructions: 290000001 cycles: 1479092271 heartbeat IPC: 0.1502 cumulative IPC: 0.1566 (Simulation time: 10 hr 20 min 02 sec)
Heartbeat CPU 1 instructions: 3180000000 cycles: 1482523622 heartbeat IPC: 2.344 cumulative IPC: 2.119 (Simulation time: 10 hr 21 min 13 sec)
Heartbeat CPU 1 instructions: 3190000000 cycles: 1486971225 heartbeat IPC: 2.248 cumulative IPC: 2.119 (Simulation time: 10 hr 22 min 43 sec)
Heartbeat CPU 1 instructions: 3200000000 cycles: 1491264759 heartbeat IPC: 2.329 cumulative IPC: 2.12 (Simulation time: 10 hr 24 min 11 sec)
Heartbeat CPU 1 instructions: 3210000001 cycles: 1495554614 heartbeat IPC: 2.331 cumulative IPC: 2.121 (Simulation time: 10 hr 25 min 38 sec)
Heartbeat CPU 1 instructions: 3220000002 cycles: 1499958455 heartbeat IPC: 2.271 cumulative IPC: 2.121 (Simulation time: 10 hr 27 min 08 sec)
Heartbeat CPU 1 instructions: 3230000001 cycles: 1504253432 heartbeat IPC: 2.328 cumulative IPC: 2.122 (Simulation time: 10 hr 28 min 36 sec)
Heartbeat CPU 2 instructions: 480000001 cycles: 1506515452 heartbeat IPC: 0.2923 cumulative IPC: 0.2859 (Simulation time: 10 hr 29 min 22 sec)
Heartbeat CPU 1 instructions: 3240000001 cycles: 1508579131 heartbeat IPC: 2.312 cumulative IPC: 2.122 (Simulation time: 10 hr 30 min 03 sec)
Heartbeat CPU 1 instructions: 3250000002 cycles: 1512996188 heartbeat IPC: 2.264 cumulative IPC: 2.123 (Simulation time: 10 hr 31 min 31 sec)
Heartbeat CPU 1 instructions: 3260000004 cycles: 1517293745 heartbeat IPC: 2.327 cumulative IPC: 2.123 (Simulation time: 10 hr 32 min 58 sec)
Heartbeat CPU 1 instructions: 3270000004 cycles: 1521555558 heartbeat IPC: 2.346 cumulative IPC: 2.124 (Simulation time: 10 hr 34 min 25 sec)
Heartbeat CPU 1 instructions: 3280000000 cycles: 1525872699 heartbeat IPC: 2.316 cumulative IPC: 2.124 (Simulation time: 10 hr 35 min 52 sec)
Heartbeat CPU 1 instructions: 3290000002 cycles: 1530356532 heartbeat IPC: 2.23 cumulative IPC: 2.125 (Simulation time: 10 hr 37 min 20 sec)
Heartbeat CPU 1 instructions: 3300000000 cycles: 1534733379 heartbeat IPC: 2.285 cumulative IPC: 2.125 (Simulation time: 10 hr 38 min 47 sec)
Heartbeat CPU 1 instructions: 3310000002 cycles: 1539225190 heartbeat IPC: 2.226 cumulative IPC: 2.125 (Simulation time: 10 hr 40 min 23 sec)
Heartbeat CPU 3 instructions: 300000000 cycles: 1540612267 heartbeat IPC: 0.1625 cumulative IPC: 0.1568 (Simulation time: 10 hr 40 min 51 sec)
Heartbeat CPU 2 instructions: 490000003 cycles: 1541071366 heartbeat IPC: 0.2894 cumulative IPC: 0.286 (Simulation time: 10 hr 41 min 00 sec)
Heartbeat CPU 1 instructions: 3320000003 cycles: 1543757069 heartbeat IPC: 2.207 cumulative IPC: 2.126 (Simulation time: 10 hr 41 min 54 sec)
Heartbeat CPU 0 instructions: 110000004 cycles: 1546855470 heartbeat IPC: 0.03919 cumulative IPC: 0.03932 (Simulation time: 10 hr 42 min 56 sec)
Heartbeat CPU 1 instructions: 3330000004 cycles: 1548330456 heartbeat IPC: 2.187 cumulative IPC: 2.126 (Simulation time: 10 hr 43 min 26 sec)
Heartbeat CPU 1 instructions: 3340000004 cycles: 1552920488 heartbeat IPC: 2.179 cumulative IPC: 2.126 (Simulation time: 10 hr 44 min 57 sec)
Heartbeat CPU 1 instructions: 3350000001 cycles: 1557661114 heartbeat IPC: 2.109 cumulative IPC: 2.126 (Simulation time: 10 hr 46 min 30 sec)
Heartbeat CPU 1 instructions: 3360000002 cycles: 1562280109 heartbeat IPC: 2.165 cumulative IPC: 2.126 (Simulation time: 10 hr 48 min 04 sec)
Heartbeat CPU 1 instructions: 3370000002 cycles: 1567025778 heartbeat IPC: 2.107 cumulative IPC: 2.126 (Simulation time: 10 hr 49 min 39 sec)
Heartbeat CPU 1 instructions: 3380000001 cycles: 1571724332 heartbeat IPC: 2.128 cumulative IPC: 2.126 (Simulation time: 10 hr 51 min 13 sec)
Heartbeat CPU 2 instructions: 500000000 cycles: 1576041982 heartbeat IPC: 0.286 cumulative IPC: 0.286 (Simulation time: 10 hr 52 min 39 sec)
Heartbeat CPU 1 instructions: 3390000004 cycles: 1576452650 heartbeat IPC: 2.115 cumulative IPC: 2.126 (Simulation time: 10 hr 52 min 47 sec)
Heartbeat CPU 1 instructions: 3400000002 cycles: 1581030011 heartbeat IPC: 2.185 cumulative IPC: 2.126 (Simulation time: 10 hr 54 min 19 sec)
Heartbeat CPU 1 instructions: 3410000001 cycles: 1585572239 heartbeat IPC: 2.202 cumulative IPC: 2.126 (Simulation time: 10 hr 55 min 51 sec)
Heartbeat CPU 1 instructions: 3420000000 cycles: 1590290055 heartbeat IPC: 2.12 cumulative IPC: 2.126 (Simulation time: 10 hr 57 min 25 sec)
Heartbeat CPU 1 instructions: 3430000001 cycles: 1594827894 heartbeat IPC: 2.204 cumulative IPC: 2.127 (Simulation time: 10 hr 58 min 56 sec)
Heartbeat CPU 1 instructions: 3440000001 cycles: 1599523219 heartbeat IPC: 2.13 cumulative IPC: 2.127 (Simulation time: 11 hr 00 min 31 sec)
Heartbeat CPU 3 instructions: 310000002 cycles: 1602624830 heartbeat IPC: 0.1613 cumulative IPC: 0.157 (Simulation time: 11 hr 01 min 33 sec)
Heartbeat CPU 1 instructions: 3450000000 cycles: 1604242176 heartbeat IPC: 2.119 cumulative IPC: 2.127 (Simulation time: 11 hr 02 min 05 sec)
Heartbeat CPU 1 instructions: 3460000003 cycles: 1608901766 heartbeat IPC: 2.146 cumulative IPC: 2.127 (Simulation time: 11 hr 03 min 37 sec)
Heartbeat CPU 2 instructions: 510000004 cycles: 1610927896 heartbeat IPC: 0.2866 cumulative IPC: 0.286 (Simulation time: 11 hr 04 min 17 sec)
Heartbeat CPU 1 instructions: 3470000003 cycles: 1613538342 heartbeat IPC: 2.157 cumulative IPC: 2.127 (Simulation time: 11 hr 05 min 09 sec)
Heartbeat CPU 1 instructions: 3480000000 cycles: 1618317706 heartbeat IPC: 2.092 cumulative IPC: 2.127 (Simulation time: 11 hr 06 min 46 sec)
Heartbeat CPU 1 instructions: 3490000003 cycles: 1622942848 heartbeat IPC: 2.162 cumulative IPC: 2.127 (Simulation time: 11 hr 08 min 20 sec)
Heartbeat CPU 1 instructions: 3500000002 cycles: 1627519218 heartbeat IPC: 2.185 cumulative IPC: 2.127 (Simulation time: 11 hr 09 min 51 sec)
Heartbeat CPU 1 instructions: 3510000001 cycles: 1632173043 heartbeat IPC: 2.149 cumulative IPC: 2.127 (Simulation time: 11 hr 11 min 24 sec)
Heartbeat CPU 1 instructions: 3520000000 cycles: 1636739928 heartbeat IPC: 2.19 cumulative IPC: 2.127 (Simulation time: 11 hr 12 min 55 sec)
Heartbeat CPU 1 instructions: 3530000000 cycles: 1641308293 heartbeat IPC: 2.189 cumulative IPC: 2.127 (Simulation time: 11 hr 14 min 25 sec)
Heartbeat CPU 1 instructions: 3540000001 cycles: 1645859210 heartbeat IPC: 2.197 cumulative IPC: 2.128 (Simulation time: 11 hr 15 min 55 sec)
Heartbeat CPU 2 instructions: 520000001 cycles: 1646846980 heartbeat IPC: 0.2784 cumulative IPC: 0.2858 (Simulation time: 11 hr 16 min 14 sec)
Heartbeat CPU 1 instructions: 3550000002 cycles: 1650441361 heartbeat IPC: 2.182 cumulative IPC: 2.128 (Simulation time: 11 hr 17 min 27 sec)
Heartbeat CPU 1 instructions: 3560000001 cycles: 1655013688 heartbeat IPC: 2.187 cumulative IPC: 2.128 (Simulation time: 11 hr 18 min 58 sec)
Heartbeat CPU 1 instructions: 3570000004 cycles: 1659512447 heartbeat IPC: 2.223 cumulative IPC: 2.128 (Simulation time: 11 hr 20 min 30 sec)
Heartbeat CPU 1 instructions: 3580000004 cycles: 1664021709 heartbeat IPC: 2.218 cumulative IPC: 2.128 (Simulation time: 11 hr 22 min 01 sec)
Heartbeat CPU 3 instructions: 320000000 cycles: 1664489615 heartbeat IPC: 0.1616 cumulative IPC: 0.1572 (Simulation time: 11 hr 22 min 10 sec)
Heartbeat CPU 1 instructions: 3590000003 cycles: 1668613429 heartbeat IPC: 2.178 cumulative IPC: 2.129 (Simulation time: 11 hr 23 min 32 sec)
Heartbeat CPU 1 instructions: 3600000002 cycles: 1673235377 heartbeat IPC: 2.164 cumulative IPC: 2.129 (Simulation time: 11 hr 25 min 03 sec)
Heartbeat CPU 1 instructions: 3610000001 cycles: 1677923432 heartbeat IPC: 2.133 cumulative IPC: 2.129 (Simulation time: 11 hr 26 min 37 sec)
Heartbeat CPU 2 instructions: 530000001 cycles: 1681358257 heartbeat IPC: 0.2898 cumulative IPC: 0.2859 (Simulation time: 11 hr 27 min 44 sec)
Heartbeat CPU 1 instructions: 3620000004 cycles: 1682525464 heartbeat IPC: 2.173 cumulative IPC: 2.129 (Simulation time: 11 hr 28 min 08 sec)
Heartbeat CPU 1 instructions: 3630000001 cycles: 1687225211 heartbeat IPC: 2.128 cumulative IPC: 2.129 (Simulation time: 11 hr 29 min 41 sec)
Heartbeat CPU 1 instructions: 3640000004 cycles: 1691753049 heartbeat IPC: 2.209 cumulative IPC: 2.129 (Simulation time: 11 hr 31 min 12 sec)
Heartbeat CPU 1 instructions: 3650000000 cycles: 1696422905 heartbeat IPC: 2.141 cumulative IPC: 2.129 (Simulation time: 11 hr 32 min 45 sec)
Heartbeat CPU 1 instructions: 3660000003 cycles: 1701006364 heartbeat IPC: 2.182 cumulative IPC: 2.129 (Simulation time: 11 hr 34 min 17 sec)
Heartbeat CPU 1 instructions: 3670000003 cycles: 1705626650 heartbeat IPC: 2.164 cumulative IPC: 2.129 (Simulation time: 11 hr 35 min 50 sec)
Heartbeat CPU 1 instructions: 3680000000 cycles: 1710402710 heartbeat IPC: 2.094 cumulative IPC: 2.129 (Simulation time: 11 hr 37 min 26 sec)
Heartbeat CPU 1 instructions: 3690000002 cycles: 1715110081 heartbeat IPC: 2.124 cumulative IPC: 2.129 (Simulation time: 11 hr 38 min 59 sec)
Heartbeat CPU 2 instructions: 540000003 cycles: 1715876658 heartbeat IPC: 0.2897 cumulative IPC: 0.286 (Simulation time: 11 hr 39 min 15 sec)
Heartbeat CPU 1 instructions: 3700000001 cycles: 1719759752 heartbeat IPC: 2.151 cumulative IPC: 2.129 (Simulation time: 11 hr 40 min 33 sec)
Heartbeat CPU 1 instructions: 3710000002 cycles: 1724383845 heartbeat IPC: 2.163 cumulative IPC: 2.129 (Simulation time: 11 hr 42 min 04 sec)
Heartbeat CPU 3 instructions: 330000003 cycles: 1725823517 heartbeat IPC: 0.163 cumulative IPC: 0.1574 (Simulation time: 11 hr 42 min 32 sec)
Heartbeat CPU 1 instructions: 3720000001 cycles: 1729124133 heartbeat IPC: 2.11 cumulative IPC: 2.129 (Simulation time: 11 hr 43 min 39 sec)
Heartbeat CPU 1 instructions: 3730000000 cycles: 1733648180 heartbeat IPC: 2.21 cumulative IPC: 2.129 (Simulation time: 11 hr 45 min 11 sec)
Heartbeat CPU 1 instructions: 3740000001 cycles: 1738162213 heartbeat IPC: 2.215 cumulative IPC: 2.13 (Simulation time: 11 hr 46 min 42 sec)
Heartbeat CPU 1 instructions: 3750000000 cycles: 1742421660 heartbeat IPC: 2.348 cumulative IPC: 2.13 (Simulation time: 11 hr 48 min 08 sec)
Heartbeat CPU 1 instructions: 3760000002 cycles: 1746757088 heartbeat IPC: 2.307 cumulative IPC: 2.131 (Simulation time: 11 hr 49 min 34 sec)
Heartbeat CPU 2 instructions: 550000000 cycles: 1750269399 heartbeat IPC: 0.2908 cumulative IPC: 0.2861 (Simulation time: 11 hr 50 min 51 sec)
Heartbeat CPU 1 instructions: 3770000000 cycles: 1751230659 heartbeat IPC: 2.235 cumulative IPC: 2.131 (Simulation time: 11 hr 51 min 21 sec)
Heartbeat CPU 1 instructions: 3780000000 cycles: 1755522661 heartbeat IPC: 2.33 cumulative IPC: 2.131 (Simulation time: 11 hr 53 min 33 sec)
Heartbeat CPU 1 instructions: 3790000001 cycles: 1759824313 heartbeat IPC: 2.325 cumulative IPC: 2.132 (Simulation time: 11 hr 55 min 43 sec)
Heartbeat CPU 1 instructions: 3800000002 cycles: 1764106205 heartbeat IPC: 2.335 cumulative IPC: 2.132 (Simulation time: 11 hr 57 min 56 sec)
Heartbeat CPU 1 instructions: 3810000001 cycles: 1768583602 heartbeat IPC: 2.233 cumulative IPC: 2.133 (Simulation time: 12 hr 00 min 13 sec)
Heartbeat CPU 1 instructions: 3820000001 cycles: 1772886719 heartbeat IPC: 2.324 cumulative IPC: 2.133 (Simulation time: 12 hr 02 min 26 sec)
Heartbeat CPU 1 instructions: 3830000000 cycles: 1777366219 heartbeat IPC: 2.232 cumulative IPC: 2.133 (Simulation time: 12 hr 04 min 40 sec)
Heartbeat CPU 1 instructions: 3840000000 cycles: 1781654579 heartbeat IPC: 2.332 cumulative IPC: 2.134 (Simulation time: 12 hr 06 min 51 sec)
Heartbeat CPU 2 instructions: 560000002 cycles: 1783917611 heartbeat IPC: 0.2972 cumulative IPC: 0.2863 (Simulation time: 12 hr 08 min 02 sec)
Heartbeat CPU 3 instructions: 340000004 cycles: 1785436736 heartbeat IPC: 0.1677 cumulative IPC: 0.1578 (Simulation time: 12 hr 08 min 47 sec)
Heartbeat CPU 1 instructions: 3850000000 cycles: 1785946669 heartbeat IPC: 2.33 cumulative IPC: 2.134 (Simulation time: 12 hr 09 min 03 sec)
Heartbeat CPU 1 instructions: 3860000000 cycles: 1790209559 heartbeat IPC: 2.346 cumulative IPC: 2.135 (Simulation time: 12 hr 11 min 14 sec)
Heartbeat CPU 1 instructions: 3870000003 cycles: 1794702937 heartbeat IPC: 2.225 cumulative IPC: 2.135 (Simulation time: 12 hr 13 min 26 sec)
Heartbeat CPU 1 instructions: 3880000002 cycles: 1799020002 heartbeat IPC: 2.316 cumulative IPC: 2.136 (Simulation time: 12 hr 15 min 36 sec)
Heartbeat CPU 0 instructions: 120000004 cycles: 1801250422 heartbeat IPC: 0.03931 cumulative IPC: 0.03932 (Simulation time: 12 hr 16 min 43 sec)
Heartbeat CPU 1 instructions: 3890000004 cycles: 1803684995 heartbeat IPC: 2.144 cumulative IPC: 2.136 (Simulation time: 12 hr 17 min 55 sec)
Heartbeat CPU 1 instructions: 3900000001 cycles: 1807997492 heartbeat IPC: 2.319 cumulative IPC: 2.136 (Simulation time: 12 hr 20 min 05 sec)
Heartbeat CPU 2 instructions: 570000002 cycles: 1821276005 heartbeat IPC: 0.2677 cumulative IPC: 0.2859 (Simulation time: 12 hr 26 min 03 sec)
Heartbeat CPU 1 instructions: 3910000001 cycles: 1822344760 heartbeat IPC: 0.697 cumulative IPC: 2.125 (Simulation time: 12 hr 26 min 34 sec)
Heartbeat CPU 1 instructions: 3920000000 cycles: 1826779154 heartbeat IPC: 2.255 cumulative IPC: 2.125 (Simulation time: 12 hr 28 min 45 sec)
Heartbeat CPU 1 instructions: 3930000001 cycles: 1831054045 heartbeat IPC: 2.339 cumulative IPC: 2.125 (Simulation time: 12 hr 30 min 57 sec)
Heartbeat CPU 1 instructions: 3940000002 cycles: 1835477887 heartbeat IPC: 2.26 cumulative IPC: 2.126 (Simulation time: 12 hr 33 min 10 sec)
Heartbeat CPU 1 instructions: 3950000003 cycles: 1839792207 heartbeat IPC: 2.318 cumulative IPC: 2.126 (Simulation time: 12 hr 35 min 18 sec)
Heartbeat CPU 1 instructions: 3960000004 cycles: 1844081353 heartbeat IPC: 2.331 cumulative IPC: 2.127 (Simulation time: 12 hr 37 min 30 sec)
Heartbeat CPU 1 instructions: 3970000003 cycles: 1848577660 heartbeat IPC: 2.224 cumulative IPC: 2.127 (Simulation time: 12 hr 39 min 45 sec)
Heartbeat CPU 3 instructions: 350000001 cycles: 1850200445 heartbeat IPC: 0.1544 cumulative IPC: 0.1576 (Simulation time: 12 hr 40 min 33 sec)
Heartbeat CPU 1 instructions: 3980000004 cycles: 1852887814 heartbeat IPC: 2.32 cumulative IPC: 2.127 (Simulation time: 12 hr 41 min 53 sec)
Heartbeat CPU 2 instructions: 580000002 cycles: 1855301723 heartbeat IPC: 0.2939 cumulative IPC: 0.2861 (Simulation time: 12 hr 43 min 04 sec)
Heartbeat CPU 1 instructions: 3990000001 cycles: 1857201407 heartbeat IPC: 2.318 cumulative IPC: 2.128 (Simulation time: 12 hr 44 min 01 sec)
*** Reached end of trace: (1, "/home/das/dpc3_traces/603.bwaves_s-3699B.champsimtrace.xz")
Heartbeat CPU 1 instructions: 4000000000 cycles: 1861501924 heartbeat IPC: 2.325 cumulative IPC: 2.128 (Simulation time: 12 hr 46 min 09 sec)
Heartbeat CPU 1 instructions: 4010000003 cycles: 1865834897 heartbeat IPC: 2.308 cumulative IPC: 2.129 (Simulation time: 12 hr 48 min 18 sec)
Heartbeat CPU 1 instructions: 4020000003 cycles: 1874636275 heartbeat IPC: 1.136 cumulative IPC: 2.124 (Simulation time: 12 hr 52 min 23 sec)
Heartbeat CPU 1 instructions: 4030000004 cycles: 1884002311 heartbeat IPC: 1.068 cumulative IPC: 2.119 (Simulation time: 12 hr 56 min 56 sec)
Heartbeat CPU 1 instructions: 4040000000 cycles: 1888445607 heartbeat IPC: 2.251 cumulative IPC: 2.119 (Simulation time: 12 hr 59 min 22 sec)
Heartbeat CPU 2 instructions: 590000002 cycles: 1892458795 heartbeat IPC: 0.2691 cumulative IPC: 0.2857 (Simulation time: 13 hr 01 min 36 sec)
Heartbeat CPU 1 instructions: 4050000001 cycles: 1892860030 heartbeat IPC: 2.265 cumulative IPC: 2.119 (Simulation time: 13 hr 01 min 49 sec)
Heartbeat CPU 1 instructions: 4060000000 cycles: 1897232965 heartbeat IPC: 2.287 cumulative IPC: 2.12 (Simulation time: 13 hr 04 min 12 sec)
Heartbeat CPU 1 instructions: 4070000002 cycles: 1901677099 heartbeat IPC: 2.25 cumulative IPC: 2.12 (Simulation time: 13 hr 07 min 01 sec)
Heartbeat CPU 1 instructions: 4080000001 cycles: 1905989768 heartbeat IPC: 2.319 cumulative IPC: 2.12 (Simulation time: 13 hr 09 min 41 sec)
Heartbeat CPU 1 instructions: 4090000004 cycles: 1910429648 heartbeat IPC: 2.252 cumulative IPC: 2.121 (Simulation time: 13 hr 12 min 50 sec)
Heartbeat CPU 1 instructions: 4100000003 cycles: 1914822016 heartbeat IPC: 2.277 cumulative IPC: 2.121 (Simulation time: 13 hr 16 min 18 sec)
Heartbeat CPU 3 instructions: 360000003 cycles: 1916082192 heartbeat IPC: 0.1518 cumulative IPC: 0.1574 (Simulation time: 13 hr 17 min 16 sec)
Heartbeat CPU 1 instructions: 4110000000 cycles: 1919422199 heartbeat IPC: 2.174 cumulative IPC: 2.121 (Simulation time: 13 hr 19 min 41 sec)
Heartbeat CPU 1 instructions: 4120000003 cycles: 1923870068 heartbeat IPC: 2.248 cumulative IPC: 2.122 (Simulation time: 13 hr 22 min 37 sec)
Heartbeat CPU 2 instructions: 600000004 cycles: 1926416883 heartbeat IPC: 0.2945 cumulative IPC: 0.2859 (Simulation time: 13 hr 24 min 06 sec)
Heartbeat CPU 1 instructions: 4130000003 cycles: 1928510182 heartbeat IPC: 2.155 cumulative IPC: 2.122 (Simulation time: 13 hr 25 min 12 sec)
Heartbeat CPU 1 instructions: 4140000000 cycles: 1933132425 heartbeat IPC: 2.163 cumulative IPC: 2.122 (Simulation time: 13 hr 27 min 38 sec)
Heartbeat CPU 1 instructions: 4150000000 cycles: 1937645230 heartbeat IPC: 2.216 cumulative IPC: 2.122 (Simulation time: 13 hr 29 min 53 sec)
Heartbeat CPU 1 instructions: 4160000004 cycles: 1942257278 heartbeat IPC: 2.168 cumulative IPC: 2.122 (Simulation time: 13 hr 32 min 16 sec)
Heartbeat CPU 1 instructions: 4170000001 cycles: 1946837543 heartbeat IPC: 2.183 cumulative IPC: 2.122 (Simulation time: 13 hr 34 min 42 sec)
Heartbeat CPU 1 instructions: 4180000000 cycles: 1951574705 heartbeat IPC: 2.111 cumulative IPC: 2.122 (Simulation time: 13 hr 37 min 37 sec)
Heartbeat CPU 1 instructions: 4190000004 cycles: 1956216482 heartbeat IPC: 2.154 cumulative IPC: 2.122 (Simulation time: 13 hr 40 min 24 sec)
Heartbeat CPU 2 instructions: 610000001 cycles: 1960553525 heartbeat IPC: 0.2929 cumulative IPC: 0.286 (Simulation time: 13 hr 42 min 47 sec)
Heartbeat CPU 1 instructions: 4200000002 cycles: 1960722339 heartbeat IPC: 2.219 cumulative IPC: 2.122 (Simulation time: 13 hr 42 min 52 sec)
Heartbeat CPU 1 instructions: 4210000004 cycles: 1965477348 heartbeat IPC: 2.103 cumulative IPC: 2.122 (Simulation time: 13 hr 46 min 02 sec)
Heartbeat CPU 1 instructions: 4220000000 cycles: 1970392289 heartbeat IPC: 2.035 cumulative IPC: 2.122 (Simulation time: 13 hr 49 min 06 sec)
Heartbeat CPU 1 instructions: 4230000003 cycles: 1975138592 heartbeat IPC: 2.107 cumulative IPC: 2.122 (Simulation time: 13 hr 51 min 57 sec)
Heartbeat CPU 3 instructions: 370000002 cycles: 1976745328 heartbeat IPC: 0.1648 cumulative IPC: 0.1577 (Simulation time: 13 hr 52 min 54 sec)
Heartbeat CPU 1 instructions: 4240000004 cycles: 1979861004 heartbeat IPC: 2.118 cumulative IPC: 2.122 (Simulation time: 13 hr 54 min 57 sec)
Heartbeat CPU 1 instructions: 4250000003 cycles: 1984542750 heartbeat IPC: 2.136 cumulative IPC: 2.122 (Simulation time: 13 hr 57 min 20 sec)
Heartbeat CPU 1 instructions: 4260000000 cycles: 1989121768 heartbeat IPC: 2.184 cumulative IPC: 2.122 (Simulation time: 13 hr 59 min 37 sec)
Heartbeat CPU 1 instructions: 4270000001 cycles: 1993892030 heartbeat IPC: 2.096 cumulative IPC: 2.122 (Simulation time: 14 hr 01 min 56 sec)
Heartbeat CPU 2 instructions: 620000000 cycles: 1995812550 heartbeat IPC: 0.2836 cumulative IPC: 0.286 (Simulation time: 14 hr 02 min 52 sec)
Heartbeat CPU 1 instructions: 4280000003 cycles: 1998465176 heartbeat IPC: 2.187 cumulative IPC: 2.122 (Simulation time: 14 hr 04 min 11 sec)
Heartbeat CPU 1 instructions: 4290000000 cycles: 2003094715 heartbeat IPC: 2.16 cumulative IPC: 2.122 (Simulation time: 14 hr 06 min 27 sec)
Heartbeat CPU 1 instructions: 4300000000 cycles: 2007778259 heartbeat IPC: 2.135 cumulative IPC: 2.123 (Simulation time: 14 hr 08 min 40 sec)
Heartbeat CPU 1 instructions: 4310000001 cycles: 2012364012 heartbeat IPC: 2.181 cumulative IPC: 2.123 (Simulation time: 14 hr 10 min 56 sec)
Heartbeat CPU 1 instructions: 4320000000 cycles: 2016979407 heartbeat IPC: 2.167 cumulative IPC: 2.123 (Simulation time: 14 hr 13 min 11 sec)
Heartbeat CPU 1 instructions: 4330000002 cycles: 2021700289 heartbeat IPC: 2.118 cumulative IPC: 2.123 (Simulation time: 14 hr 15 min 30 sec)
Heartbeat CPU 1 instructions: 4340000002 cycles: 2026452131 heartbeat IPC: 2.104 cumulative IPC: 2.123 (Simulation time: 14 hr 17 min 47 sec)
Heartbeat CPU 2 instructions: 630000004 cycles: 2031070537 heartbeat IPC: 0.2836 cumulative IPC: 0.2859 (Simulation time: 14 hr 19 min 59 sec)
Heartbeat CPU 1 instructions: 4350000004 cycles: 2031212307 heartbeat IPC: 2.101 cumulative IPC: 2.123 (Simulation time: 14 hr 20 min 03 sec)
Heartbeat CPU 1 instructions: 4360000002 cycles: 2036111991 heartbeat IPC: 2.041 cumulative IPC: 2.122 (Simulation time: 14 hr 22 min 22 sec)
Heartbeat CPU 3 instructions: 380000000 cycles: 2038271514 heartbeat IPC: 0.1625 cumulative IPC: 0.1578 (Simulation time: 14 hr 23 min 26 sec)
Heartbeat CPU 1 instructions: 4370000000 cycles: 2040827279 heartbeat IPC: 2.121 cumulative IPC: 2.122 (Simulation time: 14 hr 24 min 39 sec)
[...]
cpu2_L2C PREFETCH     ACCESS:          0 HIT:          0 MISS:          0
cpu2_L2C WRITE        ACCESS:          0 HIT:          0 MISS:          0
cpu2_L2C TRANSLATION  ACCESS:          0 HIT:          0 MISS:          0
cpu2_L2C PREFETCH REQUESTED:    1527597 ISSUED:    1527597 USEFUL:     138332 USELESS:       7040
cpu2_L2C AVERAGE MISS LATENCY: 3745 cycles
cpu2_L2C TOTAL        ACCESS:          0 HIT:          0 MISS:          0
cpu2_L2C LOAD         ACCESS:          0 HIT:          0 MISS:          0
cpu2_L2C RFO          ACCESS:          0 HIT:          0 MISS:          0
cpu2_L2C PREFETCH     ACCESS:          0 HIT:          0 MISS:          0
cpu2_L2C WRITE        ACCESS:          0 HIT:          0 MISS:          0
cpu2_L2C TRANSLATION  ACCESS:          0 HIT:          0 MISS:          0
cpu2_L2C PREFETCH REQUESTED:    1527597 ISSUED:    1527597 USEFUL:     138332 USELESS:       7040
cpu2_L2C AVERAGE MISS LATENCY: 3745 cycles
cpu2_L2C TOTAL        ACCESS:   18519448 HIT:   16957463 MISS:    1561985
cpu2_L2C LOAD         ACCESS:   16337153 HIT:   14816294 MISS:    1520859
cpu2_L2C RFO          ACCESS:     666456 HIT:     664082 MISS:       2374
cpu2_L2C PREFETCH     ACCESS:     196159 HIT:     180063 MISS:      16096
cpu2_L2C WRITE        ACCESS:    1291636 HIT:    1291636 MISS:          0
cpu2_L2C TRANSLATION  ACCESS:      28044 HIT:       5388 MISS:      22656
cpu2_L2C PREFETCH REQUESTED:    1527597 ISSUED:    1527597 USEFUL:     138332 USELESS:       7040
cpu2_L2C AVERAGE MISS LATENCY: 3745 cycles
cpu2_L2C TOTAL        ACCESS:          0 HIT:          0 MISS:          0
cpu2_L2C LOAD         ACCESS:          0 HIT:          0 MISS:          0
cpu2_L2C RFO          ACCESS:          0 HIT:          0 MISS:          0
cpu2_L2C PREFETCH     ACCESS:          0 HIT:          0 MISS:          0
cpu2_L2C WRITE        ACCESS:          0 HIT:          0 MISS:          0
cpu2_L2C TRANSLATION  ACCESS:          0 HIT:          0 MISS:          0
cpu2_L2C PREFETCH REQUESTED:    1527597 ISSUED:    1527597 USEFUL:     138332 USELESS:       7040
cpu2_L2C AVERAGE MISS LATENCY: 3745 cycles
cpu2_STLB TOTAL        ACCESS:          0 HIT:          0 MISS:          0
cpu2_STLB LOAD         ACCESS:          0 HIT:          0 MISS:          0
cpu2_STLB RFO          ACCESS:          0 HIT:          0 MISS:          0
cpu2_STLB PREFETCH     ACCESS:          0 HIT:          0 MISS:          0
cpu2_STLB WRITE        ACCESS:          0 HIT:          0 MISS:          0
cpu2_STLB TRANSLATION  ACCESS:          0 HIT:          0 MISS:          0
cpu2_STLB PREFETCH REQUESTED:          0 ISSUED:          0 USEFUL:          0 USELESS:          0
cpu2_STLB AVERAGE MISS LATENCY: 4097 cycles
cpu2_STLB TOTAL        ACCESS:          0 HIT:          0 MISS:          0
cpu2_STLB LOAD         ACCESS:          0 HIT:          0 MISS:          0
cpu2_STLB RFO          ACCESS:          0 HIT:          0 MISS:          0
cpu2_STLB PREFETCH     ACCESS:          0 HIT:          0 MISS:          0
cpu2_STLB WRITE        ACCESS:          0 HIT:          0 MISS:          0
cpu2_STLB TRANSLATION  ACCESS:          0 HIT:          0 MISS:          0
cpu2_STLB PREFETCH REQUESTED:          0 ISSUED:          0 USEFUL:          0 USELESS:          0
cpu2_STLB AVERAGE MISS LATENCY: 4097 cycles
cpu2_STLB TOTAL        ACCESS:   11317858 HIT:   11299708 MISS:      18150
cpu2_STLB LOAD         ACCESS:   11317858 HIT:   11299708 MISS:      18150
cpu2_STLB RFO          ACCESS:          0 HIT:          0 MISS:          0
cpu2_STLB PREFETCH     ACCESS:          0 HIT:          0 MISS:          0
cpu2_STLB WRITE        ACCESS:          0 HIT:          0 MISS:          0
cpu2_STLB TRANSLATION  ACCESS:          0 HIT:          0 MISS:          0
cpu2_STLB PREFETCH REQUESTED:          0 ISSUED:          0 USEFUL:          0 USELESS:          0
cpu2_STLB AVERAGE MISS LATENCY: 4097 cycles
cpu2_STLB TOTAL        ACCESS:          0 HIT:          0 MISS:          0
cpu2_STLB LOAD         ACCESS:          0 HIT:          0 MISS:          0
cpu2_STLB RFO          ACCESS:          0 HIT:          0 MISS:          0
cpu2_STLB PREFETCH     ACCESS:          0 HIT:          0 MISS:          0
cpu2_STLB WRITE        ACCESS:          0 HIT:          0 MISS:          0
cpu2_STLB TRANSLATION  ACCESS:          0 HIT:          0 MISS:          0
cpu2_STLB PREFETCH REQUESTED:          0 ISSUED:          0 USEFUL:          0 USELESS:          0
cpu2_STLB AVERAGE MISS LATENCY: 4097 cycles
cpu3_DTLB TOTAL        ACCESS:          0 HIT:          0 MISS:          0
cpu3_DTLB LOAD         ACCESS:          0 HIT:          0 MISS:          0
cpu3_DTLB RFO          ACCESS:          0 HIT:          0 MISS:          0
cpu3_DTLB PREFETCH     ACCESS:          0 HIT:          0 MISS:          0
cpu3_DTLB WRITE        ACCESS:          0 HIT:          0 MISS:          0
cpu3_DTLB TRANSLATION  ACCESS:          0 HIT:          0 MISS:          0
cpu3_DTLB PREFETCH REQUESTED:          0 ISSUED:          0 USEFUL:          0 USELESS:          0
cpu3_DTLB AVERAGE MISS LATENCY: 89.67 cycles
cpu3_DTLB TOTAL        ACCESS:          0 HIT:          0 MISS:          0
cpu3_DTLB LOAD         ACCESS:          0 HIT:          0 MISS:          0
cpu3_DTLB RFO          ACCESS:          0 HIT:          0 MISS:          0
cpu3_DTLB PREFETCH     ACCESS:          0 HIT:          0 MISS:          0
cpu3_DTLB WRITE        ACCESS:          0 HIT:          0 MISS:          0
cpu3_DTLB TRANSLATION  ACCESS:          0 HIT:          0 MISS:          0
cpu3_DTLB PREFETCH REQUESTED:          0 ISSUED:          0 USEFUL:          0 USELESS:          0
cpu3_DTLB AVERAGE MISS LATENCY: 89.67 cycles
cpu3_DTLB TOTAL        ACCESS:          0 HIT:          0 MISS:          0
cpu3_DTLB LOAD         ACCESS:          0 HIT:          0 MISS:          0
cpu3_DTLB RFO          ACCESS:          0 HIT:          0 MISS:          0
cpu3_DTLB PREFETCH     ACCESS:          0 HIT:          0 MISS:          0
cpu3_DTLB WRITE        ACCESS:          0 HIT:          0 MISS:          0
cpu3_DTLB TRANSLATION  ACCESS:          0 HIT:          0 MISS:          0
cpu3_DTLB PREFETCH REQUESTED:          0 ISSUED:          0 USEFUL:          0 USELESS:          0
cpu3_DTLB AVERAGE MISS LATENCY: 89.67 cycles
cpu3_DTLB TOTAL        ACCESS:   24464912 HIT:   24153597 MISS:     311315
cpu3_DTLB LOAD         ACCESS:   24464912 HIT:   24153597 MISS:     311315
cpu3_DTLB RFO          ACCESS:          0 HIT:          0 MISS:          0
cpu3_DTLB PREFETCH     ACCESS:          0 HIT:          0 MISS:          0
cpu3_DTLB WRITE        ACCESS:          0 HIT:          0 MISS:          0
cpu3_DTLB TRANSLATION  ACCESS:          0 HIT:          0 MISS:          0
cpu3_DTLB PREFETCH REQUESTED:          0 ISSUED:          0 USEFUL:          0 USELESS:          0
cpu3_DTLB AVERAGE MISS LATENCY: 89.67 cycles
cpu3_ITLB TOTAL        ACCESS:          0 HIT:          0 MISS:          0
cpu3_ITLB LOAD         ACCESS:          0 HIT:          0 MISS:          0
cpu3_ITLB RFO          ACCESS:          0 HIT:          0 MISS:          0
cpu3_ITLB PREFETCH     ACCESS:          0 HIT:          0 MISS:          0
cpu3_ITLB WRITE        ACCESS:          0 HIT:          0 MISS:          0
cpu3_ITLB TRANSLATION  ACCESS:          0 HIT:          0 MISS:          0
cpu3_ITLB PREFETCH REQUESTED:          0 ISSUED:          0 USEFUL:          0 USELESS:          0
cpu3_ITLB AVERAGE MISS LATENCY: -nan cycles
cpu3_ITLB TOTAL        ACCESS:          0 HIT:          0 MISS:          0
cpu3_ITLB LOAD         ACCESS:          0 HIT:          0 MISS:          0
cpu3_ITLB RFO          ACCESS:          0 HIT:          0 MISS:          0
cpu3_ITLB PREFETCH     ACCESS:          0 HIT:          0 MISS:          0
cpu3_ITLB WRITE        ACCESS:          0 HIT:          0 MISS:          0
cpu3_ITLB TRANSLATION  ACCESS:          0 HIT:          0 MISS:          0
cpu3_ITLB PREFETCH REQUESTED:          0 ISSUED:          0 USEFUL:          0 USELESS:          0
cpu3_ITLB AVERAGE MISS LATENCY: -nan cycles
cpu3_ITLB TOTAL        ACCESS:          0 HIT:          0 MISS:          0
cpu3_ITLB LOAD         ACCESS:          0 HIT:          0 MISS:          0
cpu3_ITLB RFO          ACCESS:          0 HIT:          0 MISS:          0
cpu3_ITLB PREFETCH     ACCESS:          0 HIT:          0 MISS:          0
cpu3_ITLB WRITE        ACCESS:          0 HIT:          0 MISS:          0
cpu3_ITLB TRANSLATION  ACCESS:          0 HIT:          0 MISS:          0
cpu3_ITLB PREFETCH REQUESTED:          0 ISSUED:          0 USEFUL:          0 USELESS:          0
cpu3_ITLB AVERAGE MISS LATENCY: -nan cycles
cpu3_ITLB TOTAL        ACCESS:          0 HIT:          0 MISS:          0
cpu3_ITLB LOAD         ACCESS:          0 HIT:          0 MISS:          0
cpu3_ITLB RFO          ACCESS:          0 HIT:          0 MISS:          0
cpu3_ITLB PREFETCH     ACCESS:          0 HIT:          0 MISS:          0
cpu3_ITLB WRITE        ACCESS:          0 HIT:          0 MISS:          0
cpu3_ITLB TRANSLATION  ACCESS:          0 HIT:          0 MISS:          0
cpu3_ITLB PREFETCH REQUESTED:          0 ISSUED:          0 USEFUL:          0 USELESS:          0
cpu3_ITLB AVERAGE MISS LATENCY: -nan cycles
cpu3_L1D TOTAL        ACCESS:          0 HIT:          0 MISS:          0
cpu3_L1D LOAD         ACCESS:          0 HIT:          0 MISS:          0
cpu3_L1D RFO          ACCESS:          0 HIT:          0 MISS:          0
cpu3_L1D PREFETCH     ACCESS:          0 HIT:          0 MISS:          0
cpu3_L1D WRITE        ACCESS:          0 HIT:          0 MISS:          0
cpu3_L1D TRANSLATION  ACCESS:          0 HIT:          0 MISS:          0
cpu3_L1D PREFETCH REQUESTED:          0 ISSUED:          0 USEFUL:          0 USELESS:          0
cpu3_L1D AVERAGE MISS LATENCY: 1609 cycles
cpu3_L1D TOTAL        ACCESS:          0 HIT:          0 MISS:          0
cpu3_L1D LOAD         ACCESS:          0 HIT:          0 MISS:          0
cpu3_L1D RFO          ACCESS:          0 HIT:          0 MISS:          0
cpu3_L1D PREFETCH     ACCESS:          0 HIT:          0 MISS:          0
cpu3_L1D WRITE        ACCESS:          0 HIT:          0 MISS:          0
cpu3_L1D TRANSLATION  ACCESS:          0 HIT:          0 MISS:          0
cpu3_L1D PREFETCH REQUESTED:          0 ISSUED:          0 USEFUL:          0 USELESS:          0
cpu3_L1D AVERAGE MISS LATENCY: 1609 cycles
cpu3_L1D TOTAL        ACCESS:          0 HIT:          0 MISS:          0
cpu3_L1D LOAD         ACCESS:          0 HIT:          0 MISS:          0
cpu3_L1D RFO          ACCESS:          0 HIT:          0 MISS:          0
cpu3_L1D PREFETCH     ACCESS:          0 HIT:          0 MISS:          0
cpu3_L1D WRITE        ACCESS:          0 HIT:          0 MISS:          0
cpu3_L1D TRANSLATION  ACCESS:          0 HIT:          0 MISS:          0
cpu3_L1D PREFETCH REQUESTED:          0 ISSUED:          0 USEFUL:          0 USELESS:          0
cpu3_L1D AVERAGE MISS LATENCY: 1609 cycles
cpu3_L1D TOTAL        ACCESS:   32420224 HIT:   18696868 MISS:   13723356
cpu3_L1D LOAD         ACCESS:    4901058 HIT:    2755719 MISS:    2145339
cpu3_L1D RFO          ACCESS:          0 HIT:          0 MISS:          0
cpu3_L1D PREFETCH     ACCESS:          0 HIT:          0 MISS:          0
cpu3_L1D WRITE        ACCESS:   27406708 HIT:   15940836 MISS:   11465872
cpu3_L1D TRANSLATION  ACCESS:     112458 HIT:        313 MISS:     112145
cpu3_L1D PREFETCH REQUESTED:          0 ISSUED:          0 USEFUL:          0 USELESS:          0
cpu3_L1D AVERAGE MISS LATENCY: 1609 cycles
cpu3_L1I TOTAL        ACCESS:          0 HIT:          0 MISS:          0
cpu3_L1I LOAD         ACCESS:          0 HIT:          0 MISS:          0
cpu3_L1I RFO          ACCESS:          0 HIT:          0 MISS:          0
cpu3_L1I PREFETCH     ACCESS:          0 HIT:          0 MISS:          0
cpu3_L1I WRITE        ACCESS:          0 HIT:          0 MISS:          0
cpu3_L1I TRANSLATION  ACCESS:          0 HIT:          0 MISS:          0
cpu3_L1I PREFETCH REQUESTED:          0 ISSUED:          0 USEFUL:          0 USELESS:          0
cpu3_L1I AVERAGE MISS LATENCY: -nan cycles
cpu3_L1I TOTAL        ACCESS:          0 HIT:          0 MISS:          0
cpu3_L1I LOAD         ACCESS:          0 HIT:          0 MISS:          0
cpu3_L1I RFO          ACCESS:          0 HIT:          0 MISS:          0
cpu3_L1I PREFETCH     ACCESS:          0 HIT:          0 MISS:          0
cpu3_L1I WRITE        ACCESS:          0 HIT:          0 MISS:          0
cpu3_L1I TRANSLATION  ACCESS:          0 HIT:          0 MISS:          0
cpu3_L1I PREFETCH REQUESTED:          0 ISSUED:          0 USEFUL:          0 USELESS:          0
cpu3_L1I AVERAGE MISS LATENCY: -nan cycles
cpu3_L1I TOTAL        ACCESS:          0 HIT:          0 MISS:          0
cpu3_L1I LOAD         ACCESS:          0 HIT:          0 MISS:          0
cpu3_L1I RFO          ACCESS:          0 HIT:          0 MISS:          0
cpu3_L1I PREFETCH     ACCESS:          0 HIT:          0 MISS:          0
cpu3_L1I WRITE        ACCESS:          0 HIT:          0 MISS:          0
cpu3_L1I TRANSLATION  ACCESS:          0 HIT:          0 MISS:          0
cpu3_L1I PREFETCH REQUESTED:          0 ISSUED:          0 USEFUL:          0 USELESS:          0
cpu3_L1I AVERAGE MISS LATENCY: -nan cycles
cpu3_L1I TOTAL        ACCESS:          0 HIT:          0 MISS:          0
cpu3_L1I LOAD         ACCESS:          0 HIT:          0 MISS:          0
cpu3_L1I RFO          ACCESS:          0 HIT:          0 MISS:          0
cpu3_L1I PREFETCH     ACCESS:          0 HIT:          0 MISS:          0
cpu3_L1I WRITE        ACCESS:          0 HIT:          0 MISS:          0
cpu3_L1I TRANSLATION  ACCESS:          0 HIT:          0 MISS:          0
cpu3_L1I PREFETCH REQUESTED:          0 ISSUED:          0 USEFUL:          0 USELESS:          0
cpu3_L1I AVERAGE MISS LATENCY: -nan cycles
cpu3_L2C TOTAL        ACCESS:          0 HIT:          0 MISS:          0
cpu3_L2C LOAD         ACCESS:          0 HIT:          0 MISS:          0
cpu3_L2C RFO          ACCESS:          0 HIT:          0 MISS:          0
cpu3_L2C PREFETCH     ACCESS:          0 HIT:          0 MISS:          0
cpu3_L2C WRITE        ACCESS:          0 HIT:          0 MISS:          0
cpu3_L2C TRANSLATION  ACCESS:          0 HIT:          0 MISS:          0
cpu3_L2C PREFETCH REQUESTED:   35016279 ISSUED:   34827192 USEFUL:    5762221 USELESS:     121429
cpu3_L2C AVERAGE MISS LATENCY: 2249 cycles
cpu3_L2C TOTAL        ACCESS:          0 HIT:          0 MISS:          0
cpu3_L2C LOAD         ACCESS:          0 HIT:          0 MISS:          0
cpu3_L2C RFO          ACCESS:          0 HIT:          0 MISS:          0
cpu3_L2C PREFETCH     ACCESS:          0 HIT:          0 MISS:          0
cpu3_L2C WRITE        ACCESS:          0 HIT:          0 MISS:          0
cpu3_L2C TRANSLATION  ACCESS:          0 HIT:          0 MISS:          0
cpu3_L2C PREFETCH REQUESTED:   35016279 ISSUED:   34827192 USEFUL:    5762221 USELESS:     121429
cpu3_L2C AVERAGE MISS LATENCY: 2249 cycles
cpu3_L2C TOTAL        ACCESS:          0 HIT:          0 MISS:          0
cpu3_L2C LOAD         ACCESS:          0 HIT:          0 MISS:          0
cpu3_L2C RFO          ACCESS:          0 HIT:          0 MISS:          0
cpu3_L2C PREFETCH     ACCESS:          0 HIT:          0 MISS:          0
cpu3_L2C WRITE        ACCESS:          0 HIT:          0 MISS:          0
cpu3_L2C TRANSLATION  ACCESS:          0 HIT:          0 MISS:          0
cpu3_L2C PREFETCH REQUESTED:   35016279 ISSUED:   34827192 USEFUL:    5762221 USELESS:     121429
cpu3_L2C AVERAGE MISS LATENCY: 2249 cycles
cpu3_L2C TOTAL        ACCESS:   29998030 HIT:   18058864 MISS:   11939166
cpu3_L2C LOAD         ACCESS:    1797226 HIT:     950075 MISS:     847151
cpu3_L2C RFO          ACCESS:   10150136 HIT:    4856759 MISS:    5293377
cpu3_L2C PREFETCH     ACCESS:    7787819 HIT:    1989911 MISS:    5797908
cpu3_L2C WRITE        ACCESS:   10150704 HIT:   10150703 MISS:          1
cpu3_L2C TRANSLATION  ACCESS:     112145 HIT:     111416 MISS:        729
cpu3_L2C PREFETCH REQUESTED:   35016279 ISSUED:   34827192 USEFUL:    5762221 USELESS:     121429
cpu3_L2C AVERAGE MISS LATENCY: 2249 cycles
cpu3_STLB TOTAL        ACCESS:          0 HIT:          0 MISS:          0
cpu3_STLB LOAD         ACCESS:          0 HIT:          0 MISS:          0
cpu3_STLB RFO          ACCESS:          0 HIT:          0 MISS:          0
cpu3_STLB PREFETCH     ACCESS:          0 HIT:          0 MISS:          0
cpu3_STLB WRITE        ACCESS:          0 HIT:          0 MISS:          0
cpu3_STLB TRANSLATION  ACCESS:          0 HIT:          0 MISS:          0
cpu3_STLB PREFETCH REQUESTED:          0 ISSUED:          0 USEFUL:          0 USELESS:          0
cpu3_STLB AVERAGE MISS LATENCY: 311.2 cycles
cpu3_STLB TOTAL        ACCESS:          0 HIT:          0 MISS:          0
cpu3_STLB LOAD         ACCESS:          0 HIT:          0 MISS:          0
cpu3_STLB RFO          ACCESS:          0 HIT:          0 MISS:          0
cpu3_STLB PREFETCH     ACCESS:          0 HIT:          0 MISS:          0
cpu3_STLB WRITE        ACCESS:          0 HIT:          0 MISS:          0
cpu3_STLB TRANSLATION  ACCESS:          0 HIT:          0 MISS:          0
cpu3_STLB PREFETCH REQUESTED:          0 ISSUED:          0 USEFUL:          0 USELESS:          0
cpu3_STLB AVERAGE MISS LATENCY: 311.2 cycles
cpu3_STLB TOTAL        ACCESS:          0 HIT:          0 MISS:          0
cpu3_STLB LOAD         ACCESS:          0 HIT:          0 MISS:          0
cpu3_STLB RFO          ACCESS:          0 HIT:          0 MISS:          0
cpu3_STLB PREFETCH     ACCESS:          0 HIT:          0 MISS:          0
cpu3_STLB WRITE        ACCESS:          0 HIT:          0 MISS:          0
cpu3_STLB TRANSLATION  ACCESS:          0 HIT:          0 MISS:          0
cpu3_STLB PREFETCH REQUESTED:          0 ISSUED:          0 USEFUL:          0 USELESS:          0
cpu3_STLB AVERAGE MISS LATENCY: 311.2 cycles
cpu3_STLB TOTAL        ACCESS:     207046 HIT:      94698 MISS:     112348
cpu3_STLB LOAD         ACCESS:     207046 HIT:      94698 MISS:     112348
cpu3_STLB RFO          ACCESS:          0 HIT:          0 MISS:          0
cpu3_STLB PREFETCH     ACCESS:          0 HIT:          0 MISS:          0
cpu3_STLB WRITE        ACCESS:          0 HIT:          0 MISS:          0
cpu3_STLB TRANSLATION  ACCESS:          0 HIT:          0 MISS:          0
cpu3_STLB PREFETCH REQUESTED:          0 ISSUED:          0 USEFUL:          0 USELESS:          0
cpu3_STLB AVERAGE MISS LATENCY: 311.2 cycles

DRAM Statistics

Channel 0 RQ ROW_BUFFER_HIT:    4622295
  ROW_BUFFER_MISS:   37298241
 AVG DBUS CONGESTED CYCLE: 3.996
WQ ROW_BUFFER_HIT: Channel 0 
  ROW_BUFFER_MISS:     492250
  FULL:   24594323
BERTI TO_L1: 14903009 TO_L2: 26148971 TO_L2_BC_MSHR: 54433
BERTI AVG_LAT: 1552.65 NUM_TRACK_LATENCY: 14636453 NUM_CANT_TRACK_LATENCY: 7881093
BERTI CROSS_PAGE 11721565 NO_CROSS_PAGE: 29330415
BERTI FOUND_BERTI: 29954905 NO_FOUND_BERTI: 106308252
BERTI AVERAGE_ISSUED: 4.27095
BERTI TO_L1: 14903009 TO_L2: 26148971 TO_L2_BC_MSHR: 54433
BERTI AVG_LAT: 1552.65 NUM_TRACK_LATENCY: 14636453 NUM_CANT_TRACK_LATENCY: 7881093
BERTI CROSS_PAGE 11721565 NO_CROSS_PAGE: 29330415
BERTI FOUND_BERTI: 29954905 NO_FOUND_BERTI: 106308252
BERTI AVERAGE_ISSUED: 4.27095
BERTI TO_L1: 14903009 TO_L2: 26148971 TO_L2_BC_MSHR: 54433
BERTI AVG_LAT: 1552.65 NUM_TRACK_LATENCY: 14636453 NUM_CANT_TRACK_LATENCY: 7881093
BERTI CROSS_PAGE 11721565 NO_CROSS_PAGE: 29330415
BERTI FOUND_BERTI: 29954905 NO_FOUND_BERTI: 106308252
BERTI AVERAGE_ISSUED: 4.27095
BERTI TO_L1: 14903009 TO_L2: 26148971 TO_L2_BC_MSHR: 54433
BERTI AVG_LAT: 1552.65 NUM_TRACK_LATENCY: 14636453 NUM_CANT_TRACK_LATENCY: 7881093
BERTI CROSS_PAGE 11721565 NO_CROSS_PAGE: 29330415
BERTI FOUND_BERTI: 29954905 NO_FOUND_BERTI: 106308252
BERTI AVERAGE_ISSUED: 4.27095
