WARNING: physical memory size is smaller than virtual memory size.
WARNING: option --warmup_instructions is deprecated. Use --warmup-instructions instead.
WARNING: option --simulation_instructions is deprecated. Use --simulation-instructions instead.

*** ChampSim Multicore Out-of-Order Simulator ***
Warmup Instructions: 50000000
Simulation Instructions: 150000000
Number of CPUs: 4
Page size: 4096

Berti Prefetcher
BERTI HASH ORIGINAL
BERTI IP MASK ffff
Berti Prefetcher
BERTI HASH ORIGINAL
BERTI IP MASK ffff
Berti Prefetcher
BERTI HASH ORIGINAL
BERTI IP MASK ffff
Berti Prefetcher
BERTI HASH ORIGINAL
BERTI IP MASK ffff
Off-chip DRAM Size: 4 GiB Channels: 1 Width: 64-bit Data Race: 3200 MT/s
Heartbeat CPU 3 instructions: 10000001 cycles: 2502909 heartbeat IPC: 3.995 cumulative IPC: 3.995 (Simulation time: 00 hr 02 min 30 sec)
Heartbeat CPU 2 instructions: 10000001 cycles: 3063425 heartbeat IPC: 3.264 cumulative IPC: 3.264 (Simulation time: 00 hr 03 min 06 sec)
Heartbeat CPU 1 instructions: 10000003 cycles: 3681949 heartbeat IPC: 2.716 cumulative IPC: 2.716 (Simulation time: 00 hr 03 min 44 sec)
Heartbeat CPU 0 instructions: 10000002 cycles: 4173894 heartbeat IPC: 2.396 cumulative IPC: 2.396 (Simulation time: 00 hr 04 min 21 sec)
Heartbeat CPU 3 instructions: 20000001 cycles: 5005630 heartbeat IPC: 3.996 cumulative IPC: 3.996 (Simulation time: 00 hr 05 min 13 sec)
Heartbeat CPU 2 instructions: 20000003 cycles: 5748590 heartbeat IPC: 3.724 cumulative IPC: 3.479 (Simulation time: 00 hr 05 min 59 sec)
Heartbeat CPU 1 instructions: 20000000 cycles: 7362404 heartbeat IPC: 2.717 cumulative IPC: 2.717 (Simulation time: 00 hr 08 min 18 sec)
Heartbeat CPU 3 instructions: 30000003 cycles: 7507965 heartbeat IPC: 3.996 cumulative IPC: 3.996 (Simulation time: 00 hr 08 min 27 sec)
Heartbeat CPU 0 instructions: 20000003 cycles: 8346840 heartbeat IPC: 2.396 cumulative IPC: 2.396 (Simulation time: 00 hr 09 min 22 sec)
Heartbeat CPU 2 instructions: 30000000 cycles: 8967489 heartbeat IPC: 3.107 cumulative IPC: 3.345 (Simulation time: 00 hr 10 min 04 sec)
Heartbeat CPU 3 instructions: 40000002 cycles: 10010596 heartbeat IPC: 3.996 cumulative IPC: 3.996 (Simulation time: 00 hr 11 min 12 sec)
Heartbeat CPU 1 instructions: 30000002 cycles: 11043612 heartbeat IPC: 2.717 cumulative IPC: 2.717 (Simulation time: 00 hr 12 min 27 sec)
Heartbeat CPU 2 instructions: 40000004 cycles: 12220808 heartbeat IPC: 3.074 cumulative IPC: 3.273 (Simulation time: 00 hr 13 min 45 sec)
Heartbeat CPU 3 instructions: 50000003 cycles: 12513280 heartbeat IPC: 3.996 cumulative IPC: 3.996 (Simulation time: 00 hr 14 min 03 sec)
Warmup finished CPU 3 instructions: 50000003 cycles: 12513281 cumulative IPC: 3.996 (Simulation time: 00 hr 14 min 03 sec)
Heartbeat CPU 0 instructions: 30000001 cycles: 12519853 heartbeat IPC: 2.396 cumulative IPC: 2.396 (Simulation time: 00 hr 14 min 03 sec)
Heartbeat CPU 1 instructions: 40000001 cycles: 14724925 heartbeat IPC: 2.716 cumulative IPC: 2.716 (Simulation time: 00 hr 16 min 26 sec)
Heartbeat CPU 3 instructions: 60000001 cycles: 15016014 heartbeat IPC: 3.996 cumulative IPC: 3.996 (Simulation time: 00 hr 16 min 44 sec)
Heartbeat CPU 2 instructions: 50000002 cycles: 15374731 heartbeat IPC: 3.171 cumulative IPC: 3.252 (Simulation time: 00 hr 17 min 07 sec)
Warmup finished CPU 2 instructions: 50000002 cycles: 15374732 cumulative IPC: 3.252 (Simulation time: 00 hr 17 min 07 sec)
Heartbeat CPU 0 instructions: 40000004 cycles: 16705778 heartbeat IPC: 2.389 cumulative IPC: 2.394 (Simulation time: 00 hr 18 min 29 sec)
Heartbeat CPU 3 instructions: 70000001 cycles: 17520823 heartbeat IPC: 3.992 cumulative IPC: 3.995 (Simulation time: 00 hr 19 min 18 sec)
Heartbeat CPU 2 instructions: 60000001 cycles: 18083275 heartbeat IPC: 3.692 cumulative IPC: 3.318 (Simulation time: 00 hr 19 min 59 sec)
Heartbeat CPU 1 instructions: 50000002 cycles: 18408262 heartbeat IPC: 2.715 cumulative IPC: 2.716 (Simulation time: 00 hr 20 min 19 sec)
Warmup finished CPU 1 instructions: 50000002 cycles: 18408263 cumulative IPC: 2.716 (Simulation time: 00 hr 20 min 19 sec)
Heartbeat CPU 3 instructions: 80000001 cycles: 20022935 heartbeat IPC: 3.997 cumulative IPC: 3.995 (Simulation time: 00 hr 22 min 19 sec)
Heartbeat CPU 2 instructions: 70000000 cycles: 20810749 heartbeat IPC: 3.666 cumulative IPC: 3.364 (Simulation time: 00 hr 23 min 39 sec)
Heartbeat CPU 0 instructions: 50000003 cycles: 20870698 heartbeat IPC: 2.401 cumulative IPC: 2.396 (Simulation time: 00 hr 23 min 45 sec)
Warmup finished CPU 0 instructions: 50000003 cycles: 20870699 cumulative IPC: 2.396 (Simulation time: 00 hr 23 min 45 sec)
Warmup complete CPU 0 instructions: 50000003 cycles: 20870699 cumulative IPC: 2.396 (Simulation time: 00 hr 23 min 45 sec)
Warmup complete CPU 1 instructions: 56446528 cycles: 20870699 cumulative IPC: 2.705 (Simulation time: 00 hr 23 min 45 sec)
Warmup complete CPU 2 instructions: 70203878 cycles: 20870699 cumulative IPC: 3.364 (Simulation time: 00 hr 23 min 45 sec)
Warmup complete CPU 3 instructions: 83391053 cycles: 20870699 cumulative IPC: 3.996 (Simulation time: 00 hr 23 min 45 sec)
Heartbeat CPU 3 instructions: 90000004 cycles: 23971225 heartbeat IPC: 2.533 cumulative IPC: 2.132 (Simulation time: 00 hr 25 min 57 sec)
Heartbeat CPU 1 instructions: 60000004 cycles: 25286860 heartbeat IPC: 1.454 cumulative IPC: 0.8047 (Simulation time: 00 hr 26 min 53 sec)
Heartbeat CPU 3 instructions: 100000000 cycles: 28698425 heartbeat IPC: 2.115 cumulative IPC: 2.122 (Simulation time: 00 hr 29 min 14 sec)
Heartbeat CPU 2 instructions: 80000001 cycles: 30564453 heartbeat IPC: 1.025 cumulative IPC: 1.011 (Simulation time: 00 hr 30 min 38 sec)
Heartbeat CPU 3 instructions: 110000001 cycles: 33390662 heartbeat IPC: 2.131 cumulative IPC: 2.125 (Simulation time: 00 hr 32 min 44 sec)
Heartbeat CPU 1 instructions: 70000000 cycles: 37051465 heartbeat IPC: 0.85 cumulative IPC: 0.8376 (Simulation time: 00 hr 35 min 21 sec)
Heartbeat CPU 2 instructions: 90000001 cycles: 37836562 heartbeat IPC: 1.375 cumulative IPC: 1.167 (Simulation time: 00 hr 35 min 58 sec)
Heartbeat CPU 3 instructions: 120000000 cycles: 38007330 heartbeat IPC: 2.166 cumulative IPC: 2.136 (Simulation time: 00 hr 36 min 05 sec)
Heartbeat CPU 3 instructions: 130000002 cycles: 42658703 heartbeat IPC: 2.15 cumulative IPC: 2.139 (Simulation time: 00 hr 39 min 18 sec)
Heartbeat CPU 2 instructions: 100000002 cycles: 46610999 heartbeat IPC: 1.14 cumulative IPC: 1.158 (Simulation time: 00 hr 42 min 03 sec)
Heartbeat CPU 3 instructions: 140000000 cycles: 47331134 heartbeat IPC: 2.14 cumulative IPC: 2.139 (Simulation time: 00 hr 42 min 34 sec)
Heartbeat CPU 1 instructions: 80000000 cycles: 48839072 heartbeat IPC: 0.8483 cumulative IPC: 0.8421 (Simulation time: 00 hr 43 min 35 sec)
Heartbeat CPU 3 instructions: 150000004 cycles: 51944893 heartbeat IPC: 2.167 cumulative IPC: 2.144 (Simulation time: 00 hr 45 min 29 sec)
Heartbeat CPU 2 instructions: 110000004 cycles: 55118175 heartbeat IPC: 1.175 cumulative IPC: 1.162 (Simulation time: 00 hr 47 min 23 sec)
Heartbeat CPU 3 instructions: 160000003 cycles: 56564864 heartbeat IPC: 2.165 cumulative IPC: 2.146 (Simulation time: 00 hr 48 min 17 sec)
Heartbeat CPU 0 instructions: 60000000 cycles: 59565709 heartbeat IPC: 0.2584 cumulative IPC: 0.2584 (Simulation time: 00 hr 50 min 21 sec)
Heartbeat CPU 3 instructions: 170000003 cycles: 61170655 heartbeat IPC: 2.171 cumulative IPC: 2.149 (Simulation time: 00 hr 51 min 36 sec)
Heartbeat CPU 1 instructions: 90000000 cycles: 61365240 heartbeat IPC: 0.7983 cumulative IPC: 0.8286 (Simulation time: 00 hr 51 min 44 sec)
Heartbeat CPU 2 instructions: 120000000 cycles: 63932238 heartbeat IPC: 1.135 cumulative IPC: 1.156 (Simulation time: 00 hr 53 min 41 sec)
Heartbeat CPU 3 instructions: 180000004 cycles: 65786472 heartbeat IPC: 2.166 cumulative IPC: 2.151 (Simulation time: 00 hr 55 min 11 sec)
Heartbeat CPU 3 instructions: 190000002 cycles: 70411528 heartbeat IPC: 2.162 cumulative IPC: 2.152 (Simulation time: 00 hr 58 min 58 sec)
Heartbeat CPU 2 instructions: 130000001 cycles: 70955962 heartbeat IPC: 1.424 cumulative IPC: 1.194 (Simulation time: 00 hr 59 min 25 sec)
Heartbeat CPU 1 instructions: 100000000 cycles: 73996797 heartbeat IPC: 0.7917 cumulative IPC: 0.8198 (Simulation time: 01 hr 01 min 46 sec)
Heartbeat CPU 3 instructions: 200000000 cycles: 75055940 heartbeat IPC: 2.153 cumulative IPC: 2.152 (Simulation time: 01 hr 02 min 30 sec)
Heartbeat CPU 2 instructions: 140000004 cycles: 78836664 heartbeat IPC: 1.269 cumulative IPC: 1.204 (Simulation time: 01 hr 05 min 03 sec)
Heartbeat CPU 3 instructions: 210000000 cycles: 79646068 heartbeat IPC: 2.179 cumulative IPC: 2.154 (Simulation time: 01 hr 05 min 33 sec)
Heartbeat CPU 3 instructions: 220000000 cycles: 84214889 heartbeat IPC: 2.189 cumulative IPC: 2.157 (Simulation time: 01 hr 08 min 24 sec)
Heartbeat CPU 1 instructions: 110000003 cycles: 85834389 heartbeat IPC: 0.8448 cumulative IPC: 0.8244 (Simulation time: 01 hr 09 min 32 sec)
Heartbeat CPU 3 instructions: 230000001 cycles: 88810306 heartbeat IPC: 2.176 cumulative IPC: 2.158 (Simulation time: 01 hr 11 min 49 sec)
Heartbeat CPU 2 instructions: 150000004 cycles: 88877991 heartbeat IPC: 0.9959 cumulative IPC: 1.173 (Simulation time: 01 hr 11 min 53 sec)
Simulation finished CPU 3 instructions: 150000000 cycles: 69516368 cumulative IPC: 2.158 (Simulation time: 01 hr 13 min 06 sec)
Heartbeat CPU 3 instructions: 240000000 cycles: 93416414 heartbeat IPC: 2.171 cumulative IPC: 2.159 (Simulation time: 01 hr 15 min 12 sec)
Heartbeat CPU 1 instructions: 120000004 cycles: 97506418 heartbeat IPC: 0.8567 cumulative IPC: 0.8293 (Simulation time: 01 hr 17 min 59 sec)
Heartbeat CPU 2 instructions: 160000002 cycles: 97672635 heartbeat IPC: 1.137 cumulative IPC: 1.169 (Simulation time: 01 hr 18 min 06 sec)
Heartbeat CPU 3 instructions: 250000002 cycles: 98030850 heartbeat IPC: 2.167 cumulative IPC: 2.159 (Simulation time: 01 hr 18 min 21 sec)
Heartbeat CPU 0 instructions: 70000002 cycles: 100342881 heartbeat IPC: 0.2452 cumulative IPC: 0.2517 (Simulation time: 01 hr 19 min 55 sec)
Heartbeat CPU 3 instructions: 260000000 cycles: 102672734 heartbeat IPC: 2.154 cumulative IPC: 2.159 (Simulation time: 01 hr 21 min 30 sec)
Heartbeat CPU 2 instructions: 170000004 cycles: 105007019 heartbeat IPC: 1.363 cumulative IPC: 1.186 (Simulation time: 01 hr 22 min 59 sec)
Heartbeat CPU 3 instructions: 270000000 cycles: 107294080 heartbeat IPC: 2.164 cumulative IPC: 2.159 (Simulation time: 01 hr 24 min 28 sec)
Heartbeat CPU 1 instructions: 130000001 cycles: 109205213 heartbeat IPC: 0.8548 cumulative IPC: 0.8327 (Simulation time: 01 hr 25 min 45 sec)
Heartbeat CPU 3 instructions: 280000001 cycles: 111922831 heartbeat IPC: 2.16 cumulative IPC: 2.159 (Simulation time: 01 hr 27 min 30 sec)
Heartbeat CPU 2 instructions: 180000002 cycles: 113197608 heartbeat IPC: 1.221 cumulative IPC: 1.189 (Simulation time: 01 hr 28 min 19 sec)
Heartbeat CPU 3 instructions: 290000004 cycles: 116557503 heartbeat IPC: 2.158 cumulative IPC: 2.159 (Simulation time: 01 hr 30 min 29 sec)
Heartbeat CPU 3 instructions: 300000000 cycles: 121177005 heartbeat IPC: 2.165 cumulative IPC: 2.159 (Simulation time: 01 hr 33 min 25 sec)
Heartbeat CPU 2 instructions: 190000003 cycles: 121952288 heartbeat IPC: 1.142 cumulative IPC: 1.185 (Simulation time: 01 hr 33 min 53 sec)
Heartbeat CPU 1 instructions: 140000000 cycles: 122329374 heartbeat IPC: 0.762 cumulative IPC: 0.8235 (Simulation time: 01 hr 34 min 07 sec)
Heartbeat CPU 3 instructions: 310000001 cycles: 125793235 heartbeat IPC: 2.166 cumulative IPC: 2.16 (Simulation time: 01 hr 36 min 14 sec)
Heartbeat CPU 2 instructions: 200000002 cycles: 129731954 heartbeat IPC: 1.285 cumulative IPC: 1.192 (Simulation time: 01 hr 38 min 45 sec)
Heartbeat CPU 3 instructions: 320000001 cycles: 130401656 heartbeat IPC: 2.17 cumulative IPC: 2.16 (Simulation time: 01 hr 39 min 12 sec)
Heartbeat CPU 3 instructions: 330000001 cycles: 135003568 heartbeat IPC: 2.173 cumulative IPC: 2.161 (Simulation time: 01 hr 42 min 22 sec)
Heartbeat CPU 1 instructions: 150000004 cycles: 135425406 heartbeat IPC: 0.7636 cumulative IPC: 0.8167 (Simulation time: 01 hr 42 min 37 sec)
Heartbeat CPU 2 instructions: 210000001 cycles: 136461360 heartbeat IPC: 1.486 cumulative IPC: 1.209 (Simulation time: 01 hr 43 min 16 sec)
Heartbeat CPU 3 instructions: 340000000 cycles: 141346990 heartbeat IPC: 1.576 cumulative IPC: 2.13 (Simulation time: 01 hr 46 min 38 sec)
Heartbeat CPU 0 instructions: 80000002 cycles: 143279055 heartbeat IPC: 0.2329 cumulative IPC: 0.2451 (Simulation time: 01 hr 47 min 44 sec)
Heartbeat CPU 3 instructions: 350000000 cycles: 146911454 heartbeat IPC: 1.797 cumulative IPC: 2.115 (Simulation time: 01 hr 49 min 57 sec)
Heartbeat CPU 2 instructions: 220000000 cycles: 147915982 heartbeat IPC: 0.873 cumulative IPC: 1.179 (Simulation time: 01 hr 50 min 36 sec)
Simulation finished CPU 2 instructions: 150000004 cycles: 127229590 cumulative IPC: 1.179 (Simulation time: 01 hr 50 min 42 sec)
Heartbeat CPU 1 instructions: 160000000 cycles: 148398851 heartbeat IPC: 0.7708 cumulative IPC: 0.812 (Simulation time: 01 hr 50 min 54 sec)
Heartbeat CPU 3 instructions: 360000003 cycles: 152241369 heartbeat IPC: 1.876 cumulative IPC: 2.106 (Simulation time: 01 hr 53 min 27 sec)
Heartbeat CPU 2 instructions: 230000000 cycles: 157179462 heartbeat IPC: 1.08 cumulative IPC: 1.172 (Simulation time: 01 hr 56 min 54 sec)
Heartbeat CPU 3 instructions: 370000000 cycles: 157531942 heartbeat IPC: 1.89 cumulative IPC: 2.097 (Simulation time: 01 hr 57 min 08 sec)
Heartbeat CPU 1 instructions: 170000003 cycles: 162170606 heartbeat IPC: 0.7261 cumulative IPC: 0.8036 (Simulation time: 01 hr 59 min 57 sec)
Heartbeat CPU 3 instructions: 380000002 cycles: 162844345 heartbeat IPC: 1.882 cumulative IPC: 2.089 (Simulation time: 02 hr 00 min 21 sec)
Heartbeat CPU 2 instructions: 240000001 cycles: 166515787 heartbeat IPC: 1.071 cumulative IPC: 1.166 (Simulation time: 02 hr 02 min 24 sec)
Heartbeat CPU 2 instructions: 250000001 cycles: 182297138 heartbeat IPC: 0.6337 cumulative IPC: 1.114 (Simulation time: 02 hr 10 min 01 sec)
Heartbeat CPU 3 instructions: 390000001 cycles: 182592826 heartbeat IPC: 0.5064 cumulative IPC: 1.896 (Simulation time: 02 hr 10 min 13 sec)
Heartbeat CPU 1 instructions: 180000000 cycles: 186584396 heartbeat IPC: 0.4096 cumulative IPC: 0.7456 (Simulation time: 02 hr 13 min 01 sec)
Heartbeat CPU 3 instructions: 400000003 cycles: 188050413 heartbeat IPC: 1.832 cumulative IPC: 1.894 (Simulation time: 02 hr 13 min 56 sec)
Heartbeat CPU 2 instructions: 260000002 cycles: 192464392 heartbeat IPC: 0.9835 cumulative IPC: 1.106 (Simulation time: 02 hr 16 min 39 sec)
Heartbeat CPU 3 instructions: 410000003 cycles: 193671461 heartbeat IPC: 1.779 cumulative IPC: 1.89 (Simulation time: 02 hr 17 min 23 sec)
Heartbeat CPU 3 instructions: 420000000 cycles: 199001389 heartbeat IPC: 1.876 cumulative IPC: 1.89 (Simulation time: 02 hr 20 min 58 sec)
Heartbeat CPU 2 instructions: 270000000 cycles: 199560538 heartbeat IPC: 1.409 cumulative IPC: 1.118 (Simulation time: 02 hr 21 min 21 sec)
Heartbeat CPU 1 instructions: 190000003 cycles: 202316494 heartbeat IPC: 0.6356 cumulative IPC: 0.7361 (Simulation time: 02 hr 23 min 06 sec)
Heartbeat CPU 3 instructions: 430000003 cycles: 204111426 heartbeat IPC: 1.957 cumulative IPC: 1.892 (Simulation time: 02 hr 24 min 17 sec)
Heartbeat CPU 2 instructions: 280000000 cycles: 206678669 heartbeat IPC: 1.405 cumulative IPC: 1.129 (Simulation time: 02 hr 25 min 56 sec)
Heartbeat CPU 0 instructions: 90000001 cycles: 208794168 heartbeat IPC: 0.1526 cumulative IPC: 0.2129 (Simulation time: 02 hr 27 min 16 sec)
Heartbeat CPU 3 instructions: 440000003 cycles: 209029699 heartbeat IPC: 2.033 cumulative IPC: 1.895 (Simulation time: 02 hr 27 min 26 sec)
Heartbeat CPU 3 instructions: 450000000 cycles: 214212862 heartbeat IPC: 1.929 cumulative IPC: 1.896 (Simulation time: 02 hr 30 min 44 sec)
Heartbeat CPU 2 instructions: 290000003 cycles: 215025689 heartbeat IPC: 1.198 cumulative IPC: 1.132 (Simulation time: 02 hr 31 min 14 sec)
Heartbeat CPU 1 instructions: 200000002 cycles: 215848462 heartbeat IPC: 0.739 cumulative IPC: 0.7363 (Simulation time: 02 hr 31 min 46 sec)
Heartbeat CPU 3 instructions: 460000001 cycles: 219243700 heartbeat IPC: 1.988 cumulative IPC: 1.898 (Simulation time: 02 hr 34 min 14 sec)
Heartbeat CPU 3 instructions: 470000003 cycles: 224205849 heartbeat IPC: 2.015 cumulative IPC: 1.901 (Simulation time: 02 hr 37 min 22 sec)
Simulation finished CPU 1 instructions: 150000000 cycles: 203937829 cumulative IPC: 0.7355 (Simulation time: 02 hr 37 min 43 sec)
Heartbeat CPU 2 instructions: 300000004 cycles: 227857811 heartbeat IPC: 0.7793 cumulative IPC: 1.11 (Simulation time: 02 hr 39 min 50 sec)
Heartbeat CPU 3 instructions: 480000000 cycles: 229477465 heartbeat IPC: 1.897 cumulative IPC: 1.901 (Simulation time: 02 hr 40 min 52 sec)
Heartbeat CPU 1 instructions: 210000003 cycles: 229702496 heartbeat IPC: 0.7218 cumulative IPC: 0.7353 (Simulation time: 02 hr 41 min 01 sec)
Heartbeat CPU 3 instructions: 490000002 cycles: 237305686 heartbeat IPC: 1.277 cumulative IPC: 1.879 (Simulation time: 02 hr 45 min 24 sec)
Heartbeat CPU 2 instructions: 310000001 cycles: 238129962 heartbeat IPC: 0.9735 cumulative IPC: 1.104 (Simulation time: 02 hr 45 min 54 sec)
Heartbeat CPU 3 instructions: 500000001 cycles: 244350533 heartbeat IPC: 1.419 cumulative IPC: 1.864 (Simulation time: 02 hr 49 min 40 sec)
Heartbeat CPU 1 instructions: 220000000 cycles: 245095864 heartbeat IPC: 0.6496 cumulative IPC: 0.7294 (Simulation time: 02 hr 50 min 01 sec)
Heartbeat CPU 2 instructions: 320000001 cycles: 249716343 heartbeat IPC: 0.8631 cumulative IPC: 1.092 (Simulation time: 02 hr 52 min 38 sec)
Heartbeat CPU 3 instructions: 510000002 cycles: 251272185 heartbeat IPC: 1.445 cumulative IPC: 1.852 (Simulation time: 02 hr 53 min 31 sec)
Heartbeat CPU 3 instructions: 520000000 cycles: 258310660 heartbeat IPC: 1.421 cumulative IPC: 1.839 (Simulation time: 02 hr 57 min 26 sec)
Heartbeat CPU 1 instructions: 230000002 cycles: 261228614 heartbeat IPC: 0.6199 cumulative IPC: 0.7221 (Simulation time: 02 hr 59 min 02 sec)
Heartbeat CPU 2 instructions: 330000000 cycles: 261230651 heartbeat IPC: 0.8685 cumulative IPC: 1.081 (Simulation time: 02 hr 59 min 02 sec)
Heartbeat CPU 3 instructions: 530000003 cycles: 265374019 heartbeat IPC: 1.416 cumulative IPC: 1.827 (Simulation time: 03 hr 01 min 17 sec)
Heartbeat CPU 0 instructions: 100000000 cycles: 269506799 heartbeat IPC: 0.1647 cumulative IPC: 0.2011 (Simulation time: 03 hr 03 min 32 sec)
Heartbeat CPU 2 instructions: 340000001 cycles: 271997535 heartbeat IPC: 0.9288 cumulative IPC: 1.074 (Simulation time: 03 hr 04 min 54 sec)
Heartbeat CPU 3 instructions: 540000000 cycles: 272328738 heartbeat IPC: 1.438 cumulative IPC: 1.816 (Simulation time: 03 hr 05 min 05 sec)
Heartbeat CPU 1 instructions: 240000003 cycles: 279242287 heartbeat IPC: 0.5551 cumulative IPC: 0.7104 (Simulation time: 03 hr 08 min 50 sec)
Heartbeat CPU 3 instructions: 550000002 cycles: 279409641 heartbeat IPC: 1.412 cumulative IPC: 1.805 (Simulation time: 03 hr 08 min 55 sec)
Heartbeat CPU 2 instructions: 350000003 cycles: 282389273 heartbeat IPC: 0.9623 cumulative IPC: 1.07 (Simulation time: 03 hr 10 min 32 sec)
Heartbeat CPU 3 instructions: 560000002 cycles: 286324073 heartbeat IPC: 1.446 cumulative IPC: 1.795 (Simulation time: 03 hr 12 min 45 sec)
Heartbeat CPU 2 instructions: 360000001 cycles: 292279514 heartbeat IPC: 1.011 cumulative IPC: 1.068 (Simulation time: 03 hr 16 min 02 sec)
Heartbeat CPU 3 instructions: 570000004 cycles: 293439784 heartbeat IPC: 1.405 cumulative IPC: 1.785 (Simulation time: 03 hr 16 min 41 sec)
Heartbeat CPU 1 instructions: 250000003 cycles: 296461593 heartbeat IPC: 0.5807 cumulative IPC: 0.7023 (Simulation time: 03 hr 18 min 20 sec)
Heartbeat CPU 3 instructions: 580000000 cycles: 300469908 heartbeat IPC: 1.422 cumulative IPC: 1.776 (Simulation time: 03 hr 20 min 30 sec)
Heartbeat CPU 2 instructions: 370000000 cycles: 302466724 heartbeat IPC: 0.9816 cumulative IPC: 1.065 (Simulation time: 03 hr 21 min 35 sec)
Heartbeat CPU 3 instructions: 590000004 cycles: 307348378 heartbeat IPC: 1.454 cumulative IPC: 1.768 (Simulation time: 03 hr 24 min 10 sec)
Heartbeat CPU 2 instructions: 380000003 cycles: 309696052 heartbeat IPC: 1.383 cumulative IPC: 1.073 (Simulation time: 03 hr 25 min 32 sec)
Heartbeat CPU 1 instructions: 260000000 cycles: 312517782 heartbeat IPC: 0.6228 cumulative IPC: 0.6979 (Simulation time: 03 hr 27 min 08 sec)
Heartbeat CPU 3 instructions: 600000000 cycles: 313889234 heartbeat IPC: 1.529 cumulative IPC: 1.763 (Simulation time: 03 hr 27 min 54 sec)
Heartbeat CPU 2 instructions: 390000000 cycles: 316570707 heartbeat IPC: 1.455 cumulative IPC: 1.081 (Simulation time: 03 hr 29 min 26 sec)
Heartbeat CPU 3 instructions: 610000000 cycles: 320394256 heartbeat IPC: 1.537 cumulative IPC: 1.758 (Simulation time: 03 hr 31 min 37 sec)
Heartbeat CPU 2 instructions: 400000000 cycles: 323815837 heartbeat IPC: 1.38 cumulative IPC: 1.089 (Simulation time: 03 hr 33 min 32 sec)
Heartbeat CPU 1 instructions: 270000002 cycles: 327748614 heartbeat IPC: 0.6566 cumulative IPC: 0.6959 (Simulation time: 03 hr 35 min 31 sec)
Heartbeat CPU 2 instructions: 410000001 cycles: 333800646 heartbeat IPC: 1.002 cumulative IPC: 1.086 (Simulation time: 03 hr 38 min 31 sec)
Heartbeat CPU 0 instructions: 110000004 cycles: 337020383 heartbeat IPC: 0.1481 cumulative IPC: 0.1898 (Simulation time: 03 hr 40 min 01 sec)
Heartbeat CPU 3 instructions: 620000001 cycles: 342557329 heartbeat IPC: 0.4512 cumulative IPC: 1.668 (Simulation time: 03 hr 42 min 34 sec)
Heartbeat CPU 1 instructions: 280000000 cycles: 350900901 heartbeat IPC: 0.4319 cumulative IPC: 0.6774 (Simulation time: 03 hr 46 min 18 sec)
Heartbeat CPU 2 instructions: 420000002 cycles: 357201695 heartbeat IPC: 0.4273 cumulative IPC: 1.04 (Simulation time: 03 hr 48 min 55 sec)
Heartbeat CPU 3 instructions: 630000003 cycles: 361446938 heartbeat IPC: 0.5294 cumulative IPC: 1.605 (Simulation time: 03 hr 50 min 55 sec)
Heartbeat CPU 2 instructions: 430000002 cycles: 372100132 heartbeat IPC: 0.6712 cumulative IPC: 1.024 (Simulation time: 03 hr 56 min 06 sec)
Heartbeat CPU 1 instructions: 290000001 cycles: 373290935 heartbeat IPC: 0.4466 cumulative IPC: 0.6627 (Simulation time: 03 hr 56 min 40 sec)
Heartbeat CPU 3 instructions: 640000001 cycles: 374763489 heartbeat IPC: 0.7509 cumulative IPC: 1.573 (Simulation time: 03 hr 57 min 27 sec)
Heartbeat CPU 2 instructions: 440000000 cycles: 383403869 heartbeat IPC: 0.8847 cumulative IPC: 1.02 (Simulation time: 04 hr 01 min 53 sec)
Heartbeat CPU 3 instructions: 650000001 cycles: 389590336 heartbeat IPC: 0.6745 cumulative IPC: 1.537 (Simulation time: 04 hr 04 min 51 sec)
Heartbeat CPU 1 instructions: 300000001 cycles: 392627566 heartbeat IPC: 0.5172 cumulative IPC: 0.6551 (Simulation time: 04 hr 06 min 24 sec)
Heartbeat CPU 2 instructions: 450000001 cycles: 395787367 heartbeat IPC: 0.8075 cumulative IPC: 1.013 (Simulation time: 04 hr 08 min 02 sec)
Heartbeat CPU 3 instructions: 660000000 cycles: 396714443 heartbeat IPC: 1.404 cumulative IPC: 1.534 (Simulation time: 04 hr 08 min 32 sec)
Heartbeat CPU 2 instructions: 460000002 cycles: 405776293 heartbeat IPC: 1.001 cumulative IPC: 1.013 (Simulation time: 04 hr 13 min 11 sec)
Heartbeat CPU 3 instructions: 670000001 cycles: 407821960 heartbeat IPC: 0.9003 cumulative IPC: 1.516 (Simulation time: 04 hr 14 min 25 sec)
Heartbeat CPU 1 instructions: 310000000 cycles: 413144401 heartbeat IPC: 0.4874 cumulative IPC: 0.6464 (Simulation time: 04 hr 17 min 11 sec)
Heartbeat CPU 2 instructions: 470000003 cycles: 431145432 heartbeat IPC: 0.3942 cumulative IPC: 0.9745 (Simulation time: 04 hr 25 min 00 sec)
Heartbeat CPU 1 instructions: 320000001 cycles: 438284047 heartbeat IPC: 0.3978 cumulative IPC: 0.6314 (Simulation time: 04 hr 28 min 10 sec)
Heartbeat CPU 2 instructions: 480000002 cycles: 445654498 heartbeat IPC: 0.6892 cumulative IPC: 0.9647 (Simulation time: 04 hr 31 min 27 sec)
Heartbeat CPU 3 instructions: 680000002 cycles: 447144112 heartbeat IPC: 0.2543 cumulative IPC: 1.4 (Simulation time: 04 hr 32 min 10 sec)
Heartbeat CPU 3 instructions: 690000001 cycles: 453359774 heartbeat IPC: 1.609 cumulative IPC: 1.403 (Simulation time: 04 hr 35 min 24 sec)
Heartbeat CPU 2 instructions: 490000002 cycles: 456844150 heartbeat IPC: 0.8937 cumulative IPC: 0.9629 (Simulation time: 04 hr 37 min 20 sec)
Heartbeat CPU 3 instructions: 700000003 cycles: 458907092 heartbeat IPC: 1.803 cumulative IPC: 1.408 (Simulation time: 04 hr 38 min 48 sec)
Heartbeat CPU 1 instructions: 330000001 cycles: 460066065 heartbeat IPC: 0.4591 cumulative IPC: 0.6229 (Simulation time: 04 hr 39 min 38 sec)
Heartbeat CPU 3 instructions: 710000000 cycles: 463414726 heartbeat IPC: 2.218 cumulative IPC: 1.416 (Simulation time: 04 hr 41 min 44 sec)
Heartbeat CPU 0 instructions: 120000004 cycles: 464539422 heartbeat IPC: 0.07842 cumulative IPC: 0.1578 (Simulation time: 04 hr 42 min 26 sec)
Heartbeat CPU 3 instructions: 720000003 cycles: 467692250 heartbeat IPC: 2.338 cumulative IPC: 1.425 (Simulation time: 04 hr 44 min 12 sec)
Heartbeat CPU 2 instructions: 500000000 cycles: 469897210 heartbeat IPC: 0.7661 cumulative IPC: 0.9572 (Simulation time: 04 hr 45 min 30 sec)
Heartbeat CPU 3 instructions: 730000001 cycles: 472211674 heartbeat IPC: 2.213 cumulative IPC: 1.433 (Simulation time: 04 hr 46 min 56 sec)
Heartbeat CPU 1 instructions: 340000003 cycles: 475092161 heartbeat IPC: 0.6655 cumulative IPC: 0.6243 (Simulation time: 04 hr 48 min 45 sec)
Heartbeat CPU 3 instructions: 740000001 cycles: 481096046 heartbeat IPC: 1.126 cumulative IPC: 1.427 (Simulation time: 04 hr 51 min 46 sec)
Heartbeat CPU 2 instructions: 510000001 cycles: 483250632 heartbeat IPC: 0.7489 cumulative IPC: 0.9512 (Simulation time: 04 hr 52 min 57 sec)
Heartbeat CPU 1 instructions: 350000003 cycles: 495824913 heartbeat IPC: 0.4823 cumulative IPC: 0.6181 (Simulation time: 04 hr 59 min 17 sec)
Heartbeat CPU 2 instructions: 520000000 cycles: 497112446 heartbeat IPC: 0.7214 cumulative IPC: 0.9445 (Simulation time: 04 hr 59 min 54 sec)
Heartbeat CPU 3 instructions: 750000004 cycles: 497745339 heartbeat IPC: 0.6006 cumulative IPC: 1.398 (Simulation time: 05 hr 00 min 15 sec)
Heartbeat CPU 3 instructions: 760000004 cycles: 508497418 heartbeat IPC: 0.9301 cumulative IPC: 1.388 (Simulation time: 05 hr 05 min 41 sec)
Heartbeat CPU 2 instructions: 530000001 cycles: 510816323 heartbeat IPC: 0.7297 cumulative IPC: 0.9385 (Simulation time: 05 hr 06 min 51 sec)
Heartbeat CPU 1 instructions: 360000003 cycles: 518850284 heartbeat IPC: 0.4343 cumulative IPC: 0.6096 (Simulation time: 05 hr 11 min 02 sec)
Heartbeat CPU 2 instructions: 540000000 cycles: 523055095 heartbeat IPC: 0.8171 cumulative IPC: 0.9355 (Simulation time: 05 hr 13 min 11 sec)
Heartbeat CPU 3 instructions: 770000002 cycles: 523391967 heartbeat IPC: 0.6714 cumulative IPC: 1.366 (Simulation time: 05 hr 13 min 21 sec)
Heartbeat CPU 3 instructions: 780000000 cycles: 532504437 heartbeat IPC: 1.097 cumulative IPC: 1.362 (Simulation time: 05 hr 18 min 14 sec)
Heartbeat CPU 2 instructions: 550000004 cycles: 534994452 heartbeat IPC: 0.8376 cumulative IPC: 0.9332 (Simulation time: 05 hr 19 min 34 sec)
Heartbeat CPU 1 instructions: 370000004 cycles: 540577936 heartbeat IPC: 0.4602 cumulative IPC: 0.6033 (Simulation time: 05 hr 22 min 31 sec)
Heartbeat CPU 3 instructions: 790000001 cycles: 542391464 heartbeat IPC: 1.011 cumulative IPC: 1.355 (Simulation time: 05 hr 23 min 25 sec)
Heartbeat CPU 2 instructions: 560000001 cycles: 547203020 heartbeat IPC: 0.8191 cumulative IPC: 0.9306 (Simulation time: 05 hr 25 min 51 sec)
Heartbeat CPU 2 instructions: 570000004 cycles: 555245404 heartbeat IPC: 1.243 cumulative IPC: 0.9353 (Simulation time: 05 hr 30 min 22 sec)
Heartbeat CPU 3 instructions: 800000002 cycles: 556898954 heartbeat IPC: 0.6893 cumulative IPC: 1.337 (Simulation time: 05 hr 31 min 19 sec)
Heartbeat CPU 1 instructions: 380000002 cycles: 563187257 heartbeat IPC: 0.4423 cumulative IPC: 0.5966 (Simulation time: 05 hr 34 min 54 sec)
Heartbeat CPU 2 instructions: 580000000 cycles: 564549397 heartbeat IPC: 1.075 cumulative IPC: 0.9377 (Simulation time: 05 hr 35 min 41 sec)
Heartbeat CPU 3 instructions: 810000000 cycles: 569375779 heartbeat IPC: 0.8015 cumulative IPC: 1.325 (Simulation time: 05 hr 38 min 26 sec)
Heartbeat CPU 2 instructions: 590000001 cycles: 575111120 heartbeat IPC: 0.9468 cumulative IPC: 0.9379 (Simulation time: 05 hr 41 min 17 sec)
Heartbeat CPU 2 instructions: 600000000 cycles: 587478463 heartbeat IPC: 0.8086 cumulative IPC: 0.935 (Simulation time: 05 hr 47 min 15 sec)
Heartbeat CPU 1 instructions: 390000004 cycles: 591915648 heartbeat IPC: 0.3481 cumulative IPC: 0.5841 (Simulation time: 05 hr 49 min 21 sec)
Heartbeat CPU 0 instructions: 130000002 cycles: 603216100 heartbeat IPC: 0.07211 cumulative IPC: 0.1374 (Simulation time: 05 hr 54 min 40 sec)
Heartbeat CPU 2 instructions: 610000000 cycles: 603567970 heartbeat IPC: 0.6215 cumulative IPC: 0.9264 (Simulation time: 05 hr 54 min 49 sec)
Heartbeat CPU 3 instructions: 820000001 cycles: 615806305 heartbeat IPC: 0.2154 cumulative IPC: 1.238 (Simulation time: 06 hr 00 min 46 sec)
Heartbeat CPU 1 instructions: 400000003 cycles: 620113574 heartbeat IPC: 0.3546 cumulative IPC: 0.5733 (Simulation time: 06 hr 02 min 48 sec)
Heartbeat CPU 2 instructions: 620000000 cycles: 626675273 heartbeat IPC: 0.4328 cumulative IPC: 0.9075 (Simulation time: 06 hr 06 min 01 sec)
Heartbeat CPU 3 instructions: 830000002 cycles: 637942622 heartbeat IPC: 0.4517 cumulative IPC: 1.21 (Simulation time: 06 hr 11 min 49 sec)
Heartbeat CPU 1 instructions: 410000002 cycles: 641274284 heartbeat IPC: 0.4726 cumulative IPC: 0.5699 (Simulation time: 06 hr 13 min 37 sec)
Heartbeat CPU 2 instructions: 630000002 cycles: 642143221 heartbeat IPC: 0.6465 cumulative IPC: 0.901 (Simulation time: 06 hr 14 min 05 sec)
Heartbeat CPU 3 instructions: 840000004 cycles: 655557074 heartbeat IPC: 0.5677 cumulative IPC: 1.192 (Simulation time: 06 hr 21 min 18 sec)
Heartbeat CPU 2 instructions: 640000002 cycles: 658147215 heartbeat IPC: 0.6248 cumulative IPC: 0.8941 (Simulation time: 06 hr 22 min 35 sec)
Heartbeat CPU 1 instructions: 420000000 cycles: 661082656 heartbeat IPC: 0.5048 cumulative IPC: 0.5679 (Simulation time: 06 hr 24 min 06 sec)
Heartbeat CPU 2 instructions: 650000000 cycles: 673387709 heartbeat IPC: 0.6561 cumulative IPC: 0.8886 (Simulation time: 06 hr 30 min 28 sec)
Heartbeat CPU 1 instructions: 430000003 cycles: 686671118 heartbeat IPC: 0.3908 cumulative IPC: 0.5611 (Simulation time: 06 hr 37 min 16 sec)
Heartbeat CPU 2 instructions: 660000000 cycles: 688139276 heartbeat IPC: 0.6779 cumulative IPC: 0.8839 (Simulation time: 06 hr 37 min 59 sec)
Heartbeat CPU 3 instructions: 850000001 cycles: 690899947 heartbeat IPC: 0.2829 cumulative IPC: 1.144 (Simulation time: 06 hr 39 min 21 sec)
Heartbeat CPU 2 instructions: 670000004 cycles: 703097624 heartbeat IPC: 0.6685 cumulative IPC: 0.8792 (Simulation time: 06 hr 45 min 32 sec)
Heartbeat CPU 1 instructions: 440000000 cycles: 713511529 heartbeat IPC: 0.3726 cumulative IPC: 0.5538 (Simulation time: 06 hr 50 min 50 sec)
Heartbeat CPU 3 instructions: 860000004 cycles: 714253387 heartbeat IPC: 0.4282 cumulative IPC: 1.12 (Simulation time: 06 hr 51 min 19 sec)
Heartbeat CPU 2 instructions: 680000004 cycles: 716204227 heartbeat IPC: 0.763 cumulative IPC: 0.877 (Simulation time: 06 hr 52 min 21 sec)
Heartbeat CPU 3 instructions: 870000004 cycles: 720806653 heartbeat IPC: 1.526 cumulative IPC: 1.124 (Simulation time: 06 hr 55 min 13 sec)
Heartbeat CPU 2 instructions: 690000000 cycles: 723228572 heartbeat IPC: 1.424 cumulative IPC: 0.8825 (Simulation time: 06 hr 56 min 39 sec)
Heartbeat CPU 3 instructions: 880000003 cycles: 730336014 heartbeat IPC: 1.049 cumulative IPC: 1.123 (Simulation time: 07 hr 00 min 42 sec)
Heartbeat CPU 1 instructions: 450000000 cycles: 731280043 heartbeat IPC: 0.5628 cumulative IPC: 0.554 (Simulation time: 07 hr 01 min 14 sec)
Heartbeat CPU 2 instructions: 700000000 cycles: 731723900 heartbeat IPC: 1.177 cumulative IPC: 0.886 (Simulation time: 07 hr 01 min 29 sec)
Heartbeat CPU 3 instructions: 890000003 cycles: 736018179 heartbeat IPC: 1.76 cumulative IPC: 1.128 (Simulation time: 07 hr 04 min 02 sec)
Heartbeat CPU 0 instructions: 140000001 cycles: 736863547 heartbeat IPC: 0.07482 cumulative IPC: 0.1257 (Simulation time: 07 hr 04 min 31 sec)
Heartbeat CPU 2 instructions: 710000002 cycles: 741878728 heartbeat IPC: 0.9848 cumulative IPC: 0.8874 (Simulation time: 07 hr 07 min 21 sec)
Heartbeat CPU 3 instructions: 900000003 cycles: 745348099 heartbeat IPC: 1.072 cumulative IPC: 1.127 (Simulation time: 07 hr 09 min 11 sec)
Heartbeat CPU 1 instructions: 460000001 cycles: 749025922 heartbeat IPC: 0.5635 cumulative IPC: 0.5542 (Simulation time: 07 hr 11 min 11 sec)
Heartbeat CPU 3 instructions: 910000002 cycles: 750848074 heartbeat IPC: 1.818 cumulative IPC: 1.132 (Simulation time: 07 hr 12 min 05 sec)
Heartbeat CPU 2 instructions: 720000003 cycles: 756334011 heartbeat IPC: 0.6918 cumulative IPC: 0.8835 (Simulation time: 07 hr 15 min 07 sec)
Heartbeat CPU 3 instructions: 920000003 cycles: 760991948 heartbeat IPC: 0.9858 cumulative IPC: 1.13 (Simulation time: 07 hr 17 min 39 sec)
Heartbeat CPU 3 instructions: 930000001 cycles: 766933130 heartbeat IPC: 1.683 cumulative IPC: 1.135 (Simulation time: 07 hr 21 min 03 sec)
Heartbeat CPU 1 instructions: 470000002 cycles: 767456893 heartbeat IPC: 0.5426 cumulative IPC: 0.5539 (Simulation time: 07 hr 21 min 20 sec)
Heartbeat CPU 2 instructions: 730000000 cycles: 771678674 heartbeat IPC: 0.6517 cumulative IPC: 0.8788 (Simulation time: 07 hr 23 min 30 sec)
Heartbeat CPU 3 instructions: 940000002 cycles: 776492073 heartbeat IPC: 1.046 cumulative IPC: 1.134 (Simulation time: 07 hr 25 min 59 sec)
Heartbeat CPU 3 instructions: 950000003 cycles: 781766496 heartbeat IPC: 1.896 cumulative IPC: 1.139 (Simulation time: 07 hr 29 min 38 sec)
Heartbeat CPU 2 instructions: 740000000 cycles: 784969105 heartbeat IPC: 0.7524 cumulative IPC: 0.8766 (Simulation time: 07 hr 31 min 36 sec)
Heartbeat CPU 1 instructions: 480000001 cycles: 785675345 heartbeat IPC: 0.5489 cumulative IPC: 0.5538 (Simulation time: 07 hr 32 min 05 sec)
Heartbeat CPU 3 instructions: 960000000 cycles: 792878887 heartbeat IPC: 0.8999 cumulative IPC: 1.135 (Simulation time: 07 hr 36 min 00 sec)
Heartbeat CPU 3 instructions: 970000001 cycles: 797433355 heartbeat IPC: 2.196 cumulative IPC: 1.142 (Simulation time: 07 hr 38 min 53 sec)
Heartbeat CPU 2 instructions: 750000002 cycles: 799418170 heartbeat IPC: 0.6921 cumulative IPC: 0.8732 (Simulation time: 07 hr 40 min 02 sec)
Heartbeat CPU 3 instructions: 980000002 cycles: 801926032 heartbeat IPC: 2.226 cumulative IPC: 1.148 (Simulation time: 07 hr 41 min 35 sec)
Heartbeat CPU 1 instructions: 490000003 cycles: 802459542 heartbeat IPC: 0.5958 cumulative IPC: 0.5547 (Simulation time: 07 hr 41 min 55 sec)
Heartbeat CPU 3 instructions: 990000000 cycles: 806312111 heartbeat IPC: 2.28 cumulative IPC: 1.154 (Simulation time: 07 hr 44 min 21 sec)
Heartbeat CPU 2 instructions: 760000000 cycles: 808949906 heartbeat IPC: 1.049 cumulative IPC: 0.8753 (Simulation time: 07 hr 45 min 47 sec)
Heartbeat CPU 1 instructions: 500000002 cycles: 820604191 heartbeat IPC: 0.5511 cumulative IPC: 0.5546 (Simulation time: 07 hr 51 min 16 sec)
Heartbeat CPU 2 instructions: 770000004 cycles: 822009842 heartbeat IPC: 0.7657 cumulative IPC: 0.8735 (Simulation time: 07 hr 52 min 01 sec)
Heartbeat CPU 3 instructions: 1000000003 cycles: 826280166 heartbeat IPC: 0.5008 cumulative IPC: 1.138 (Simulation time: 07 hr 54 min 13 sec)
Heartbeat CPU 0 instructions: 150000003 cycles: 827747194 heartbeat IPC: 0.11 cumulative IPC: 0.1239 (Simulation time: 07 hr 54 min 59 sec)
Heartbeat CPU 2 instructions: 780000000 cycles: 832521359 heartbeat IPC: 0.9513 cumulative IPC: 0.8745 (Simulation time: 07 hr 57 min 29 sec)
Heartbeat CPU 1 instructions: 510000004 cycles: 837685578 heartbeat IPC: 0.5854 cumulative IPC: 0.5553 (Simulation time: 08 hr 00 min 08 sec)
Heartbeat CPU 2 instructions: 790000000 cycles: 842294120 heartbeat IPC: 1.023 cumulative IPC: 0.8763 (Simulation time: 08 hr 02 min 33 sec)
Heartbeat CPU 2 instructions: 800000002 cycles: 850179240 heartbeat IPC: 1.268 cumulative IPC: 0.88 (Simulation time: 08 hr 06 min 57 sec)
Heartbeat CPU 1 instructions: 520000001 cycles: 855896243 heartbeat IPC: 0.5491 cumulative IPC: 0.5551 (Simulation time: 08 hr 09 min 53 sec)
Heartbeat CPU 2 instructions: 810000001 cycles: 862538034 heartbeat IPC: 0.8091 cumulative IPC: 0.879 (Simulation time: 08 hr 13 min 00 sec)
Heartbeat CPU 3 instructions: 1010000001 cycles: 866262266 heartbeat IPC: 0.2501 cumulative IPC: 1.096 (Simulation time: 08 hr 14 min 35 sec)
Heartbeat CPU 3 instructions: 1020000002 cycles: 873199407 heartbeat IPC: 1.442 cumulative IPC: 1.099 (Simulation time: 08 hr 18 min 02 sec)
Heartbeat CPU 1 instructions: 530000001 cycles: 878474687 heartbeat IPC: 0.4429 cumulative IPC: 0.5522 (Simulation time: 08 hr 20 min 52 sec)
Heartbeat CPU 3 instructions: 1030000003 cycles: 879536197 heartbeat IPC: 1.578 cumulative IPC: 1.102 (Simulation time: 08 hr 21 min 28 sec)
Heartbeat CPU 2 instructions: 820000000 cycles: 881088649 heartbeat IPC: 0.5391 cumulative IPC: 0.8716 (Simulation time: 08 hr 22 min 26 sec)
Heartbeat CPU 3 instructions: 1040000004 cycles: 883320243 heartbeat IPC: 2.643 cumulative IPC: 1.109 (Simulation time: 08 hr 23 min 53 sec)
Heartbeat CPU 3 instructions: 1050000002 cycles: 888552242 heartbeat IPC: 1.911 cumulative IPC: 1.114 (Simulation time: 08 hr 26 min 53 sec)
Heartbeat CPU 2 instructions: 830000000 cycles: 892414345 heartbeat IPC: 0.8829 cumulative IPC: 0.8718 (Simulation time: 08 hr 29 min 14 sec)
Heartbeat CPU 3 instructions: 1060000002 cycles: 892641773 heartbeat IPC: 2.445 cumulative IPC: 1.12 (Simulation time: 08 hr 29 min 21 sec)
Heartbeat CPU 1 instructions: 540000001 cycles: 893845604 heartbeat IPC: 0.6506 cumulative IPC: 0.5539 (Simulation time: 08 hr 30 min 01 sec)
Heartbeat CPU 3 instructions: 1070000003 cycles: 896368612 heartbeat IPC: 2.683 cumulative IPC: 1.127 (Simulation time: 08 hr 31 min 41 sec)
Heartbeat CPU 2 instructions: 840000004 cycles: 906453337 heartbeat IPC: 0.7123 cumulative IPC: 0.8693 (Simulation time: 08 hr 37 min 07 sec)
Heartbeat CPU 3 instructions: 1080000004 cycles: 907362788 heartbeat IPC: 0.9096 cumulative IPC: 1.124 (Simulation time: 08 hr 37 min 43 sec)
Heartbeat CPU 1 instructions: 550000000 cycles: 910182703 heartbeat IPC: 0.6121 cumulative IPC: 0.555 (Simulation time: 08 hr 39 min 27 sec)
Heartbeat CPU 2 instructions: 850000000 cycles: 918990659 heartbeat IPC: 0.7976 cumulative IPC: 0.8683 (Simulation time: 08 hr 44 min 49 sec)
Heartbeat CPU 0 instructions: 160000002 cycles: 920227899 heartbeat IPC: 0.1081 cumulative IPC: 0.1223 (Simulation time: 08 hr 45 min 28 sec)
Heartbeat CPU 3 instructions: 1090000003 cycles: 920275643 heartbeat IPC: 0.7744 cumulative IPC: 1.119 (Simulation time: 08 hr 45 min 30 sec)
Heartbeat CPU 3 instructions: 1100000002 cycles: 930314526 heartbeat IPC: 0.9961 cumulative IPC: 1.118 (Simulation time: 08 hr 50 min 41 sec)
Heartbeat CPU 1 instructions: 560000002 cycles: 930461885 heartbeat IPC: 0.4931 cumulative IPC: 0.5536 (Simulation time: 08 hr 50 min 46 sec)
Heartbeat CPU 2 instructions: 860000000 cycles: 933737776 heartbeat IPC: 0.6781 cumulative IPC: 0.8652 (Simulation time: 08 hr 52 min 25 sec)
Heartbeat CPU 3 instructions: 1110000002 cycles: 939325479 heartbeat IPC: 1.11 cumulative IPC: 1.118 (Simulation time: 08 hr 55 min 17 sec)
Heartbeat CPU 2 instructions: 870000002 cycles: 949136208 heartbeat IPC: 0.6494 cumulative IPC: 0.8616 (Simulation time: 09 hr 00 min 09 sec)
Heartbeat CPU 1 instructions: 570000001 cycles: 951848910 heartbeat IPC: 0.4676 cumulative IPC: 0.5516 (Simulation time: 09 hr 01 min 31 sec)
Heartbeat CPU 3 instructions: 1120000004 cycles: 961547735 heartbeat IPC: 0.45 cumulative IPC: 1.102 (Simulation time: 09 hr 05 min 56 sec)
Heartbeat CPU 2 instructions: 880000001 cycles: 966826222 heartbeat IPC: 0.5653 cumulative IPC: 0.8561 (Simulation time: 09 hr 08 min 19 sec)
Heartbeat CPU 1 instructions: 580000004 cycles: 982599781 heartbeat IPC: 0.3252 cumulative IPC: 0.5444 (Simulation time: 09 hr 15 min 37 sec)
Heartbeat CPU 2 instructions: 890000000 cycles: 983086548 heartbeat IPC: 0.615 cumulative IPC: 0.852 (Simulation time: 09 hr 15 min 53 sec)
Heartbeat CPU 3 instructions: 1130000004 cycles: 994958466 heartbeat IPC: 0.2993 cumulative IPC: 1.074 (Simulation time: 09 hr 21 min 30 sec)
Heartbeat CPU 1 instructions: 590000003 cycles: 1003633726 heartbeat IPC: 0.4754 cumulative IPC: 0.5429 (Simulation time: 09 hr 25 min 39 sec)
Heartbeat CPU 2 instructions: 900000000 cycles: 1004324526 heartbeat IPC: 0.4709 cumulative IPC: 0.8438 (Simulation time: 09 hr 26 min 02 sec)
Heartbeat CPU 3 instructions: 1140000000 cycles: 1012652539 heartbeat IPC: 0.5652 cumulative IPC: 1.065 (Simulation time: 09 hr 30 min 22 sec)
Heartbeat CPU 2 instructions: 910000004 cycles: 1016038800 heartbeat IPC: 0.8537 cumulative IPC: 0.8439 (Simulation time: 09 hr 32 min 01 sec)
Heartbeat CPU 1 instructions: 600000003 cycles: 1022972787 heartbeat IPC: 0.5171 cumulative IPC: 0.5424 (Simulation time: 09 hr 35 min 32 sec)
Heartbeat CPU 2 instructions: 920000004 cycles: 1028804574 heartbeat IPC: 0.7833 cumulative IPC: 0.8431 (Simulation time: 09 hr 38 min 22 sec)
Heartbeat CPU 3 instructions: 1150000000 cycles: 1034540696 heartbeat IPC: 0.4569 cumulative IPC: 1.052 (Simulation time: 09 hr 41 min 11 sec)
Heartbeat CPU 2 instructions: 930000004 cycles: 1040814089 heartbeat IPC: 0.8327 cumulative IPC: 0.843 (Simulation time: 09 hr 44 min 14 sec)
Heartbeat CPU 1 instructions: 610000002 cycles: 1046572197 heartbeat IPC: 0.4237 cumulative IPC: 0.5397 (Simulation time: 09 hr 46 min 53 sec)
Heartbeat CPU 2 instructions: 940000004 cycles: 1060065898 heartbeat IPC: 0.5194 cumulative IPC: 0.837 (Simulation time: 09 hr 53 min 13 sec)
Heartbeat CPU 0 instructions: 170000001 cycles: 1061792162 heartbeat IPC: 0.07064 cumulative IPC: 0.1153 (Simulation time: 09 hr 53 min 55 sec)
Heartbeat CPU 3 instructions: 1160000002 cycles: 1061848476 heartbeat IPC: 0.3662 cumulative IPC: 1.034 (Simulation time: 09 hr 53 min 56 sec)
Heartbeat CPU 1 instructions: 620000002 cycles: 1067235439 heartbeat IPC: 0.484 cumulative IPC: 0.5386 (Simulation time: 09 hr 56 min 40 sec)
Heartbeat CPU 2 instructions: 950000002 cycles: 1073551968 heartbeat IPC: 0.7415 cumulative IPC: 0.8358 (Simulation time: 09 hr 59 min 53 sec)
Heartbeat CPU 3 instructions: 1170000001 cycles: 1079309124 heartbeat IPC: 0.5727 cumulative IPC: 1.027 (Simulation time: 10 hr 02 min 43 sec)
Heartbeat CPU 1 instructions: 630000003 cycles: 1086949525 heartbeat IPC: 0.5073 cumulative IPC: 0.538 (Simulation time: 10 hr 06 min 05 sec)
Heartbeat CPU 2 instructions: 960000000 cycles: 1092174594 heartbeat IPC: 0.537 cumulative IPC: 0.8306 (Simulation time: 10 hr 08 min 27 sec)
Heartbeat CPU 2 instructions: 970000000 cycles: 1108328094 heartbeat IPC: 0.6191 cumulative IPC: 0.8274 (Simulation time: 10 hr 15 min 21 sec)
Heartbeat CPU 3 instructions: 1180000002 cycles: 1109449325 heartbeat IPC: 0.3318 cumulative IPC: 1.007 (Simulation time: 10 hr 15 min 47 sec)
Heartbeat CPU 1 instructions: 640000004 cycles: 1112683888 heartbeat IPC: 0.3886 cumulative IPC: 0.5345 (Simulation time: 10 hr 17 min 05 sec)
Heartbeat CPU 2 instructions: 980000001 cycles: 1123747184 heartbeat IPC: 0.6485 cumulative IPC: 0.8249 (Simulation time: 10 hr 21 min 41 sec)
Heartbeat CPU 2 instructions: 990000003 cycles: 1137662290 heartbeat IPC: 0.7186 cumulative IPC: 0.8236 (Simulation time: 10 hr 27 min 46 sec)
Heartbeat CPU 3 instructions: 1190000000 cycles: 1137752646 heartbeat IPC: 0.3533 cumulative IPC: 0.9908 (Simulation time: 10 hr 27 min 49 sec)
Heartbeat CPU 1 instructions: 650000000 cycles: 1138500576 heartbeat IPC: 0.3873 cumulative IPC: 0.5311 (Simulation time: 10 hr 28 min 14 sec)
Heartbeat CPU 3 instructions: 1200000004 cycles: 1144345235 heartbeat IPC: 1.517 cumulative IPC: 0.9939 (Simulation time: 10 hr 31 min 11 sec)
Heartbeat CPU 2 instructions: 1000000001 cycles: 1147050826 heartbeat IPC: 1.065 cumulative IPC: 0.8256 (Simulation time: 10 hr 32 min 25 sec)
Heartbeat CPU 3 instructions: 1210000000 cycles: 1153226346 heartbeat IPC: 1.126 cumulative IPC: 0.9949 (Simulation time: 10 hr 35 min 39 sec)
Heartbeat CPU 2 instructions: 1010000000 cycles: 1155552074 heartbeat IPC: 1.176 cumulative IPC: 0.8282 (Simulation time: 10 hr 36 min 59 sec)
Heartbeat CPU 1 instructions: 660000002 cycles: 1156188964 heartbeat IPC: 0.5653 cumulative IPC: 0.5316 (Simulation time: 10 hr 37 min 19 sec)
Heartbeat CPU 3 instructions: 1220000001 cycles: 1161823746 heartbeat IPC: 1.163 cumulative IPC: 0.9962 (Simulation time: 10 hr 39 min 56 sec)
Heartbeat CPU 3 instructions: 1230000001 cycles: 1166295580 heartbeat IPC: 2.236 cumulative IPC: 1.001 (Simulation time: 10 hr 42 min 20 sec)
Heartbeat CPU 2 instructions: 1020000001 cycles: 1171645806 heartbeat IPC: 0.6214 cumulative IPC: 0.8254 (Simulation time: 10 hr 44 min 41 sec)
Heartbeat CPU 1 instructions: 670000002 cycles: 1173760066 heartbeat IPC: 0.5691 cumulative IPC: 0.5322 (Simulation time: 10 hr 45 min 39 sec)
Heartbeat CPU 3 instructions: 1240000001 cycles: 1176269307 heartbeat IPC: 1.003 cumulative IPC: 1.001 (Simulation time: 10 hr 47 min 01 sec)
Heartbeat CPU 0 instructions: 180000001 cycles: 1180992425 heartbeat IPC: 0.08389 cumulative IPC: 0.1121 (Simulation time: 10 hr 49 min 40 sec)
Heartbeat CPU 3 instructions: 1250000004 cycles: 1181874180 heartbeat IPC: 1.784 cumulative IPC: 1.005 (Simulation time: 10 hr 50 min 02 sec)
Heartbeat CPU 2 instructions: 1030000002 cycles: 1183761412 heartbeat IPC: 0.8254 cumulative IPC: 0.8254 (Simulation time: 10 hr 50 min 54 sec)
Heartbeat CPU 3 instructions: 1260000004 cycles: 1190801628 heartbeat IPC: 1.12 cumulative IPC: 1.006 (Simulation time: 10 hr 54 min 13 sec)
Heartbeat CPU 1 instructions: 680000002 cycles: 1191717005 heartbeat IPC: 0.5569 cumulative IPC: 0.5326 (Simulation time: 10 hr 54 min 43 sec)
Heartbeat CPU 2 instructions: 1040000001 cycles: 1196612269 heartbeat IPC: 0.7782 cumulative IPC: 0.8248 (Simulation time: 10 hr 56 min 56 sec)
Heartbeat CPU 3 instructions: 1270000003 cycles: 1201201466 heartbeat IPC: 0.9616 cumulative IPC: 1.005 (Simulation time: 10 hr 59 min 04 sec)
Heartbeat CPU 3 instructions: 1280000000 cycles: 1205638406 heartbeat IPC: 2.254 cumulative IPC: 1.01 (Simulation time: 11 hr 01 min 35 sec)
Heartbeat CPU 2 instructions: 1050000000 cycles: 1206545264 heartbeat IPC: 1.007 cumulative IPC: 0.8264 (Simulation time: 11 hr 02 min 04 sec)
Heartbeat CPU 1 instructions: 690000000 cycles: 1208840792 heartbeat IPC: 0.584 cumulative IPC: 0.5333 (Simulation time: 11 hr 03 min 12 sec)
Heartbeat CPU 3 instructions: 1290000003 cycles: 1210176569 heartbeat IPC: 2.204 cumulative IPC: 1.015 (Simulation time: 11 hr 03 min 54 sec)
Heartbeat CPU 3 instructions: 1300000000 cycles: 1214659306 heartbeat IPC: 2.231 cumulative IPC: 1.019 (Simulation time: 11 hr 06 min 24 sec)
Heartbeat CPU 2 instructions: 1060000000 cycles: 1218408243 heartbeat IPC: 0.843 cumulative IPC: 0.8265 (Simulation time: 11 hr 08 min 10 sec)
Heartbeat CPU 1 instructions: 700000002 cycles: 1226770073 heartbeat IPC: 0.5577 cumulative IPC: 0.5337 (Simulation time: 11 hr 11 min 56 sec)
Heartbeat CPU 2 instructions: 1070000000 cycles: 1230842238 heartbeat IPC: 0.8042 cumulative IPC: 0.8263 (Simulation time: 11 hr 13 min 47 sec)
Heartbeat CPU 3 instructions: 1310000003 cycles: 1235551290 heartbeat IPC: 0.4787 cumulative IPC: 1.01 (Simulation time: 11 hr 15 min 52 sec)
Heartbeat CPU 2 instructions: 1080000000 cycles: 1239842575 heartbeat IPC: 1.111 cumulative IPC: 0.8284 (Simulation time: 11 hr 18 min 01 sec)
Heartbeat CPU 1 instructions: 710000003 cycles: 1244071914 heartbeat IPC: 0.578 cumulative IPC: 0.5343 (Simulation time: 11 hr 20 min 04 sec)
Heartbeat CPU 2 instructions: 1090000000 cycles: 1252932265 heartbeat IPC: 0.764 cumulative IPC: 0.8277 (Simulation time: 11 hr 24 min 02 sec)
Heartbeat CPU 1 instructions: 720000000 cycles: 1262067610 heartbeat IPC: 0.5557 cumulative IPC: 0.5346 (Simulation time: 11 hr 28 min 01 sec)
Heartbeat CPU 2 instructions: 1100000001 cycles: 1266413000 heartbeat IPC: 0.7418 cumulative IPC: 0.8268 (Simulation time: 11 hr 29 min 51 sec)
Heartbeat CPU 3 instructions: 1320000004 cycles: 1272996345 heartbeat IPC: 0.2671 cumulative IPC: 0.9876 (Simulation time: 11 hr 32 min 22 sec)
Heartbeat CPU 0 instructions: 190000003 cycles: 1274073658 heartbeat IPC: 0.1074 cumulative IPC: 0.1117 (Simulation time: 11 hr 32 min 56 sec)
Heartbeat CPU 3 instructions: 1330000002 cycles: 1280091475 heartbeat IPC: 1.409 cumulative IPC: 0.99 (Simulation time: 11 hr 35 min 34 sec)
Heartbeat CPU 2 instructions: 1110000003 cycles: 1280852900 heartbeat IPC: 0.6925 cumulative IPC: 0.8252 (Simulation time: 11 hr 36 min 05 sec)
Heartbeat CPU 1 instructions: 730000003 cycles: 1286276987 heartbeat IPC: 0.4131 cumulative IPC: 0.5323 (Simulation time: 11 hr 38 min 41 sec)
Heartbeat CPU 3 instructions: 1340000003 cycles: 1286385515 heartbeat IPC: 1.589 cumulative IPC: 0.993 (Simulation time: 11 hr 38 min 44 sec)
Heartbeat CPU 3 instructions: 1350000002 cycles: 1289858527 heartbeat IPC: 2.879 cumulative IPC: 0.9981 (Simulation time: 11 hr 40 min 43 sec)
Heartbeat CPU 2 instructions: 1120000001 cycles: 1290127525 heartbeat IPC: 1.078 cumulative IPC: 0.8271 (Simulation time: 11 hr 40 min 51 sec)
Heartbeat CPU 3 instructions: 1360000004 cycles: 1295078434 heartbeat IPC: 1.916 cumulative IPC: 1.002 (Simulation time: 11 hr 43 min 07 sec)
Heartbeat CPU 3 instructions: 1370000004 cycles: 1299205027 heartbeat IPC: 2.423 cumulative IPC: 1.006 (Simulation time: 11 hr 45 min 16 sec)
Heartbeat CPU 1 instructions: 740000001 cycles: 1301152024 heartbeat IPC: 0.6723 cumulative IPC: 0.5339 (Simulation time: 11 hr 46 min 14 sec)
Heartbeat CPU 3 instructions: 1380000003 cycles: 1303118156 heartbeat IPC: 2.555 cumulative IPC: 1.011 (Simulation time: 11 hr 47 min 17 sec)
Heartbeat CPU 2 instructions: 1130000002 cycles: 1303747229 heartbeat IPC: 0.7342 cumulative IPC: 0.8261 (Simulation time: 11 hr 47 min 41 sec)
Heartbeat CPU 2 instructions: 1140000001 cycles: 1314922545 heartbeat IPC: 0.8948 cumulative IPC: 0.8267 (Simulation time: 11 hr 52 min 54 sec)
Heartbeat CPU 3 instructions: 1390000004 cycles: 1316738299 heartbeat IPC: 0.7342 cumulative IPC: 1.008 (Simulation time: 11 hr 53 min 43 sec)
Heartbeat CPU 1 instructions: 750000001 cycles: 1319197565 heartbeat IPC: 0.5542 cumulative IPC: 0.5342 (Simulation time: 11 hr 54 min 48 sec)
Heartbeat CPU 2 instructions: 1150000000 cycles: 1326854991 heartbeat IPC: 0.8381 cumulative IPC: 0.8268 (Simulation time: 11 hr 58 min 07 sec)
Heartbeat CPU 3 instructions: 1400000000 cycles: 1330142424 heartbeat IPC: 0.746 cumulative IPC: 1.006 (Simulation time: 11 hr 59 min 38 sec)
Heartbeat CPU 2 instructions: 1160000002 cycles: 1337196147 heartbeat IPC: 0.967 cumulative IPC: 0.8279 (Simulation time: 12 hr 02 min 48 sec)
Heartbeat CPU 1 instructions: 760000003 cycles: 1339409997 heartbeat IPC: 0.4947 cumulative IPC: 0.5336 (Simulation time: 12 hr 03 min 50 sec)
Heartbeat CPU 3 instructions: 1410000000 cycles: 1340247366 heartbeat IPC: 0.9896 cumulative IPC: 1.005 (Simulation time: 12 hr 04 min 16 sec)
Heartbeat CPU 2 instructions: 1170000001 cycles: 1347122153 heartbeat IPC: 1.007 cumulative IPC: 0.8293 (Simulation time: 12 hr 07 min 35 sec)
Heartbeat CPU 3 instructions: 1420000004 cycles: 1348125559 heartbeat IPC: 1.269 cumulative IPC: 1.007 (Simulation time: 12 hr 08 min 03 sec)
Heartbeat CPU 1 instructions: 770000003 cycles: 1359509485 heartbeat IPC: 0.4975 cumulative IPC: 0.533 (Simulation time: 12 hr 12 min 43 sec)
Heartbeat CPU 3 instructions: 1430000003 cycles: 1369998126 heartbeat IPC: 0.4572 cumulative IPC: 0.9981 (Simulation time: 12 hr 17 min 08 sec)
Heartbeat CPU 2 instructions: 1180000000 cycles: 1371310042 heartbeat IPC: 0.4134 cumulative IPC: 0.8218 (Simulation time: 12 hr 17 min 41 sec)
Heartbeat CPU 0 instructions: 200000001 cycles: 1387850213 heartbeat IPC: 0.08789 cumulative IPC: 0.1097 (Simulation time: 12 hr 24 min 17 sec)
Simulation finished CPU 0 instructions: 150000002 cycles: 1366979516 cumulative IPC: 0.1097 (Simulation time: 12 hr 24 min 17 sec)
Simulation complete CPU 0 instructions: 150000002 cycles: 1366979516 cumulative IPC: 0.1097 (Simulation time: 12 hr 24 min 17 sec)
Simulation complete CPU 1 instructions: 722813335 cycles: 1366979516 cumulative IPC: 0.5288 (Simulation time: 12 hr 24 min 17 sec)
Simulation complete CPU 2 instructions: 1117217189 cycles: 1366979516 cumulative IPC: 0.8173 (Simulation time: 12 hr 24 min 17 sec)
Simulation complete CPU 3 instructions: 1350192943 cycles: 1366979516 cumulative IPC: 0.9877 (Simulation time: 12 hr 24 min 17 sec)

ChampSim completed all CPUs

=== Simulation ===
CPU 0 runs /home/das/dpc3_traces/620.omnetpp_s-874B.champsimtrace.xzCPU 1 runs /home/das/dpc3_traces/607.cactuBSSN_s-2421B.champsimtrace.xzCPU 2 runs /home/das/dpc3_traces/623.xalancbmk_s-700B.champsimtrace.xzCPU 3 runs /home/das/dpc3_traces/621.wrf_s-575B.champsimtrace.xz
Total Simulation Statistics (not including warmup)

CPU 0 cumulative IPC: 0.1097 instructions: 150000002 cycles: 1366979516
CPU 0 Branch Prediction Accuracy: 94.9% MPKI: 10.6 Average ROB Occupancy at Mispredict: 84.59
Branch type MPKI
BRANCH_DIRECT_JUMP: 0.923
BRANCH_INDIRECT: 0.128
BRANCH_CONDITIONAL: 8.42
BRANCH_DIRECT_CALL: 0.00016
BRANCH_INDIRECT_CALL: 0.734
BRANCH_RETURN: 0.399


CPU 1 cumulative IPC: 0.5288 instructions: 722813335 cycles: 1366979516
CPU 1 Branch Prediction Accuracy: 99.85% MPKI: 0.0018 Average ROB Occupancy at Mispredict: 348.9
Branch type MPKI
BRANCH_DIRECT_JUMP: 1.38e-06
BRANCH_INDIRECT: 6.92e-06
BRANCH_CONDITIONAL: 0.00179
BRANCH_DIRECT_CALL: 0
BRANCH_INDIRECT_CALL: 0
BRANCH_RETURN: 0


CPU 2 cumulative IPC: 0.8173 instructions: 1117217189 cycles: 1366979516
CPU 2 Branch Prediction Accuracy: 97.21% MPKI: 7.963 Average ROB Occupancy at Mispredict: 42.33
Branch type MPKI
BRANCH_DIRECT_JUMP: 0.11
BRANCH_INDIRECT: 0.342
BRANCH_CONDITIONAL: 5.7
BRANCH_DIRECT_CALL: 0.000268
BRANCH_INDIRECT_CALL: 0.373
BRANCH_RETURN: 1.44


CPU 3 cumulative IPC: 0.9877 instructions: 1350192943 cycles: 1366979516
CPU 3 Branch Prediction Accuracy: 96.19% MPKI: 3.325 Average ROB Occupancy at Mispredict: 129.7
Branch type MPKI
BRANCH_DIRECT_JUMP: 0.0003
BRANCH_INDIRECT: 1.41e-05
BRANCH_CONDITIONAL: 3.12
BRANCH_DIRECT_CALL: 0.00184
BRANCH_INDIRECT_CALL: 0
BRANCH_RETURN: 0.207

LLC TOTAL        ACCESS:    3541261 HIT:    1225183 MISS:    2316078
LLC LOAD         ACCESS:    1685459 HIT:     286386 MISS:    1399073
LLC RFO          ACCESS:     257761 HIT:      75555 MISS:     182206
LLC PREFETCH     ACCESS:      33783 HIT:      11432 MISS:      22351
LLC WRITE        ACCESS:     968255 HIT:     815543 MISS:     152712
LLC TRANSLATION  ACCESS:     596003 HIT:      36267 MISS:     559736
LLC PREFETCH REQUESTED:          0 ISSUED:          0 USEFUL:          0 USELESS:          0
LLC AVERAGE MISS LATENCY: 2190 cycles
LLC TOTAL        ACCESS:    8399714 HIT:    2774695 MISS:    5625019
LLC LOAD         ACCESS:    7427471 HIT:    1995303 MISS:    5432168
LLC RFO          ACCESS:      15088 HIT:      15088 MISS:          0
LLC PREFETCH     ACCESS:     133491 HIT:       8315 MISS:     125176
LLC WRITE        ACCESS:     714721 HIT:     714536 MISS:        185
LLC TRANSLATION  ACCESS:     108943 HIT:      41453 MISS:      67490
LLC PREFETCH REQUESTED:          0 ISSUED:          0 USEFUL:          0 USELESS:          0
LLC AVERAGE MISS LATENCY: 2190 cycles
LLC TOTAL        ACCESS:    5601846 HIT:    3555373 MISS:    2046473
LLC LOAD         ACCESS:    1798037 HIT:    1375725 MISS:     422312
LLC RFO          ACCESS:    1374281 HIT:      65066 MISS:    1309215
LLC PREFETCH     ACCESS:     590736 HIT:     461238 MISS:     129498
LLC WRITE        ACCESS:    1666338 HIT:    1574317 MISS:      92021
LLC TRANSLATION  ACCESS:     172454 HIT:      79027 MISS:      93427
LLC PREFETCH REQUESTED:          0 ISSUED:          0 USEFUL:          0 USELESS:          0
LLC AVERAGE MISS LATENCY: 2190 cycles
LLC TOTAL        ACCESS:   28801223 HIT:   15185359 MISS:   13615864
LLC LOAD         ACCESS:    1972875 HIT:    1048068 MISS:     924807
LLC RFO          ACCESS:    2375937 HIT:     509881 MISS:    1866056
LLC PREFETCH     ACCESS:   19539728 HIT:    8744386 MISS:   10795342
LLC WRITE        ACCESS:    4897899 HIT:    4879275 MISS:      18624
LLC TRANSLATION  ACCESS:      14784 HIT:       3749 MISS:      11035
LLC PREFETCH REQUESTED:          0 ISSUED:          0 USEFUL:          0 USELESS:          0
LLC AVERAGE MISS LATENCY: 2190 cycles
cpu0_DTLB TOTAL        ACCESS:   38337677 HIT:   35036455 MISS:    3301222
cpu0_DTLB LOAD         ACCESS:   38337677 HIT:   35036455 MISS:    3301222
cpu0_DTLB RFO          ACCESS:          0 HIT:          0 MISS:          0
cpu0_DTLB PREFETCH     ACCESS:          0 HIT:          0 MISS:          0
cpu0_DTLB WRITE        ACCESS:          0 HIT:          0 MISS:          0
cpu0_DTLB TRANSLATION  ACCESS:          0 HIT:          0 MISS:          0
cpu0_DTLB PREFETCH REQUESTED:          0 ISSUED:          0 USEFUL:          0 USELESS:          0
cpu0_DTLB AVERAGE MISS LATENCY: 298.1 cycles
cpu0_DTLB TOTAL        ACCESS:          0 HIT:          0 MISS:          0
cpu0_DTLB LOAD         ACCESS:          0 HIT:          0 MISS:          0
cpu0_DTLB RFO          ACCESS:          0 HIT:          0 MISS:          0
cpu0_DTLB PREFETCH     ACCESS:          0 HIT:          0 MISS:          0
cpu0_DTLB WRITE        ACCESS:          0 HIT:          0 MISS:          0
cpu0_DTLB TRANSLATION  ACCESS:          0 HIT:          0 MISS:          0
cpu0_DTLB PREFETCH REQUESTED:          0 ISSUED:          0 USEFUL:          0 USELESS:          0
cpu0_DTLB AVERAGE MISS LATENCY: 298.1 cycles
cpu0_DTLB TOTAL        ACCESS:          0 HIT:          0 MISS:          0
cpu0_DTLB LOAD         ACCESS:          0 HIT:          0 MISS:          0
cpu0_DTLB RFO          ACCESS:          0 HIT:          0 MISS:          0
cpu0_DTLB PREFETCH     ACCESS:          0 HIT:          0 MISS:          0
cpu0_DTLB WRITE        ACCESS:          0 HIT:          0 MISS:          0
cpu0_DTLB TRANSLATION  ACCESS:          0 HIT:          0 MISS:          0
cpu0_DTLB PREFETCH REQUESTED:          0 ISSUED:          0 USEFUL:          0 USELESS:          0
cpu0_DTLB AVERAGE MISS LATENCY: 298.1 cycles
cpu0_DTLB TOTAL        ACCESS:          0 HIT:          0 MISS:          0
cpu0_DTLB LOAD         ACCESS:          0 HIT:          0 MISS:          0
cpu0_DTLB RFO          ACCESS:          0 HIT:          0 MISS:          0
cpu0_DTLB PREFETCH     ACCESS:          0 HIT:          0 MISS:          0
cpu0_DTLB WRITE        ACCESS:          0 HIT:          0 MISS:          0
cpu0_DTLB TRANSLATION  ACCESS:          0 HIT:          0 MISS:          0
cpu0_DTLB PREFETCH REQUESTED:          0 ISSUED:          0 USEFUL:          0 USELESS:          0
cpu0_DTLB AVERAGE MISS LATENCY: 298.1 cycles
cpu0_ITLB TOTAL        ACCESS:   10774698 HIT:   10503801 MISS:     270897
cpu0_ITLB LOAD         ACCESS:   10774698 HIT:   10503801 MISS:     270897
cpu0_ITLB RFO          ACCESS:          0 HIT:          0 MISS:          0
cpu0_ITLB PREFETCH     ACCESS:          0 HIT:          0 MISS:          0
cpu0_ITLB WRITE        ACCESS:          0 HIT:          0 MISS:          0
cpu0_ITLB TRANSLATION  ACCESS:          0 HIT:          0 MISS:          0
cpu0_ITLB PREFETCH REQUESTED:          0 ISSUED:          0 USEFUL:          0 USELESS:          0
cpu0_ITLB AVERAGE MISS LATENCY: 21.04 cycles
cpu0_ITLB TOTAL        ACCESS:          0 HIT:          0 MISS:          0
cpu0_ITLB LOAD         ACCESS:          0 HIT:          0 MISS:          0
cpu0_ITLB RFO          ACCESS:          0 HIT:          0 MISS:          0
cpu0_ITLB PREFETCH     ACCESS:          0 HIT:          0 MISS:          0
cpu0_ITLB WRITE        ACCESS:          0 HIT:          0 MISS:          0
cpu0_ITLB TRANSLATION  ACCESS:          0 HIT:          0 MISS:          0
cpu0_ITLB PREFETCH REQUESTED:          0 ISSUED:          0 USEFUL:          0 USELESS:          0
cpu0_ITLB AVERAGE MISS LATENCY: 21.04 cycles
cpu0_ITLB TOTAL        ACCESS:          0 HIT:          0 MISS:          0
cpu0_ITLB LOAD         ACCESS:          0 HIT:          0 MISS:          0
cpu0_ITLB RFO          ACCESS:          0 HIT:          0 MISS:          0
cpu0_ITLB PREFETCH     ACCESS:          0 HIT:          0 MISS:          0
cpu0_ITLB WRITE        ACCESS:          0 HIT:          0 MISS:          0
cpu0_ITLB TRANSLATION  ACCESS:          0 HIT:          0 MISS:          0
cpu0_ITLB PREFETCH REQUESTED:          0 ISSUED:          0 USEFUL:          0 USELESS:          0
cpu0_ITLB AVERAGE MISS LATENCY: 21.04 cycles
cpu0_ITLB TOTAL        ACCESS:          0 HIT:          0 MISS:          0
cpu0_ITLB LOAD         ACCESS:          0 HIT:          0 MISS:          0
cpu0_ITLB RFO          ACCESS:          0 HIT:          0 MISS:          0
cpu0_ITLB PREFETCH     ACCESS:          0 HIT:          0 MISS:          0
cpu0_ITLB WRITE        ACCESS:          0 HIT:          0 MISS:          0
cpu0_ITLB TRANSLATION  ACCESS:          0 HIT:          0 MISS:          0
cpu0_ITLB PREFETCH REQUESTED:          0 ISSUED:          0 USEFUL:          0 USELESS:          0
cpu0_ITLB AVERAGE MISS LATENCY: 21.04 cycles
cpu0_L1D TOTAL        ACCESS:   49887840 HIT:   44930546 MISS:    4957294
cpu0_L1D LOAD         ACCESS:   23013915 HIT:   19920845 MISS:    3093070
cpu0_L1D RFO          ACCESS:          0 HIT:          0 MISS:          0
cpu0_L1D PREFETCH     ACCESS:          0 HIT:          0 MISS:          0
cpu0_L1D WRITE        ACCESS:   25982801 HIT:   24864546 MISS:    1118255
cpu0_L1D TRANSLATION  ACCESS:     891124 HIT:     145155 MISS:     745969
cpu0_L1D PREFETCH REQUESTED:          0 ISSUED:          0 USEFUL:          0 USELESS:          0
cpu0_L1D AVERAGE MISS LATENCY: 756.8 cycles
cpu0_L1D TOTAL        ACCESS:          0 HIT:          0 MISS:          0
cpu0_L1D LOAD         ACCESS:          0 HIT:          0 MISS:          0
cpu0_L1D RFO          ACCESS:          0 HIT:          0 MISS:          0
cpu0_L1D PREFETCH     ACCESS:          0 HIT:          0 MISS:          0
cpu0_L1D WRITE        ACCESS:          0 HIT:          0 MISS:          0
cpu0_L1D TRANSLATION  ACCESS:          0 HIT:          0 MISS:          0
cpu0_L1D PREFETCH REQUESTED:          0 ISSUED:          0 USEFUL:          0 USELESS:          0
cpu0_L1D AVERAGE MISS LATENCY: 756.8 cycles
cpu0_L1D TOTAL        ACCESS:          0 HIT:          0 MISS:          0
cpu0_L1D LOAD         ACCESS:          0 HIT:          0 MISS:          0
cpu0_L1D RFO          ACCESS:          0 HIT:          0 MISS:          0
cpu0_L1D PREFETCH     ACCESS:          0 HIT:          0 MISS:          0
cpu0_L1D WRITE        ACCESS:          0 HIT:          0 MISS:          0
cpu0_L1D TRANSLATION  ACCESS:          0 HIT:          0 MISS:          0
cpu0_L1D PREFETCH REQUESTED:          0 ISSUED:          0 USEFUL:          0 USELESS:          0
cpu0_L1D AVERAGE MISS LATENCY: 756.8 cycles
cpu0_L1D TOTAL        ACCESS:          0 HIT:          0 MISS:          0
cpu0_L1D LOAD         ACCESS:          0 HIT:          0 MISS:          0
cpu0_L1D RFO          ACCESS:          0 HIT:          0 MISS:          0
cpu0_L1D PREFETCH     ACCESS:          0 HIT:          0 MISS:          0
cpu0_L1D WRITE        ACCESS:          0 HIT:          0 MISS:          0
cpu0_L1D TRANSLATION  ACCESS:          0 HIT:          0 MISS:          0
cpu0_L1D PREFETCH REQUESTED:          0 ISSUED:          0 USEFUL:          0 USELESS:          0
cpu0_L1D AVERAGE MISS LATENCY: 756.8 cycles
cpu0_L1I TOTAL        ACCESS:   12877072 HIT:   12802970 MISS:      74102
cpu0_L1I LOAD         ACCESS:   12877072 HIT:   12802970 MISS:      74102
cpu0_L1I RFO          ACCESS:          0 HIT:          0 MISS:          0
cpu0_L1I PREFETCH     ACCESS:          0 HIT:          0 MISS:          0
cpu0_L1I WRITE        ACCESS:          0 HIT:          0 MISS:          0
cpu0_L1I TRANSLATION  ACCESS:          0 HIT:          0 MISS:          0
cpu0_L1I PREFETCH REQUESTED:          0 ISSUED:          0 USEFUL:          0 USELESS:          0
cpu0_L1I AVERAGE MISS LATENCY: 161.5 cycles
cpu0_L1I TOTAL        ACCESS:          0 HIT:          0 MISS:          0
cpu0_L1I LOAD         ACCESS:          0 HIT:          0 MISS:          0
cpu0_L1I RFO          ACCESS:          0 HIT:          0 MISS:          0
cpu0_L1I PREFETCH     ACCESS:          0 HIT:          0 MISS:          0
cpu0_L1I WRITE        ACCESS:          0 HIT:          0 MISS:          0
cpu0_L1I TRANSLATION  ACCESS:          0 HIT:          0 MISS:          0
cpu0_L1I PREFETCH REQUESTED:          0 ISSUED:          0 USEFUL:          0 USELESS:          0
cpu0_L1I AVERAGE MISS LATENCY: 161.5 cycles
cpu0_L1I TOTAL        ACCESS:          0 HIT:          0 MISS:          0
cpu0_L1I LOAD         ACCESS:          0 HIT:          0 MISS:          0
cpu0_L1I RFO          ACCESS:          0 HIT:          0 MISS:          0
cpu0_L1I PREFETCH     ACCESS:          0 HIT:          0 MISS:          0
cpu0_L1I WRITE        ACCESS:          0 HIT:          0 MISS:          0
cpu0_L1I TRANSLATION  ACCESS:          0 HIT:          0 MISS:          0
cpu0_L1I PREFETCH REQUESTED:          0 ISSUED:          0 USEFUL:          0 USELESS:          0
cpu0_L1I AVERAGE MISS LATENCY: 161.5 cycles
cpu0_L1I TOTAL        ACCESS:          0 HIT:          0 MISS:          0
cpu0_L1I LOAD         ACCESS:          0 HIT:          0 MISS:          0
cpu0_L1I RFO          ACCESS:          0 HIT:          0 MISS:          0
cpu0_L1I PREFETCH     ACCESS:          0 HIT:          0 MISS:          0
cpu0_L1I WRITE        ACCESS:          0 HIT:          0 MISS:          0
cpu0_L1I TRANSLATION  ACCESS:          0 HIT:          0 MISS:          0
cpu0_L1I PREFETCH REQUESTED:          0 ISSUED:          0 USEFUL:          0 USELESS:          0
cpu0_L1I AVERAGE MISS LATENCY: 161.5 cycles
cpu0_L2C TOTAL        ACCESS:    5092047 HIT:    2515471 MISS:    2576576
cpu0_L2C LOAD         ACCESS:    2539849 HIT:     854230 MISS:    1685619
cpu0_L2C RFO          ACCESS:     365097 HIT:     107336 MISS:     257761
cpu0_L2C PREFETCH     ACCESS:      43853 HIT:       9174 MISS:      34679
cpu0_L2C WRITE        ACCESS:    1398070 HIT:    1395556 MISS:       2514
cpu0_L2C TRANSLATION  ACCESS:     745178 HIT:     149175 MISS:     596003
cpu0_L2C PREFETCH REQUESTED:      43853 ISSUED:      43853 USEFUL:       3933 USELESS:       2301
cpu0_L2C AVERAGE MISS LATENCY: 1477 cycles
cpu0_L2C TOTAL        ACCESS:          0 HIT:          0 MISS:          0
cpu0_L2C LOAD         ACCESS:          0 HIT:          0 MISS:          0
cpu0_L2C RFO          ACCESS:          0 HIT:          0 MISS:          0
cpu0_L2C PREFETCH     ACCESS:          0 HIT:          0 MISS:          0
cpu0_L2C WRITE        ACCESS:          0 HIT:          0 MISS:          0
cpu0_L2C TRANSLATION  ACCESS:          0 HIT:          0 MISS:          0
cpu0_L2C PREFETCH REQUESTED:      43853 ISSUED:      43853 USEFUL:       3933 USELESS:       2301
cpu0_L2C AVERAGE MISS LATENCY: 1477 cycles
cpu0_L2C TOTAL        ACCESS:          0 HIT:          0 MISS:          0
cpu0_L2C LOAD         ACCESS:          0 HIT:          0 MISS:          0
cpu0_L2C RFO          ACCESS:          0 HIT:          0 MISS:          0
cpu0_L2C PREFETCH     ACCESS:          0 HIT:          0 MISS:          0
cpu0_L2C WRITE        ACCESS:          0 HIT:          0 MISS:          0
cpu0_L2C TRANSLATION  ACCESS:          0 HIT:          0 MISS:          0
cpu0_L2C PREFETCH REQUESTED:      43853 ISSUED:      43853 USEFUL:       3933 USELESS:       2301
cpu0_L2C AVERAGE MISS LATENCY: 1477 cycles
cpu0_L2C TOTAL        ACCESS:          0 HIT:          0 MISS:          0
cpu0_L2C LOAD         ACCESS:          0 HIT:          0 MISS:          0
cpu0_L2C RFO          ACCESS:          0 HIT:          0 MISS:          0
cpu0_L2C PREFETCH     ACCESS:          0 HIT:          0 MISS:          0
cpu0_L2C WRITE        ACCESS:          0 HIT:          0 MISS:          0
cpu0_L2C TRANSLATION  ACCESS:          0 HIT:          0 MISS:          0
cpu0_L2C PREFETCH REQUESTED:      43853 ISSUED:      43853 USEFUL:       3933 USELESS:       2301
cpu0_L2C AVERAGE MISS LATENCY: 1477 cycles
cpu0_STLB TOTAL        ACCESS:    3015006 HIT:    2372593 MISS:     642413
cpu0_STLB LOAD         ACCESS:    3015006 HIT:    2372593 MISS:     642413
cpu0_STLB RFO          ACCESS:          0 HIT:          0 MISS:          0
cpu0_STLB PREFETCH     ACCESS:          0 HIT:          0 MISS:          0
cpu0_STLB WRITE        ACCESS:          0 HIT:          0 MISS:          0
cpu0_STLB TRANSLATION  ACCESS:          0 HIT:          0 MISS:          0
cpu0_STLB PREFETCH REQUESTED:          0 ISSUED:          0 USEFUL:          0 USELESS:          0
cpu0_STLB AVERAGE MISS LATENCY: 1537 cycles
cpu0_STLB TOTAL        ACCESS:          0 HIT:          0 MISS:          0
cpu0_STLB LOAD         ACCESS:          0 HIT:          0 MISS:          0
cpu0_STLB RFO          ACCESS:          0 HIT:          0 MISS:          0
cpu0_STLB PREFETCH     ACCESS:          0 HIT:          0 MISS:          0
cpu0_STLB WRITE        ACCESS:          0 HIT:          0 MISS:          0
cpu0_STLB TRANSLATION  ACCESS:          0 HIT:          0 MISS:          0
cpu0_STLB PREFETCH REQUESTED:          0 ISSUED:          0 USEFUL:          0 USELESS:          0
cpu0_STLB AVERAGE MISS LATENCY: 1537 cycles
cpu0_STLB TOTAL        ACCESS:          0 HIT:          0 MISS:          0
cpu0_STLB LOAD         ACCESS:          0 HIT:          0 MISS:          0
cpu0_STLB RFO          ACCESS:          0 HIT:          0 MISS:          0
cpu0_STLB PREFETCH     ACCESS:          0 HIT:          0 MISS:          0
cpu0_STLB WRITE        ACCESS:          0 HIT:          0 MISS:          0
cpu0_STLB TRANSLATION  ACCESS:          0 HIT:          0 MISS:          0
cpu0_STLB PREFETCH REQUESTED:          0 ISSUED:          0 USEFUL:          0 USELESS:          0
cpu0_STLB AVERAGE MISS LATENCY: 1537 cycles
cpu0_STLB TOTAL        ACCESS:          0 HIT:          0 MISS:          0
cpu0_STLB LOAD         ACCESS:          0 HIT:          0 MISS:          0
cpu0_STLB RFO          ACCESS:          0 HIT:          0 MISS:          0
cpu0_STLB PREFETCH     ACCESS:          0 HIT:          0 MISS:          0
cpu0_STLB WRITE        ACCESS:          0 HIT:          0 MISS:          0
cpu0_STLB TRANSLATION  ACCESS:          0 HIT:          0 MISS:          0
cpu0_STLB PREFETCH REQUESTED:          0 ISSUED:          0 USEFUL:          0 USELESS:          0
cpu0_STLB AVERAGE MISS LATENCY: 1537 cycles
cpu1_DTLB TOTAL        ACCESS:          0 HIT:          0 MISS:          0
cpu1_DTLB LOAD         ACCESS:          0 HIT:          0 MISS:          0
cpu1_DTLB RFO          ACCESS:          0 HIT:          0 MISS:          0
cpu1_DTLB PREFETCH     ACCESS:          0 HIT:          0 MISS:          0
cpu1_DTLB WRITE        ACCESS:          0 HIT:          0 MISS:          0
cpu1_DTLB TRANSLATION  ACCESS:          0 HIT:          0 MISS:          0
cpu1_DTLB PREFETCH REQUESTED:          0 ISSUED:          0 USEFUL:          0 USELESS:          0
cpu1_DTLB AVERAGE MISS LATENCY: 9.286 cycles
cpu1_DTLB TOTAL        ACCESS:  151888361 HIT:   88599749 MISS:   63288612
cpu1_DTLB LOAD         ACCESS:  151888361 HIT:   88599749 MISS:   63288612
cpu1_DTLB RFO          ACCESS:          0 HIT:          0 MISS:          0
cpu1_DTLB PREFETCH     ACCESS:          0 HIT:          0 MISS:          0
cpu1_DTLB WRITE        ACCESS:          0 HIT:          0 MISS:          0
cpu1_DTLB TRANSLATION  ACCESS:          0 HIT:          0 MISS:          0
cpu1_DTLB PREFETCH REQUESTED:          0 ISSUED:          0 USEFUL:          0 USELESS:          0
cpu1_DTLB AVERAGE MISS LATENCY: 9.286 cycles
cpu1_DTLB TOTAL        ACCESS:          0 HIT:          0 MISS:          0
cpu1_DTLB LOAD         ACCESS:          0 HIT:          0 MISS:          0
cpu1_DTLB RFO          ACCESS:          0 HIT:          0 MISS:          0
cpu1_DTLB PREFETCH     ACCESS:          0 HIT:          0 MISS:          0
cpu1_DTLB WRITE        ACCESS:          0 HIT:          0 MISS:          0
cpu1_DTLB TRANSLATION  ACCESS:          0 HIT:          0 MISS:          0
cpu1_DTLB PREFETCH REQUESTED:          0 ISSUED:          0 USEFUL:          0 USELESS:          0
cpu1_DTLB AVERAGE MISS LATENCY: 9.286 cycles
cpu1_DTLB TOTAL        ACCESS:          0 HIT:          0 MISS:          0
cpu1_DTLB LOAD         ACCESS:          0 HIT:          0 MISS:          0
cpu1_DTLB RFO          ACCESS:          0 HIT:          0 MISS:          0
cpu1_DTLB PREFETCH     ACCESS:          0 HIT:          0 MISS:          0
cpu1_DTLB WRITE        ACCESS:          0 HIT:          0 MISS:          0
cpu1_DTLB TRANSLATION  ACCESS:          0 HIT:          0 MISS:          0
cpu1_DTLB PREFETCH REQUESTED:          0 ISSUED:          0 USEFUL:          0 USELESS:          0
cpu1_DTLB AVERAGE MISS LATENCY: 9.286 cycles
cpu1_ITLB TOTAL        ACCESS:          0 HIT:          0 MISS:          0
cpu1_ITLB LOAD         ACCESS:          0 HIT:          0 MISS:          0
cpu1_ITLB RFO          ACCESS:          0 HIT:          0 MISS:          0
cpu1_ITLB PREFETCH     ACCESS:          0 HIT:          0 MISS:          0
cpu1_ITLB WRITE        ACCESS:          0 HIT:          0 MISS:          0
cpu1_ITLB TRANSLATION  ACCESS:          0 HIT:          0 MISS:          0
cpu1_ITLB PREFETCH REQUESTED:          0 ISSUED:          0 USEFUL:          0 USELESS:          0
cpu1_ITLB AVERAGE MISS LATENCY: -nan cycles
cpu1_ITLB TOTAL        ACCESS:   94034307 HIT:   94034307 MISS:          0
cpu1_ITLB LOAD         ACCESS:   94034307 HIT:   94034307 MISS:          0
cpu1_ITLB RFO          ACCESS:          0 HIT:          0 MISS:          0
cpu1_ITLB PREFETCH     ACCESS:          0 HIT:          0 MISS:          0
cpu1_ITLB WRITE        ACCESS:          0 HIT:          0 MISS:          0
cpu1_ITLB TRANSLATION  ACCESS:          0 HIT:          0 MISS:          0
cpu1_ITLB PREFETCH REQUESTED:          0 ISSUED:          0 USEFUL:          0 USELESS:          0
cpu1_ITLB AVERAGE MISS LATENCY: -nan cycles
cpu1_ITLB TOTAL        ACCESS:          0 HIT:          0 MISS:          0
cpu1_ITLB LOAD         ACCESS:          0 HIT:          0 MISS:          0
cpu1_ITLB RFO          ACCESS:          0 HIT:          0 MISS:          0
cpu1_ITLB PREFETCH     ACCESS:          0 HIT:          0 MISS:          0
cpu1_ITLB WRITE        ACCESS:          0 HIT:          0 MISS:          0
cpu1_ITLB TRANSLATION  ACCESS:          0 HIT:          0 MISS:          0
cpu1_ITLB PREFETCH REQUESTED:          0 ISSUED:          0 USEFUL:          0 USELESS:          0
cpu1_ITLB AVERAGE MISS LATENCY: -nan cycles
cpu1_ITLB TOTAL        ACCESS:          0 HIT:          0 MISS:          0
cpu1_ITLB LOAD         ACCESS:          0 HIT:          0 MISS:          0
cpu1_ITLB RFO          ACCESS:          0 HIT:          0 MISS:          0
cpu1_ITLB PREFETCH     ACCESS:          0 HIT:          0 MISS:          0
cpu1_ITLB WRITE        ACCESS:          0 HIT:          0 MISS:          0
cpu1_ITLB TRANSLATION  ACCESS:          0 HIT:          0 MISS:          0
cpu1_ITLB PREFETCH REQUESTED:          0 ISSUED:          0 USEFUL:          0 USELESS:          0
cpu1_ITLB AVERAGE MISS LATENCY: -nan cycles
cpu1_L1D TOTAL        ACCESS:          0 HIT:          0 MISS:          0
cpu1_L1D LOAD         ACCESS:          0 HIT:          0 MISS:          0
cpu1_L1D RFO          ACCESS:          0 HIT:          0 MISS:          0
cpu1_L1D PREFETCH     ACCESS:          0 HIT:          0 MISS:          0
cpu1_L1D WRITE        ACCESS:          0 HIT:          0 MISS:          0
cpu1_L1D TRANSLATION  ACCESS:          0 HIT:          0 MISS:          0
cpu1_L1D PREFETCH REQUESTED:          0 ISSUED:          0 USEFUL:          0 USELESS:          0
cpu1_L1D AVERAGE MISS LATENCY: 200.8 cycles
cpu1_L1D TOTAL        ACCESS:  188959359 HIT:  104953842 MISS:   84005517
cpu1_L1D LOAD         ACCESS:  106240149 HIT:   26654787 MISS:   79585362
cpu1_L1D RFO          ACCESS:          0 HIT:          0 MISS:          0
cpu1_L1D PREFETCH     ACCESS:          0 HIT:          0 MISS:          0
cpu1_L1D WRITE        ACCESS:   82582481 HIT:   78297881 MISS:    4284600
cpu1_L1D TRANSLATION  ACCESS:     136729 HIT:       1174 MISS:     135555
cpu1_L1D PREFETCH REQUESTED:          0 ISSUED:          0 USEFUL:          0 USELESS:          0
cpu1_L1D AVERAGE MISS LATENCY: 200.8 cycles
cpu1_L1D TOTAL        ACCESS:          0 HIT:          0 MISS:          0
cpu1_L1D LOAD         ACCESS:          0 HIT:          0 MISS:          0
cpu1_L1D RFO          ACCESS:          0 HIT:          0 MISS:          0
cpu1_L1D PREFETCH     ACCESS:          0 HIT:          0 MISS:          0
cpu1_L1D WRITE        ACCESS:          0 HIT:          0 MISS:          0
cpu1_L1D TRANSLATION  ACCESS:          0 HIT:          0 MISS:          0
cpu1_L1D PREFETCH REQUESTED:          0 ISSUED:          0 USEFUL:          0 USELESS:          0
cpu1_L1D AVERAGE MISS LATENCY: 200.8 cycles
cpu1_L1D TOTAL        ACCESS:          0 HIT:          0 MISS:          0
cpu1_L1D LOAD         ACCESS:          0 HIT:          0 MISS:          0
cpu1_L1D RFO          ACCESS:          0 HIT:          0 MISS:          0
cpu1_L1D PREFETCH     ACCESS:          0 HIT:          0 MISS:          0
cpu1_L1D WRITE        ACCESS:          0 HIT:          0 MISS:          0
cpu1_L1D TRANSLATION  ACCESS:          0 HIT:          0 MISS:          0
cpu1_L1D PREFETCH REQUESTED:          0 ISSUED:          0 USEFUL:          0 USELESS:          0
cpu1_L1D AVERAGE MISS LATENCY: 200.8 cycles
cpu1_L1I TOTAL        ACCESS:          0 HIT:          0 MISS:          0
cpu1_L1I LOAD         ACCESS:          0 HIT:          0 MISS:          0
cpu1_L1I RFO          ACCESS:          0 HIT:          0 MISS:          0
cpu1_L1I PREFETCH     ACCESS:          0 HIT:          0 MISS:          0
cpu1_L1I WRITE        ACCESS:          0 HIT:          0 MISS:          0
cpu1_L1I TRANSLATION  ACCESS:          0 HIT:          0 MISS:          0
cpu1_L1I PREFETCH REQUESTED:          0 ISSUED:          0 USEFUL:          0 USELESS:          0
cpu1_L1I AVERAGE MISS LATENCY: -nan cycles
cpu1_L1I TOTAL        ACCESS:  123305602 HIT:  123305602 MISS:          0
cpu1_L1I LOAD         ACCESS:  123305602 HIT:  123305602 MISS:          0
cpu1_L1I RFO          ACCESS:          0 HIT:          0 MISS:          0
cpu1_L1I PREFETCH     ACCESS:          0 HIT:          0 MISS:          0
cpu1_L1I WRITE        ACCESS:          0 HIT:          0 MISS:          0
cpu1_L1I TRANSLATION  ACCESS:          0 HIT:          0 MISS:          0
cpu1_L1I PREFETCH REQUESTED:          0 ISSUED:          0 USEFUL:          0 USELESS:          0
cpu1_L1I AVERAGE MISS LATENCY: -nan cycles
cpu1_L1I TOTAL        ACCESS:          0 HIT:          0 MISS:          0
cpu1_L1I LOAD         ACCESS:          0 HIT:          0 MISS:          0
cpu1_L1I RFO          ACCESS:          0 HIT:          0 MISS:          0
cpu1_L1I PREFETCH     ACCESS:          0 HIT:          0 MISS:          0
cpu1_L1I WRITE        ACCESS:          0 HIT:          0 MISS:          0
cpu1_L1I TRANSLATION  ACCESS:          0 HIT:          0 MISS:          0
[...]
cpu2_L2C PREFETCH     ACCESS:          0 HIT:          0 MISS:          0
cpu2_L2C WRITE        ACCESS:          0 HIT:          0 MISS:          0
cpu2_L2C TRANSLATION  ACCESS:          0 HIT:          0 MISS:          0
cpu2_L2C PREFETCH REQUESTED:     988527 ISSUED:     988526 USEFUL:      48762 USELESS:      11884
cpu2_L2C AVERAGE MISS LATENCY: 1326 cycles
cpu2_L2C TOTAL        ACCESS:          0 HIT:          0 MISS:          0
cpu2_L2C LOAD         ACCESS:          0 HIT:          0 MISS:          0
cpu2_L2C RFO          ACCESS:          0 HIT:          0 MISS:          0
cpu2_L2C PREFETCH     ACCESS:          0 HIT:          0 MISS:          0
cpu2_L2C WRITE        ACCESS:          0 HIT:          0 MISS:          0
cpu2_L2C TRANSLATION  ACCESS:          0 HIT:          0 MISS:          0
cpu2_L2C PREFETCH REQUESTED:     988527 ISSUED:     988526 USEFUL:      48762 USELESS:      11884
cpu2_L2C AVERAGE MISS LATENCY: 1326 cycles
cpu2_L2C TOTAL        ACCESS:    8735684 HIT:    8185888 MISS:     549796
cpu2_L2C LOAD         ACCESS:    7782384 HIT:    7514108 MISS:     268276
cpu2_L2C RFO          ACCESS:     204183 HIT:      39292 MISS:     164891
cpu2_L2C PREFETCH     ACCESS:     155447 HIT:      66618 MISS:      88829
cpu2_L2C WRITE        ACCESS:     336282 HIT:     336272 MISS:         10
cpu2_L2C TRANSLATION  ACCESS:     257388 HIT:     229598 MISS:      27790
cpu2_L2C PREFETCH REQUESTED:     988527 ISSUED:     988526 USEFUL:      48762 USELESS:      11884
cpu2_L2C AVERAGE MISS LATENCY: 1326 cycles
cpu2_L2C TOTAL        ACCESS:          0 HIT:          0 MISS:          0
cpu2_L2C LOAD         ACCESS:          0 HIT:          0 MISS:          0
cpu2_L2C RFO          ACCESS:          0 HIT:          0 MISS:          0
cpu2_L2C PREFETCH     ACCESS:          0 HIT:          0 MISS:          0
cpu2_L2C WRITE        ACCESS:          0 HIT:          0 MISS:          0
cpu2_L2C TRANSLATION  ACCESS:          0 HIT:          0 MISS:          0
cpu2_L2C PREFETCH REQUESTED:     988527 ISSUED:     988526 USEFUL:      48762 USELESS:      11884
cpu2_L2C AVERAGE MISS LATENCY: 1326 cycles
cpu2_STLB TOTAL        ACCESS:          0 HIT:          0 MISS:          0
cpu2_STLB LOAD         ACCESS:          0 HIT:          0 MISS:          0
cpu2_STLB RFO          ACCESS:          0 HIT:          0 MISS:          0
cpu2_STLB PREFETCH     ACCESS:          0 HIT:          0 MISS:          0
cpu2_STLB WRITE        ACCESS:          0 HIT:          0 MISS:          0
cpu2_STLB TRANSLATION  ACCESS:          0 HIT:          0 MISS:          0
cpu2_STLB PREFETCH REQUESTED:          0 ISSUED:          0 USEFUL:          0 USELESS:          0
cpu2_STLB AVERAGE MISS LATENCY: 143.8 cycles
cpu2_STLB TOTAL        ACCESS:          0 HIT:          0 MISS:          0
cpu2_STLB LOAD         ACCESS:          0 HIT:          0 MISS:          0
cpu2_STLB RFO          ACCESS:          0 HIT:          0 MISS:          0
cpu2_STLB PREFETCH     ACCESS:          0 HIT:          0 MISS:          0
cpu2_STLB WRITE        ACCESS:          0 HIT:          0 MISS:          0
cpu2_STLB TRANSLATION  ACCESS:          0 HIT:          0 MISS:          0
cpu2_STLB PREFETCH REQUESTED:          0 ISSUED:          0 USEFUL:          0 USELESS:          0
cpu2_STLB AVERAGE MISS LATENCY: 143.8 cycles
cpu2_STLB TOTAL        ACCESS:    4510466 HIT:    4241573 MISS:     268893
cpu2_STLB LOAD         ACCESS:    4510466 HIT:    4241573 MISS:     268893
cpu2_STLB RFO          ACCESS:          0 HIT:          0 MISS:          0
cpu2_STLB PREFETCH     ACCESS:          0 HIT:          0 MISS:          0
cpu2_STLB WRITE        ACCESS:          0 HIT:          0 MISS:          0
cpu2_STLB TRANSLATION  ACCESS:          0 HIT:          0 MISS:          0
cpu2_STLB PREFETCH REQUESTED:          0 ISSUED:          0 USEFUL:          0 USELESS:          0
cpu2_STLB AVERAGE MISS LATENCY: 143.8 cycles
cpu2_STLB TOTAL        ACCESS:          0 HIT:          0 MISS:          0
cpu2_STLB LOAD         ACCESS:          0 HIT:          0 MISS:          0
cpu2_STLB RFO          ACCESS:          0 HIT:          0 MISS:          0
cpu2_STLB PREFETCH     ACCESS:          0 HIT:          0 MISS:          0
cpu2_STLB WRITE        ACCESS:          0 HIT:          0 MISS:          0
cpu2_STLB TRANSLATION  ACCESS:          0 HIT:          0 MISS:          0
cpu2_STLB PREFETCH REQUESTED:          0 ISSUED:          0 USEFUL:          0 USELESS:          0
cpu2_STLB AVERAGE MISS LATENCY: 143.8 cycles
cpu3_DTLB TOTAL        ACCESS:          0 HIT:          0 MISS:          0
cpu3_DTLB LOAD         ACCESS:          0 HIT:          0 MISS:          0
cpu3_DTLB RFO          ACCESS:          0 HIT:          0 MISS:          0
cpu3_DTLB PREFETCH     ACCESS:          0 HIT:          0 MISS:          0
cpu3_DTLB WRITE        ACCESS:          0 HIT:          0 MISS:          0
cpu3_DTLB TRANSLATION  ACCESS:          0 HIT:          0 MISS:          0
cpu3_DTLB PREFETCH REQUESTED:          0 ISSUED:          0 USEFUL:          0 USELESS:          0
cpu3_DTLB AVERAGE MISS LATENCY: 16.4 cycles
cpu3_DTLB TOTAL        ACCESS:          0 HIT:          0 MISS:          0
cpu3_DTLB LOAD         ACCESS:          0 HIT:          0 MISS:          0
cpu3_DTLB RFO          ACCESS:          0 HIT:          0 MISS:          0
cpu3_DTLB PREFETCH     ACCESS:          0 HIT:          0 MISS:          0
cpu3_DTLB WRITE        ACCESS:          0 HIT:          0 MISS:          0
cpu3_DTLB TRANSLATION  ACCESS:          0 HIT:          0 MISS:          0
cpu3_DTLB PREFETCH REQUESTED:          0 ISSUED:          0 USEFUL:          0 USELESS:          0
cpu3_DTLB AVERAGE MISS LATENCY: 16.4 cycles
cpu3_DTLB TOTAL        ACCESS:          0 HIT:          0 MISS:          0
cpu3_DTLB LOAD         ACCESS:          0 HIT:          0 MISS:          0
cpu3_DTLB RFO          ACCESS:          0 HIT:          0 MISS:          0
cpu3_DTLB PREFETCH     ACCESS:          0 HIT:          0 MISS:          0
cpu3_DTLB WRITE        ACCESS:          0 HIT:          0 MISS:          0
cpu3_DTLB TRANSLATION  ACCESS:          0 HIT:          0 MISS:          0
cpu3_DTLB PREFETCH REQUESTED:          0 ISSUED:          0 USEFUL:          0 USELESS:          0
cpu3_DTLB AVERAGE MISS LATENCY: 16.4 cycles
cpu3_DTLB TOTAL        ACCESS:   17701051 HIT:   17690611 MISS:      10440
cpu3_DTLB LOAD         ACCESS:   17701051 HIT:   17690611 MISS:      10440
cpu3_DTLB RFO          ACCESS:          0 HIT:          0 MISS:          0
cpu3_DTLB PREFETCH     ACCESS:          0 HIT:          0 MISS:          0
cpu3_DTLB WRITE        ACCESS:          0 HIT:          0 MISS:          0
cpu3_DTLB TRANSLATION  ACCESS:          0 HIT:          0 MISS:          0
cpu3_DTLB PREFETCH REQUESTED:          0 ISSUED:          0 USEFUL:          0 USELESS:          0
cpu3_DTLB AVERAGE MISS LATENCY: 16.4 cycles
cpu3_ITLB TOTAL        ACCESS:          0 HIT:          0 MISS:          0
cpu3_ITLB LOAD         ACCESS:          0 HIT:          0 MISS:          0
cpu3_ITLB RFO          ACCESS:          0 HIT:          0 MISS:          0
cpu3_ITLB PREFETCH     ACCESS:          0 HIT:          0 MISS:          0
cpu3_ITLB WRITE        ACCESS:          0 HIT:          0 MISS:          0
cpu3_ITLB TRANSLATION  ACCESS:          0 HIT:          0 MISS:          0
cpu3_ITLB PREFETCH REQUESTED:          0 ISSUED:          0 USEFUL:          0 USELESS:          0
cpu3_ITLB AVERAGE MISS LATENCY: 316.3 cycles
cpu3_ITLB TOTAL        ACCESS:          0 HIT:          0 MISS:          0
cpu3_ITLB LOAD         ACCESS:          0 HIT:          0 MISS:          0
cpu3_ITLB RFO          ACCESS:          0 HIT:          0 MISS:          0
cpu3_ITLB PREFETCH     ACCESS:          0 HIT:          0 MISS:          0
cpu3_ITLB WRITE        ACCESS:          0 HIT:          0 MISS:          0
cpu3_ITLB TRANSLATION  ACCESS:          0 HIT:          0 MISS:          0
cpu3_ITLB PREFETCH REQUESTED:          0 ISSUED:          0 USEFUL:          0 USELESS:          0
cpu3_ITLB AVERAGE MISS LATENCY: 316.3 cycles
cpu3_ITLB TOTAL        ACCESS:          0 HIT:          0 MISS:          0
cpu3_ITLB LOAD         ACCESS:          0 HIT:          0 MISS:          0
cpu3_ITLB RFO          ACCESS:          0 HIT:          0 MISS:          0
cpu3_ITLB PREFETCH     ACCESS:          0 HIT:          0 MISS:          0
cpu3_ITLB WRITE        ACCESS:          0 HIT:          0 MISS:          0
cpu3_ITLB TRANSLATION  ACCESS:          0 HIT:          0 MISS:          0
cpu3_ITLB PREFETCH REQUESTED:          0 ISSUED:          0 USEFUL:          0 USELESS:          0
cpu3_ITLB AVERAGE MISS LATENCY: 316.3 cycles
cpu3_ITLB TOTAL        ACCESS:     512740 HIT:     512740 MISS:          0
cpu3_ITLB LOAD         ACCESS:     512740 HIT:     512740 MISS:          0
cpu3_ITLB RFO          ACCESS:          0 HIT:          0 MISS:          0
cpu3_ITLB PREFETCH     ACCESS:          0 HIT:          0 MISS:          0
cpu3_ITLB WRITE        ACCESS:          0 HIT:          0 MISS:          0
cpu3_ITLB TRANSLATION  ACCESS:          0 HIT:          0 MISS:          0
cpu3_ITLB PREFETCH REQUESTED:          0 ISSUED:          0 USEFUL:          0 USELESS:          0
cpu3_ITLB AVERAGE MISS LATENCY: 316.3 cycles
cpu3_L1D TOTAL        ACCESS:          0 HIT:          0 MISS:          0
cpu3_L1D LOAD         ACCESS:          0 HIT:          0 MISS:          0
cpu3_L1D RFO          ACCESS:          0 HIT:          0 MISS:          0
cpu3_L1D PREFETCH     ACCESS:          0 HIT:          0 MISS:          0
cpu3_L1D WRITE        ACCESS:          0 HIT:          0 MISS:          0
cpu3_L1D TRANSLATION  ACCESS:          0 HIT:          0 MISS:          0
cpu3_L1D PREFETCH REQUESTED:          0 ISSUED:          0 USEFUL:          0 USELESS:          0
cpu3_L1D AVERAGE MISS LATENCY: 263.4 cycles
cpu3_L1D TOTAL        ACCESS:          0 HIT:          0 MISS:          0
cpu3_L1D LOAD         ACCESS:          0 HIT:          0 MISS:          0
cpu3_L1D RFO          ACCESS:          0 HIT:          0 MISS:          0
cpu3_L1D PREFETCH     ACCESS:          0 HIT:          0 MISS:          0
cpu3_L1D WRITE        ACCESS:          0 HIT:          0 MISS:          0
cpu3_L1D TRANSLATION  ACCESS:          0 HIT:          0 MISS:          0
cpu3_L1D PREFETCH REQUESTED:          0 ISSUED:          0 USEFUL:          0 USELESS:          0
cpu3_L1D AVERAGE MISS LATENCY: 263.4 cycles
cpu3_L1D TOTAL        ACCESS:          0 HIT:          0 MISS:          0
cpu3_L1D LOAD         ACCESS:          0 HIT:          0 MISS:          0
cpu3_L1D RFO          ACCESS:          0 HIT:          0 MISS:          0
cpu3_L1D PREFETCH     ACCESS:          0 HIT:          0 MISS:          0
cpu3_L1D WRITE        ACCESS:          0 HIT:          0 MISS:          0
cpu3_L1D TRANSLATION  ACCESS:          0 HIT:          0 MISS:          0
cpu3_L1D PREFETCH REQUESTED:          0 ISSUED:          0 USEFUL:          0 USELESS:          0
cpu3_L1D AVERAGE MISS LATENCY: 263.4 cycles
cpu3_L1D TOTAL        ACCESS:   22015721 HIT:   22000354 MISS:      15367
cpu3_L1D LOAD         ACCESS:   16453072 HIT:   16450420 MISS:       2652
cpu3_L1D RFO          ACCESS:          0 HIT:          0 MISS:          0
cpu3_L1D PREFETCH     ACCESS:          0 HIT:          0 MISS:          0
cpu3_L1D WRITE        ACCESS:    5562478 HIT:    5549916 MISS:      12562
cpu3_L1D TRANSLATION  ACCESS:        171 HIT:         18 MISS:        153
cpu3_L1D PREFETCH REQUESTED:          0 ISSUED:          0 USEFUL:          0 USELESS:          0
cpu3_L1D AVERAGE MISS LATENCY: 263.4 cycles
cpu3_L1I TOTAL        ACCESS:          0 HIT:          0 MISS:          0
cpu3_L1I LOAD         ACCESS:          0 HIT:          0 MISS:          0
cpu3_L1I RFO          ACCESS:          0 HIT:          0 MISS:          0
cpu3_L1I PREFETCH     ACCESS:          0 HIT:          0 MISS:          0
cpu3_L1I WRITE        ACCESS:          0 HIT:          0 MISS:          0
cpu3_L1I TRANSLATION  ACCESS:          0 HIT:          0 MISS:          0
cpu3_L1I PREFETCH REQUESTED:          0 ISSUED:          0 USEFUL:          0 USELESS:          0
cpu3_L1I AVERAGE MISS LATENCY: 43.69 cycles
cpu3_L1I TOTAL        ACCESS:          0 HIT:          0 MISS:          0
cpu3_L1I LOAD         ACCESS:          0 HIT:          0 MISS:          0
cpu3_L1I RFO          ACCESS:          0 HIT:          0 MISS:          0
cpu3_L1I PREFETCH     ACCESS:          0 HIT:          0 MISS:          0
cpu3_L1I WRITE        ACCESS:          0 HIT:          0 MISS:          0
cpu3_L1I TRANSLATION  ACCESS:          0 HIT:          0 MISS:          0
cpu3_L1I PREFETCH REQUESTED:          0 ISSUED:          0 USEFUL:          0 USELESS:          0
cpu3_L1I AVERAGE MISS LATENCY: 43.69 cycles
cpu3_L1I TOTAL        ACCESS:          0 HIT:          0 MISS:          0
cpu3_L1I LOAD         ACCESS:          0 HIT:          0 MISS:          0
cpu3_L1I RFO          ACCESS:          0 HIT:          0 MISS:          0
cpu3_L1I PREFETCH     ACCESS:          0 HIT:          0 MISS:          0
cpu3_L1I WRITE        ACCESS:          0 HIT:          0 MISS:          0
cpu3_L1I TRANSLATION  ACCESS:          0 HIT:          0 MISS:          0
cpu3_L1I PREFETCH REQUESTED:          0 ISSUED:          0 USEFUL:          0 USELESS:          0
cpu3_L1I AVERAGE MISS LATENCY: 43.69 cycles
cpu3_L1I TOTAL        ACCESS:     550981 HIT:     549554 MISS:       1427
cpu3_L1I LOAD         ACCESS:     550981 HIT:     549554 MISS:       1427
cpu3_L1I RFO          ACCESS:          0 HIT:          0 MISS:          0
cpu3_L1I PREFETCH     ACCESS:          0 HIT:          0 MISS:          0
cpu3_L1I WRITE        ACCESS:          0 HIT:          0 MISS:          0
cpu3_L1I TRANSLATION  ACCESS:          0 HIT:          0 MISS:          0
cpu3_L1I PREFETCH REQUESTED:          0 ISSUED:          0 USEFUL:          0 USELESS:          0
cpu3_L1I AVERAGE MISS LATENCY: 43.69 cycles
cpu3_L2C TOTAL        ACCESS:          0 HIT:          0 MISS:          0
cpu3_L2C LOAD         ACCESS:          0 HIT:          0 MISS:          0
cpu3_L2C RFO          ACCESS:          0 HIT:          0 MISS:          0
cpu3_L2C PREFETCH     ACCESS:          0 HIT:          0 MISS:          0
cpu3_L2C WRITE        ACCESS:          0 HIT:          0 MISS:          0
cpu3_L2C TRANSLATION  ACCESS:          0 HIT:          0 MISS:          0
cpu3_L2C PREFETCH REQUESTED:   75994639 ISSUED:   62829368 USEFUL:    7290394 USELESS:     807600
cpu3_L2C AVERAGE MISS LATENCY: 731 cycles
cpu3_L2C TOTAL        ACCESS:          0 HIT:          0 MISS:          0
cpu3_L2C LOAD         ACCESS:          0 HIT:          0 MISS:          0
cpu3_L2C RFO          ACCESS:          0 HIT:          0 MISS:          0
cpu3_L2C PREFETCH     ACCESS:          0 HIT:          0 MISS:          0
cpu3_L2C WRITE        ACCESS:          0 HIT:          0 MISS:          0
cpu3_L2C TRANSLATION  ACCESS:          0 HIT:          0 MISS:          0
cpu3_L2C PREFETCH REQUESTED:   75994639 ISSUED:   62829368 USEFUL:    7290394 USELESS:     807600
cpu3_L2C AVERAGE MISS LATENCY: 731 cycles
cpu3_L2C TOTAL        ACCESS:          0 HIT:          0 MISS:          0
cpu3_L2C LOAD         ACCESS:          0 HIT:          0 MISS:          0
cpu3_L2C RFO          ACCESS:          0 HIT:          0 MISS:          0
cpu3_L2C PREFETCH     ACCESS:          0 HIT:          0 MISS:          0
cpu3_L2C WRITE        ACCESS:          0 HIT:          0 MISS:          0
cpu3_L2C TRANSLATION  ACCESS:          0 HIT:          0 MISS:          0
cpu3_L2C PREFETCH REQUESTED:   75994639 ISSUED:   62829368 USEFUL:    7290394 USELESS:     807600
cpu3_L2C AVERAGE MISS LATENCY: 731 cycles
cpu3_L2C TOTAL        ACCESS:      11373 HIT:       5470 MISS:       5903
cpu3_L2C LOAD         ACCESS:       2779 HIT:       1846 MISS:        933
cpu3_L2C RFO          ACCESS:       2551 HIT:        103 MISS:       2448
cpu3_L2C PREFETCH     ACCESS:       2843 HIT:        422 MISS:       2421
cpu3_L2C WRITE        ACCESS:       3047 HIT:       3041 MISS:          6
cpu3_L2C TRANSLATION  ACCESS:        153 HIT:         58 MISS:         95
cpu3_L2C PREFETCH REQUESTED:   75994639 ISSUED:   62829368 USEFUL:    7290394 USELESS:     807600
cpu3_L2C AVERAGE MISS LATENCY: 731 cycles
cpu3_STLB TOTAL        ACCESS:          0 HIT:          0 MISS:          0
cpu3_STLB LOAD         ACCESS:          0 HIT:          0 MISS:          0
cpu3_STLB RFO          ACCESS:          0 HIT:          0 MISS:          0
cpu3_STLB PREFETCH     ACCESS:          0 HIT:          0 MISS:          0
cpu3_STLB WRITE        ACCESS:          0 HIT:          0 MISS:          0
cpu3_STLB TRANSLATION  ACCESS:          0 HIT:          0 MISS:          0
cpu3_STLB PREFETCH REQUESTED:          0 ISSUED:          0 USEFUL:          0 USELESS:          0
cpu3_STLB AVERAGE MISS LATENCY: 283.4 cycles
cpu3_STLB TOTAL        ACCESS:          0 HIT:          0 MISS:          0
cpu3_STLB LOAD         ACCESS:          0 HIT:          0 MISS:          0
cpu3_STLB RFO          ACCESS:          0 HIT:          0 MISS:          0
cpu3_STLB PREFETCH     ACCESS:          0 HIT:          0 MISS:          0
cpu3_STLB WRITE        ACCESS:          0 HIT:          0 MISS:          0
cpu3_STLB TRANSLATION  ACCESS:          0 HIT:          0 MISS:          0
cpu3_STLB PREFETCH REQUESTED:          0 ISSUED:          0 USEFUL:          0 USELESS:          0
cpu3_STLB AVERAGE MISS LATENCY: 283.4 cycles
cpu3_STLB TOTAL        ACCESS:          0 HIT:          0 MISS:          0
cpu3_STLB LOAD         ACCESS:          0 HIT:          0 MISS:          0
cpu3_STLB RFO          ACCESS:          0 HIT:          0 MISS:          0
cpu3_STLB PREFETCH     ACCESS:          0 HIT:          0 MISS:          0
cpu3_STLB WRITE        ACCESS:          0 HIT:          0 MISS:          0
cpu3_STLB TRANSLATION  ACCESS:          0 HIT:          0 MISS:          0
cpu3_STLB PREFETCH REQUESTED:          0 ISSUED:          0 USEFUL:          0 USELESS:          0
cpu3_STLB AVERAGE MISS LATENCY: 283.4 cycles
cpu3_STLB TOTAL        ACCESS:       9186 HIT:       9016 MISS:        170
cpu3_STLB LOAD         ACCESS:       9186 HIT:       9016 MISS:        170
cpu3_STLB RFO          ACCESS:          0 HIT:          0 MISS:          0
cpu3_STLB PREFETCH     ACCESS:          0 HIT:          0 MISS:          0
cpu3_STLB WRITE        ACCESS:          0 HIT:          0 MISS:          0
cpu3_STLB TRANSLATION  ACCESS:          0 HIT:          0 MISS:          0
cpu3_STLB PREFETCH REQUESTED:          0 ISSUED:          0 USEFUL:          0 USELESS:          0
cpu3_STLB AVERAGE MISS LATENCY: 283.4 cycles

DRAM Statistics

Channel 0 RQ ROW_BUFFER_HIT:    3235199
  ROW_BUFFER_MISS:   14669918
 AVG DBUS CONGESTED CYCLE: 3.987
WQ ROW_BUFFER_HIT: Channel 0 
  ROW_BUFFER_MISS:     161617
  FULL:    6232127
BERTI TO_L1: 49592949 TO_L2: 28725164 TO_L2_BC_MSHR: 1606814
BERTI AVG_LAT: 1679.84 NUM_TRACK_LATENCY: 19298181 NUM_CANT_TRACK_LATENCY: 2294304
BERTI CROSS_PAGE 13464955 NO_CROSS_PAGE: 64853158
BERTI FOUND_BERTI: 78820793 NO_FOUND_BERTI: 80115900
BERTI AVERAGE_ISSUED: 5.47885
BERTI TO_L1: 49592949 TO_L2: 28725164 TO_L2_BC_MSHR: 1606814
BERTI AVG_LAT: 1679.84 NUM_TRACK_LATENCY: 19298181 NUM_CANT_TRACK_LATENCY: 2294304
BERTI CROSS_PAGE 13464955 NO_CROSS_PAGE: 64853158
BERTI FOUND_BERTI: 78820793 NO_FOUND_BERTI: 80115900
BERTI AVERAGE_ISSUED: 5.47885
BERTI TO_L1: 49592949 TO_L2: 28725164 TO_L2_BC_MSHR: 1606814
BERTI AVG_LAT: 1679.84 NUM_TRACK_LATENCY: 19298181 NUM_CANT_TRACK_LATENCY: 2294304
BERTI CROSS_PAGE 13464955 NO_CROSS_PAGE: 64853158
BERTI FOUND_BERTI: 78820793 NO_FOUND_BERTI: 80115900
BERTI AVERAGE_ISSUED: 5.47885
BERTI TO_L1: 49592949 TO_L2: 28725164 TO_L2_BC_MSHR: 1606814
BERTI AVG_LAT: 1679.84 NUM_TRACK_LATENCY: 19298181 NUM_CANT_TRACK_LATENCY: 2294304
BERTI CROSS_PAGE 13464955 NO_CROSS_PAGE: 64853158
BERTI FOUND_BERTI: 78820793 NO_FOUND_BERTI: 80115900
BERTI AVERAGE_ISSUED: 5.47885
