WARNING: physical memory size is smaller than virtual memory size.
WARNING: option --warmup_instructions is deprecated. Use --warmup-instructions instead.
WARNING: option --simulation_instructions is deprecated. Use --simulation-instructions instead.

*** ChampSim Multicore Out-of-Order Simulator ***
Warmup Instructions: 50000000
Simulation Instructions: 150000000
Number of CPUs: 4
Page size: 4096

Berti Prefetcher
BERTI HASH ORIGINAL
BERTI IP MASK ffff
Berti Prefetcher
BERTI HASH ORIGINAL
BERTI IP MASK ffff
Berti Prefetcher
BERTI HASH ORIGINAL
BERTI IP MASK ffff
Berti Prefetcher
BERTI HASH ORIGINAL
BERTI IP MASK ffff
Off-chip DRAM Size: 4 GiB Channels: 1 Width: 64-bit Data Race: 3200 MT/s
Heartbeat CPU 3 instructions: 10000000 cycles: 2653333 heartbeat IPC: 3.769 cumulative IPC: 3.769 (Simulation time: 00 hr 03 min 12 sec)
Heartbeat CPU 2 instructions: 10000004 cycles: 3015656 heartbeat IPC: 3.316 cumulative IPC: 3.316 (Simulation time: 00 hr 03 min 36 sec)
Heartbeat CPU 1 instructions: 10000000 cycles: 3681283 heartbeat IPC: 2.716 cumulative IPC: 2.716 (Simulation time: 00 hr 04 min 24 sec)
Heartbeat CPU 0 instructions: 10000001 cycles: 4172627 heartbeat IPC: 2.397 cumulative IPC: 2.397 (Simulation time: 00 hr 05 min 00 sec)
Heartbeat CPU 3 instructions: 20000000 cycles: 5307101 heartbeat IPC: 3.768 cumulative IPC: 3.769 (Simulation time: 00 hr 06 min 34 sec)
Heartbeat CPU 2 instructions: 20000002 cycles: 6040206 heartbeat IPC: 3.306 cumulative IPC: 3.311 (Simulation time: 00 hr 07 min 28 sec)
Heartbeat CPU 1 instructions: 20000001 cycles: 7361492 heartbeat IPC: 2.717 cumulative IPC: 2.717 (Simulation time: 00 hr 09 min 06 sec)
Heartbeat CPU 3 instructions: 30000003 cycles: 7960154 heartbeat IPC: 3.769 cumulative IPC: 3.769 (Simulation time: 00 hr 09 min 49 sec)
Heartbeat CPU 0 instructions: 20000003 cycles: 8342724 heartbeat IPC: 2.398 cumulative IPC: 2.397 (Simulation time: 00 hr 10 min 17 sec)
Heartbeat CPU 2 instructions: 30000000 cycles: 9055501 heartbeat IPC: 3.316 cumulative IPC: 3.313 (Simulation time: 00 hr 11 min 10 sec)
Heartbeat CPU 3 instructions: 40000001 cycles: 10612833 heartbeat IPC: 3.77 cumulative IPC: 3.769 (Simulation time: 00 hr 13 min 04 sec)
Heartbeat CPU 1 instructions: 30000002 cycles: 11045604 heartbeat IPC: 2.714 cumulative IPC: 2.716 (Simulation time: 00 hr 13 min 37 sec)
Heartbeat CPU 2 instructions: 40000002 cycles: 12070113 heartbeat IPC: 3.317 cumulative IPC: 3.314 (Simulation time: 00 hr 14 min 53 sec)
Heartbeat CPU 0 instructions: 30000001 cycles: 12516273 heartbeat IPC: 2.396 cumulative IPC: 2.397 (Simulation time: 00 hr 15 min 26 sec)
Heartbeat CPU 3 instructions: 50000001 cycles: 13266968 heartbeat IPC: 3.768 cumulative IPC: 3.769 (Simulation time: 00 hr 16 min 21 sec)
Warmup finished CPU 3 instructions: 50000001 cycles: 13266969 cumulative IPC: 3.769 (Simulation time: 00 hr 16 min 21 sec)
Heartbeat CPU 1 instructions: 40000004 cycles: 14730164 heartbeat IPC: 2.714 cumulative IPC: 2.716 (Simulation time: 00 hr 18 min 11 sec)
Heartbeat CPU 2 instructions: 50000000 cycles: 15073494 heartbeat IPC: 3.33 cumulative IPC: 3.317 (Simulation time: 00 hr 18 min 34 sec)
Warmup finished CPU 2 instructions: 50000000 cycles: 15073495 cumulative IPC: 3.317 (Simulation time: 00 hr 18 min 34 sec)
Heartbeat CPU 3 instructions: 60000000 cycles: 15923591 heartbeat IPC: 3.764 cumulative IPC: 3.768 (Simulation time: 00 hr 19 min 30 sec)
Heartbeat CPU 0 instructions: 40000000 cycles: 16702529 heartbeat IPC: 2.389 cumulative IPC: 2.395 (Simulation time: 00 hr 20 min 19 sec)
Heartbeat CPU 2 instructions: 60000002 cycles: 18090575 heartbeat IPC: 3.314 cumulative IPC: 3.317 (Simulation time: 00 hr 21 min 48 sec)
Heartbeat CPU 1 instructions: 50000001 cycles: 18411143 heartbeat IPC: 2.717 cumulative IPC: 2.716 (Simulation time: 00 hr 22 min 08 sec)
Warmup finished CPU 1 instructions: 50000001 cycles: 18411144 cumulative IPC: 2.716 (Simulation time: 00 hr 22 min 08 sec)
Heartbeat CPU 3 instructions: 70000002 cycles: 18585259 heartbeat IPC: 3.757 cumulative IPC: 3.766 (Simulation time: 00 hr 22 min 19 sec)
Heartbeat CPU 0 instructions: 50000003 cycles: 20870076 heartbeat IPC: 2.399 cumulative IPC: 2.396 (Simulation time: 00 hr 25 min 00 sec)
Warmup finished CPU 0 instructions: 50000003 cycles: 20870077 cumulative IPC: 2.396 (Simulation time: 00 hr 25 min 00 sec)
Warmup complete CPU 0 instructions: 50000003 cycles: 20870077 cumulative IPC: 2.396 (Simulation time: 00 hr 25 min 00 sec)
Warmup complete CPU 1 instructions: 56435653 cycles: 20870077 cumulative IPC: 2.704 (Simulation time: 00 hr 25 min 00 sec)
Warmup complete CPU 2 instructions: 69211366 cycles: 20870077 cumulative IPC: 3.316 (Simulation time: 00 hr 25 min 00 sec)
Warmup complete CPU 3 instructions: 78809987 cycles: 20870077 cumulative IPC: 3.776 (Simulation time: 00 hr 25 min 00 sec)
Heartbeat CPU 3 instructions: 80000000 cycles: 22130789 heartbeat IPC: 2.82 cumulative IPC: 0.9439 (Simulation time: 00 hr 25 min 47 sec)
Heartbeat CPU 2 instructions: 70000000 cycles: 24074183 heartbeat IPC: 1.671 cumulative IPC: 0.2461 (Simulation time: 00 hr 27 min 01 sec)
Heartbeat CPU 1 instructions: 60000004 cycles: 25947009 heartbeat IPC: 1.327 cumulative IPC: 0.7021 (Simulation time: 00 hr 28 min 13 sec)
Heartbeat CPU 3 instructions: 90000000 cycles: 28222999 heartbeat IPC: 1.641 cumulative IPC: 1.522 (Simulation time: 00 hr 29 min 47 sec)
Heartbeat CPU 3 instructions: 100000002 cycles: 36024865 heartbeat IPC: 1.282 cumulative IPC: 1.398 (Simulation time: 00 hr 34 min 42 sec)
Heartbeat CPU 1 instructions: 70000004 cycles: 42876445 heartbeat IPC: 0.5907 cumulative IPC: 0.6164 (Simulation time: 00 hr 38 min 28 sec)
Heartbeat CPU 3 instructions: 110000001 cycles: 44678530 heartbeat IPC: 1.156 cumulative IPC: 1.31 (Simulation time: 00 hr 39 min 21 sec)
Heartbeat CPU 3 instructions: 120000003 cycles: 52963690 heartbeat IPC: 1.207 cumulative IPC: 1.283 (Simulation time: 00 hr 43 min 26 sec)
Heartbeat CPU 3 instructions: 130000002 cycles: 60568698 heartbeat IPC: 1.315 cumulative IPC: 1.289 (Simulation time: 00 hr 47 min 43 sec)
Heartbeat CPU 1 instructions: 80000000 cycles: 62194180 heartbeat IPC: 0.5177 cumulative IPC: 0.5702 (Simulation time: 00 hr 48 min 41 sec)
Heartbeat CPU 3 instructions: 140000003 cycles: 66912662 heartbeat IPC: 1.576 cumulative IPC: 1.329 (Simulation time: 00 hr 51 min 07 sec)
Heartbeat CPU 3 instructions: 150000001 cycles: 73561859 heartbeat IPC: 1.504 cumulative IPC: 1.351 (Simulation time: 00 hr 54 min 31 sec)
Heartbeat CPU 1 instructions: 90000000 cycles: 79160357 heartbeat IPC: 0.5894 cumulative IPC: 0.5758 (Simulation time: 00 hr 57 min 10 sec)
Heartbeat CPU 3 instructions: 160000000 cycles: 80803154 heartbeat IPC: 1.381 cumulative IPC: 1.355 (Simulation time: 00 hr 58 min 05 sec)
Heartbeat CPU 3 instructions: 170000000 cycles: 85911491 heartbeat IPC: 1.958 cumulative IPC: 1.402 (Simulation time: 01 hr 00 min 48 sec)
Heartbeat CPU 1 instructions: 100000000 cycles: 93780029 heartbeat IPC: 0.684 cumulative IPC: 0.5975 (Simulation time: 01 hr 04 min 48 sec)
Heartbeat CPU 3 instructions: 180000000 cycles: 95392851 heartbeat IPC: 1.055 cumulative IPC: 1.358 (Simulation time: 01 hr 05 min 38 sec)
Heartbeat CPU 0 instructions: 60000003 cycles: 99030225 heartbeat IPC: 0.1279 cumulative IPC: 0.1279 (Simulation time: 01 hr 07 min 33 sec)
Heartbeat CPU 2 instructions: 80000000 cycles: 99193584 heartbeat IPC: 0.1331 cumulative IPC: 0.1377 (Simulation time: 01 hr 07 min 39 sec)
Heartbeat CPU 3 instructions: 190000004 cycles: 103502375 heartbeat IPC: 1.233 cumulative IPC: 1.346 (Simulation time: 01 hr 09 min 55 sec)
Heartbeat CPU 1 instructions: 110000003 cycles: 107727781 heartbeat IPC: 0.717 cumulative IPC: 0.6167 (Simulation time: 01 hr 12 min 05 sec)
Heartbeat CPU 3 instructions: 200000002 cycles: 111542001 heartbeat IPC: 1.244 cumulative IPC: 1.337 (Simulation time: 01 hr 14 min 06 sec)
Heartbeat CPU 3 instructions: 210000000 cycles: 119502989 heartbeat IPC: 1.256 cumulative IPC: 1.33 (Simulation time: 01 hr 18 min 20 sec)
Heartbeat CPU 1 instructions: 120000004 cycles: 121002749 heartbeat IPC: 0.7533 cumulative IPC: 0.6348 (Simulation time: 01 hr 19 min 13 sec)
Heartbeat CPU 3 instructions: 220000004 cycles: 127329545 heartbeat IPC: 1.278 cumulative IPC: 1.326 (Simulation time: 01 hr 22 min 43 sec)
Simulation finished CPU 3 instructions: 150000004 cycles: 113442836 cumulative IPC: 1.322 (Simulation time: 01 hr 26 min 22 sec)
Heartbeat CPU 1 instructions: 130000004 cycles: 134802926 heartbeat IPC: 0.7246 cumulative IPC: 0.6457 (Simulation time: 01 hr 26 min 39 sec)
Heartbeat CPU 3 instructions: 230000000 cycles: 135169414 heartbeat IPC: 1.276 cumulative IPC: 1.323 (Simulation time: 01 hr 26 min 50 sec)
Heartbeat CPU 3 instructions: 240000002 cycles: 143054283 heartbeat IPC: 1.268 cumulative IPC: 1.319 (Simulation time: 01 hr 31 min 27 sec)
Heartbeat CPU 1 instructions: 140000000 cycles: 148780615 heartbeat IPC: 0.7154 cumulative IPC: 0.6533 (Simulation time: 01 hr 34 min 34 sec)
Heartbeat CPU 3 instructions: 250000000 cycles: 150633080 heartbeat IPC: 1.319 cumulative IPC: 1.319 (Simulation time: 01 hr 35 min 31 sec)
Heartbeat CPU 2 instructions: 90000004 cycles: 157522119 heartbeat IPC: 0.1714 cumulative IPC: 0.1521 (Simulation time: 01 hr 38 min 55 sec)
Heartbeat CPU 3 instructions: 260000002 cycles: 157742541 heartbeat IPC: 1.407 cumulative IPC: 1.324 (Simulation time: 01 hr 39 min 02 sec)
Heartbeat CPU 0 instructions: 70000002 cycles: 160831070 heartbeat IPC: 0.1618 cumulative IPC: 0.1429 (Simulation time: 01 hr 40 min 45 sec)
Heartbeat CPU 3 instructions: 270000001 cycles: 163341112 heartbeat IPC: 1.786 cumulative IPC: 1.342 (Simulation time: 01 hr 42 min 05 sec)
Heartbeat CPU 1 instructions: 150000002 cycles: 163619346 heartbeat IPC: 0.6739 cumulative IPC: 0.6554 (Simulation time: 01 hr 42 min 13 sec)
Heartbeat CPU 3 instructions: 280000003 cycles: 171391788 heartbeat IPC: 1.242 cumulative IPC: 1.337 (Simulation time: 01 hr 46 min 20 sec)
Heartbeat CPU 3 instructions: 290000000 cycles: 180222019 heartbeat IPC: 1.132 cumulative IPC: 1.325 (Simulation time: 01 hr 50 min 59 sec)
Heartbeat CPU 1 instructions: 160000004 cycles: 181823849 heartbeat IPC: 0.5493 cumulative IPC: 0.6434 (Simulation time: 01 hr 51 min 50 sec)
Heartbeat CPU 3 instructions: 300000000 cycles: 188207517 heartbeat IPC: 1.252 cumulative IPC: 1.322 (Simulation time: 01 hr 55 min 06 sec)
Heartbeat CPU 3 instructions: 310000002 cycles: 195675095 heartbeat IPC: 1.339 cumulative IPC: 1.323 (Simulation time: 01 hr 58 min 44 sec)
Heartbeat CPU 1 instructions: 170000000 cycles: 200234141 heartbeat IPC: 0.5432 cumulative IPC: 0.6331 (Simulation time: 02 hr 00 min 51 sec)
Heartbeat CPU 3 instructions: 320000003 cycles: 202415303 heartbeat IPC: 1.484 cumulative IPC: 1.329 (Simulation time: 02 hr 01 min 57 sec)
Heartbeat CPU 3 instructions: 330000002 cycles: 209307656 heartbeat IPC: 1.451 cumulative IPC: 1.333 (Simulation time: 02 hr 05 min 19 sec)
Heartbeat CPU 1 instructions: 180000001 cycles: 216706647 heartbeat IPC: 0.6071 cumulative IPC: 0.631 (Simulation time: 02 hr 09 min 13 sec)
Heartbeat CPU 3 instructions: 340000000 cycles: 217315381 heartbeat IPC: 1.249 cumulative IPC: 1.33 (Simulation time: 02 hr 09 min 34 sec)
Heartbeat CPU 2 instructions: 100000000 cycles: 217866021 heartbeat IPC: 0.1657 cumulative IPC: 0.1563 (Simulation time: 02 hr 09 min 52 sec)
Heartbeat CPU 3 instructions: 350000000 cycles: 222161745 heartbeat IPC: 2.063 cumulative IPC: 1.347 (Simulation time: 02 hr 12 min 21 sec)
Heartbeat CPU 3 instructions: 360000002 cycles: 231307669 heartbeat IPC: 1.093 cumulative IPC: 1.336 (Simulation time: 02 hr 17 min 04 sec)
Heartbeat CPU 1 instructions: 190000004 cycles: 231721781 heartbeat IPC: 0.666 cumulative IPC: 0.6335 (Simulation time: 02 hr 17 min 17 sec)
Heartbeat CPU 0 instructions: 80000002 cycles: 239013611 heartbeat IPC: 0.1279 cumulative IPC: 0.1375 (Simulation time: 02 hr 21 min 10 sec)
Heartbeat CPU 3 instructions: 370000002 cycles: 239288483 heartbeat IPC: 1.253 cumulative IPC: 1.333 (Simulation time: 02 hr 21 min 19 sec)
Heartbeat CPU 1 instructions: 200000002 cycles: 245780068 heartbeat IPC: 0.7113 cumulative IPC: 0.6383 (Simulation time: 02 hr 24 min 51 sec)
Heartbeat CPU 3 instructions: 380000003 cycles: 247016634 heartbeat IPC: 1.294 cumulative IPC: 1.332 (Simulation time: 02 hr 25 min 32 sec)
Simulation finished CPU 1 instructions: 150000001 cycles: 233926874 cumulative IPC: 0.6412 (Simulation time: 02 hr 29 min 33 sec)
Heartbeat CPU 3 instructions: 390000000 cycles: 255047989 heartbeat IPC: 1.245 cumulative IPC: 1.329 (Simulation time: 02 hr 29 min 41 sec)
Heartbeat CPU 1 instructions: 210000003 cycles: 259750959 heartbeat IPC: 0.7158 cumulative IPC: 0.6428 (Simulation time: 02 hr 32 min 07 sec)
Heartbeat CPU 3 instructions: 400000001 cycles: 262850547 heartbeat IPC: 1.282 cumulative IPC: 1.327 (Simulation time: 02 hr 33 min 44 sec)
Heartbeat CPU 2 instructions: 110000000 cycles: 263952796 heartbeat IPC: 0.217 cumulative IPC: 0.1678 (Simulation time: 02 hr 34 min 15 sec)
Heartbeat CPU 3 instructions: 410000003 cycles: 270627502 heartbeat IPC: 1.286 cumulative IPC: 1.326 (Simulation time: 02 hr 37 min 39 sec)
Heartbeat CPU 1 instructions: 220000001 cycles: 273635775 heartbeat IPC: 0.7202 cumulative IPC: 0.6471 (Simulation time: 02 hr 39 min 09 sec)
Heartbeat CPU 3 instructions: 420000004 cycles: 278476286 heartbeat IPC: 1.274 cumulative IPC: 1.324 (Simulation time: 02 hr 41 min 32 sec)
Heartbeat CPU 3 instructions: 430000003 cycles: 286123752 heartbeat IPC: 1.308 cumulative IPC: 1.324 (Simulation time: 02 hr 45 min 29 sec)
Heartbeat CPU 1 instructions: 230000002 cycles: 287321908 heartbeat IPC: 0.7307 cumulative IPC: 0.6514 (Simulation time: 02 hr 46 min 05 sec)
Heartbeat CPU 3 instructions: 440000002 cycles: 292331929 heartbeat IPC: 1.611 cumulative IPC: 1.331 (Simulation time: 02 hr 48 min 37 sec)
Heartbeat CPU 0 instructions: 90000001 cycles: 297706986 heartbeat IPC: 0.1704 cumulative IPC: 0.1445 (Simulation time: 02 hr 51 min 18 sec)
Heartbeat CPU 3 instructions: 450000001 cycles: 298599041 heartbeat IPC: 1.596 cumulative IPC: 1.337 (Simulation time: 02 hr 51 min 45 sec)
Heartbeat CPU 1 instructions: 240000003 cycles: 302209587 heartbeat IPC: 0.6717 cumulative IPC: 0.6525 (Simulation time: 02 hr 53 min 31 sec)
Heartbeat CPU 3 instructions: 460000002 cycles: 305638843 heartbeat IPC: 1.42 cumulative IPC: 1.339 (Simulation time: 02 hr 55 min 08 sec)
Heartbeat CPU 2 instructions: 120000003 cycles: 311721585 heartbeat IPC: 0.2093 cumulative IPC: 0.1746 (Simulation time: 02 hr 57 min 57 sec)
Heartbeat CPU 3 instructions: 470000000 cycles: 313888694 heartbeat IPC: 1.212 cumulative IPC: 1.335 (Simulation time: 02 hr 58 min 55 sec)
Heartbeat CPU 1 instructions: 250000003 cycles: 321641188 heartbeat IPC: 0.5146 cumulative IPC: 0.6436 (Simulation time: 03 hr 02 min 14 sec)
Heartbeat CPU 3 instructions: 480000001 cycles: 322942214 heartbeat IPC: 1.105 cumulative IPC: 1.328 (Simulation time: 03 hr 02 min 49 sec)
Heartbeat CPU 3 instructions: 490000000 cycles: 328649099 heartbeat IPC: 1.752 cumulative IPC: 1.336 (Simulation time: 03 hr 05 min 23 sec)
Heartbeat CPU 3 instructions: 500000003 cycles: 337356074 heartbeat IPC: 1.149 cumulative IPC: 1.331 (Simulation time: 03 hr 09 min 06 sec)
Heartbeat CPU 1 instructions: 260000004 cycles: 338777720 heartbeat IPC: 0.5835 cumulative IPC: 0.6403 (Simulation time: 03 hr 09 min 47 sec)
Heartbeat CPU 3 instructions: 510000000 cycles: 342737831 heartbeat IPC: 1.858 cumulative IPC: 1.34 (Simulation time: 03 hr 11 min 33 sec)
Heartbeat CPU 3 instructions: 520000001 cycles: 352086783 heartbeat IPC: 1.07 cumulative IPC: 1.332 (Simulation time: 03 hr 15 min 31 sec)
Heartbeat CPU 1 instructions: 270000002 cycles: 355462873 heartbeat IPC: 0.5993 cumulative IPC: 0.6383 (Simulation time: 03 hr 17 min 09 sec)
Heartbeat CPU 3 instructions: 530000003 cycles: 356723215 heartbeat IPC: 2.157 cumulative IPC: 1.343 (Simulation time: 03 hr 17 min 45 sec)
Heartbeat CPU 3 instructions: 540000004 cycles: 365060993 heartbeat IPC: 1.199 cumulative IPC: 1.34 (Simulation time: 03 hr 21 min 27 sec)
Heartbeat CPU 2 instructions: 130000000 cycles: 370850004 heartbeat IPC: 0.1691 cumulative IPC: 0.1737 (Simulation time: 03 hr 24 min 09 sec)
Heartbeat CPU 1 instructions: 280000000 cycles: 370979285 heartbeat IPC: 0.6445 cumulative IPC: 0.6386 (Simulation time: 03 hr 24 min 13 sec)
Heartbeat CPU 3 instructions: 550000004 cycles: 373034647 heartbeat IPC: 1.254 cumulative IPC: 1.338 (Simulation time: 03 hr 25 min 12 sec)
Heartbeat CPU 0 instructions: 100000000 cycles: 377910030 heartbeat IPC: 0.1247 cumulative IPC: 0.14 (Simulation time: 03 hr 27 min 33 sec)
Heartbeat CPU 3 instructions: 560000003 cycles: 380699689 heartbeat IPC: 1.305 cumulative IPC: 1.337 (Simulation time: 03 hr 28 min 50 sec)
Heartbeat CPU 1 instructions: 290000001 cycles: 384913743 heartbeat IPC: 0.7176 cumulative IPC: 0.6416 (Simulation time: 03 hr 30 min 50 sec)
Heartbeat CPU 3 instructions: 570000000 cycles: 388594282 heartbeat IPC: 1.267 cumulative IPC: 1.336 (Simulation time: 03 hr 32 min 34 sec)
Heartbeat CPU 3 instructions: 580000002 cycles: 396351046 heartbeat IPC: 1.289 cumulative IPC: 1.335 (Simulation time: 03 hr 36 min 19 sec)
Heartbeat CPU 1 instructions: 300000003 cycles: 398769079 heartbeat IPC: 0.7217 cumulative IPC: 0.6445 (Simulation time: 03 hr 37 min 27 sec)
Heartbeat CPU 3 instructions: 590000000 cycles: 404292531 heartbeat IPC: 1.259 cumulative IPC: 1.333 (Simulation time: 03 hr 40 min 03 sec)
Heartbeat CPU 3 instructions: 600000001 cycles: 411878335 heartbeat IPC: 1.318 cumulative IPC: 1.333 (Simulation time: 03 hr 43 min 41 sec)
Heartbeat CPU 1 instructions: 310000000 cycles: 412554512 heartbeat IPC: 0.7254 cumulative IPC: 0.6474 (Simulation time: 03 hr 44 min 00 sec)
Heartbeat CPU 2 instructions: 140000002 cycles: 416784925 heartbeat IPC: 0.2177 cumulative IPC: 0.1788 (Simulation time: 03 hr 45 min 59 sec)
Heartbeat CPU 3 instructions: 610000000 cycles: 419917050 heartbeat IPC: 1.244 cumulative IPC: 1.331 (Simulation time: 03 hr 47 min 25 sec)
Heartbeat CPU 3 instructions: 620000004 cycles: 425471238 heartbeat IPC: 1.8 cumulative IPC: 1.338 (Simulation time: 03 hr 50 min 20 sec)
Heartbeat CPU 1 instructions: 320000001 cycles: 427084365 heartbeat IPC: 0.6882 cumulative IPC: 0.6488 (Simulation time: 03 hr 51 min 09 sec)
Heartbeat CPU 3 instructions: 630000000 cycles: 433113345 heartbeat IPC: 1.309 cumulative IPC: 1.337 (Simulation time: 03 hr 54 min 14 sec)
Heartbeat CPU 3 instructions: 640000004 cycles: 439609121 heartbeat IPC: 1.539 cumulative IPC: 1.34 (Simulation time: 03 hr 57 min 19 sec)
Heartbeat CPU 0 instructions: 110000004 cycles: 439981617 heartbeat IPC: 0.1611 cumulative IPC: 0.1432 (Simulation time: 03 hr 57 min 29 sec)
Heartbeat CPU 1 instructions: 330000001 cycles: 442429286 heartbeat IPC: 0.6517 cumulative IPC: 0.6489 (Simulation time: 03 hr 58 min 38 sec)
Heartbeat CPU 3 instructions: 650000000 cycles: 447412784 heartbeat IPC: 1.281 cumulative IPC: 1.339 (Simulation time: 04 hr 00 min 55 sec)
Heartbeat CPU 3 instructions: 660000002 cycles: 457550677 heartbeat IPC: 0.9864 cumulative IPC: 1.331 (Simulation time: 04 hr 05 min 23 sec)
Heartbeat CPU 1 instructions: 340000000 cycles: 461347432 heartbeat IPC: 0.5286 cumulative IPC: 0.6438 (Simulation time: 04 hr 07 min 05 sec)
Heartbeat CPU 3 instructions: 670000003 cycles: 463245933 heartbeat IPC: 1.756 cumulative IPC: 1.336 (Simulation time: 04 hr 07 min 57 sec)
Heartbeat CPU 3 instructions: 680000003 cycles: 472431826 heartbeat IPC: 1.089 cumulative IPC: 1.331 (Simulation time: 04 hr 11 min 51 sec)
Heartbeat CPU 2 instructions: 150000000 cycles: 474322818 heartbeat IPC: 0.1738 cumulative IPC: 0.1782 (Simulation time: 04 hr 12 min 55 sec)
Heartbeat CPU 3 instructions: 690000000 cycles: 476200713 heartbeat IPC: 2.653 cumulative IPC: 1.342 (Simulation time: 04 hr 13 min 55 sec)
Heartbeat CPU 1 instructions: 350000002 cycles: 478789960 heartbeat IPC: 0.5733 cumulative IPC: 0.6411 (Simulation time: 04 hr 15 min 13 sec)
Heartbeat CPU 3 instructions: 700000000 cycles: 484111804 heartbeat IPC: 1.264 cumulative IPC: 1.341 (Simulation time: 04 hr 17 min 42 sec)
Heartbeat CPU 3 instructions: 710000002 cycles: 491930301 heartbeat IPC: 1.279 cumulative IPC: 1.34 (Simulation time: 04 hr 21 min 13 sec)
Heartbeat CPU 1 instructions: 360000000 cycles: 495178827 heartbeat IPC: 0.6102 cumulative IPC: 0.64 (Simulation time: 04 hr 22 min 55 sec)
Heartbeat CPU 3 instructions: 720000003 cycles: 497739625 heartbeat IPC: 1.721 cumulative IPC: 1.345 (Simulation time: 04 hr 24 min 10 sec)
Heartbeat CPU 3 instructions: 730000004 cycles: 507698807 heartbeat IPC: 1.004 cumulative IPC: 1.338 (Simulation time: 04 hr 28 min 55 sec)
Heartbeat CPU 1 instructions: 370000001 cycles: 510219949 heartbeat IPC: 0.6648 cumulative IPC: 0.6408 (Simulation time: 04 hr 30 min 14 sec)
Heartbeat CPU 3 instructions: 740000004 cycles: 515160880 heartbeat IPC: 1.34 cumulative IPC: 1.338 (Simulation time: 04 hr 32 min 46 sec)
Heartbeat CPU 0 instructions: 120000004 cycles: 517976572 heartbeat IPC: 0.1282 cumulative IPC: 0.1408 (Simulation time: 04 hr 34 min 12 sec)
Heartbeat CPU 3 instructions: 750000000 cycles: 522784561 heartbeat IPC: 1.312 cumulative IPC: 1.337 (Simulation time: 04 hr 36 min 36 sec)
Heartbeat CPU 2 instructions: 160000002 cycles: 523185542 heartbeat IPC: 0.2047 cumulative IPC: 0.1807 (Simulation time: 04 hr 36 min 49 sec)
Heartbeat CPU 1 instructions: 380000001 cycles: 524043937 heartbeat IPC: 0.7234 cumulative IPC: 0.643 (Simulation time: 04 hr 37 min 13 sec)
Heartbeat CPU 3 instructions: 760000001 cycles: 530334623 heartbeat IPC: 1.324 cumulative IPC: 1.337 (Simulation time: 04 hr 40 min 19 sec)
Heartbeat CPU 1 instructions: 390000001 cycles: 537823236 heartbeat IPC: 0.7257 cumulative IPC: 0.6453 (Simulation time: 04 hr 44 min 03 sec)
Heartbeat CPU 3 instructions: 770000002 cycles: 537940015 heartbeat IPC: 1.315 cumulative IPC: 1.337 (Simulation time: 04 hr 44 min 07 sec)
Heartbeat CPU 3 instructions: 780000003 cycles: 545736120 heartbeat IPC: 1.283 cumulative IPC: 1.336 (Simulation time: 04 hr 47 min 52 sec)
Heartbeat CPU 1 instructions: 400000003 cycles: 551600640 heartbeat IPC: 0.7258 cumulative IPC: 0.6473 (Simulation time: 04 hr 50 min 45 sec)
Heartbeat CPU 3 instructions: 790000003 cycles: 553364573 heartbeat IPC: 1.311 cumulative IPC: 1.336 (Simulation time: 04 hr 51 min 39 sec)
Heartbeat CPU 3 instructions: 800000001 cycles: 560020372 heartbeat IPC: 1.502 cumulative IPC: 1.338 (Simulation time: 04 hr 54 min 54 sec)
Heartbeat CPU 1 instructions: 410000002 cycles: 566270353 heartbeat IPC: 0.6817 cumulative IPC: 0.6483 (Simulation time: 04 hr 57 min 50 sec)
Heartbeat CPU 3 instructions: 810000000 cycles: 567511912 heartbeat IPC: 1.335 cumulative IPC: 1.338 (Simulation time: 04 hr 58 min 25 sec)
Heartbeat CPU 2 instructions: 170000000 cycles: 568904664 heartbeat IPC: 0.2187 cumulative IPC: 0.1839 (Simulation time: 04 hr 59 min 07 sec)
Heartbeat CPU 3 instructions: 820000001 cycles: 572849314 heartbeat IPC: 1.874 cumulative IPC: 1.343 (Simulation time: 05 hr 01 min 05 sec)
Heartbeat CPU 3 instructions: 830000001 cycles: 580206296 heartbeat IPC: 1.359 cumulative IPC: 1.343 (Simulation time: 05 hr 04 min 45 sec)
Heartbeat CPU 0 instructions: 130000002 cycles: 581423854 heartbeat IPC: 0.1576 cumulative IPC: 0.1427 (Simulation time: 05 hr 05 min 20 sec)
Heartbeat CPU 1 instructions: 420000000 cycles: 581594037 heartbeat IPC: 0.6526 cumulative IPC: 0.6484 (Simulation time: 05 hr 05 min 24 sec)
Heartbeat CPU 3 instructions: 840000003 cycles: 589083230 heartbeat IPC: 1.127 cumulative IPC: 1.34 (Simulation time: 05 hr 08 min 55 sec)
Heartbeat CPU 3 instructions: 850000001 cycles: 596310555 heartbeat IPC: 1.384 cumulative IPC: 1.34 (Simulation time: 05 hr 12 min 21 sec)
Heartbeat CPU 1 instructions: 430000003 cycles: 601054159 heartbeat IPC: 0.5139 cumulative IPC: 0.6439 (Simulation time: 05 hr 14 min 42 sec)
Heartbeat CPU 3 instructions: 860000002 cycles: 604088204 heartbeat IPC: 1.286 cumulative IPC: 1.339 (Simulation time: 05 hr 16 min 01 sec)
Heartbeat CPU 3 instructions: 870000000 cycles: 610789991 heartbeat IPC: 1.492 cumulative IPC: 1.341 (Simulation time: 05 hr 19 min 07 sec)
Heartbeat CPU 3 instructions: 880000004 cycles: 617867603 heartbeat IPC: 1.413 cumulative IPC: 1.342 (Simulation time: 05 hr 22 min 26 sec)
Heartbeat CPU 1 instructions: 440000000 cycles: 618604586 heartbeat IPC: 0.5698 cumulative IPC: 0.6417 (Simulation time: 05 hr 22 min 45 sec)
Heartbeat CPU 3 instructions: 890000000 cycles: 626206183 heartbeat IPC: 1.199 cumulative IPC: 1.34 (Simulation time: 05 hr 26 min 09 sec)
Heartbeat CPU 2 instructions: 180000004 cycles: 628824827 heartbeat IPC: 0.1669 cumulative IPC: 0.1822 (Simulation time: 05 hr 27 min 30 sec)
Heartbeat CPU 3 instructions: 900000001 cycles: 631270275 heartbeat IPC: 1.975 cumulative IPC: 1.345 (Simulation time: 05 hr 28 min 41 sec)
Heartbeat CPU 1 instructions: 450000002 cycles: 633986096 heartbeat IPC: 0.6501 cumulative IPC: 0.6419 (Simulation time: 05 hr 30 min 01 sec)
Heartbeat CPU 3 instructions: 910000000 cycles: 640215901 heartbeat IPC: 1.118 cumulative IPC: 1.342 (Simulation time: 05 hr 33 min 00 sec)
Heartbeat CPU 3 instructions: 920000004 cycles: 647782406 heartbeat IPC: 1.322 cumulative IPC: 1.342 (Simulation time: 05 hr 36 min 52 sec)
Heartbeat CPU 1 instructions: 460000001 cycles: 648590613 heartbeat IPC: 0.6847 cumulative IPC: 0.6429 (Simulation time: 05 hr 37 min 18 sec)
Heartbeat CPU 3 instructions: 930000002 cycles: 655318100 heartbeat IPC: 1.327 cumulative IPC: 1.342 (Simulation time: 05 hr 40 min 52 sec)
Heartbeat CPU 0 instructions: 140000001 cycles: 656568308 heartbeat IPC: 0.1331 cumulative IPC: 0.1416 (Simulation time: 05 hr 41 min 30 sec)
Heartbeat CPU 1 instructions: 470000001 cycles: 661979771 heartbeat IPC: 0.7469 cumulative IPC: 0.6451 (Simulation time: 05 hr 44 min 15 sec)
Heartbeat CPU 3 instructions: 940000002 cycles: 662660887 heartbeat IPC: 1.362 cumulative IPC: 1.342 (Simulation time: 05 hr 44 min 38 sec)
Heartbeat CPU 3 instructions: 950000004 cycles: 670182749 heartbeat IPC: 1.329 cumulative IPC: 1.342 (Simulation time: 05 hr 48 min 31 sec)
Heartbeat CPU 2 instructions: 190000003 cycles: 674339240 heartbeat IPC: 0.2197 cumulative IPC: 0.1848 (Simulation time: 05 hr 50 min 42 sec)
Heartbeat CPU 1 instructions: 480000000 cycles: 675822124 heartbeat IPC: 0.7224 cumulative IPC: 0.6467 (Simulation time: 05 hr 51 min 27 sec)
Heartbeat CPU 3 instructions: 960000003 cycles: 677668892 heartbeat IPC: 1.336 cumulative IPC: 1.342 (Simulation time: 05 hr 52 min 25 sec)
Heartbeat CPU 3 instructions: 970000001 cycles: 685459296 heartbeat IPC: 1.284 cumulative IPC: 1.341 (Simulation time: 05 hr 56 min 23 sec)
Heartbeat CPU 1 instructions: 490000001 cycles: 689817726 heartbeat IPC: 0.7145 cumulative IPC: 0.6481 (Simulation time: 05 hr 58 min 40 sec)
Heartbeat CPU 3 instructions: 980000000 cycles: 693050784 heartbeat IPC: 1.317 cumulative IPC: 1.341 (Simulation time: 06 hr 00 min 21 sec)
Heartbeat CPU 3 instructions: 990000001 cycles: 699088649 heartbeat IPC: 1.656 cumulative IPC: 1.344 (Simulation time: 06 hr 03 min 28 sec)
Heartbeat CPU 1 instructions: 500000001 cycles: 704182404 heartbeat IPC: 0.6962 cumulative IPC: 0.6491 (Simulation time: 06 hr 06 min 00 sec)
Heartbeat CPU 3 instructions: 1000000000 cycles: 705663785 heartbeat IPC: 1.521 cumulative IPC: 1.345 (Simulation time: 06 hr 06 min 47 sec)
Heartbeat CPU 3 instructions: 1010000002 cycles: 712656852 heartbeat IPC: 1.43 cumulative IPC: 1.346 (Simulation time: 06 hr 10 min 18 sec)
Heartbeat CPU 1 instructions: 510000004 cycles: 720829380 heartbeat IPC: 0.6007 cumulative IPC: 0.648 (Simulation time: 06 hr 14 min 19 sec)
Heartbeat CPU 3 instructions: 1020000003 cycles: 720848096 heartbeat IPC: 1.221 cumulative IPC: 1.345 (Simulation time: 06 hr 14 min 20 sec)
Heartbeat CPU 0 instructions: 150000003 cycles: 723505185 heartbeat IPC: 0.1494 cumulative IPC: 0.1423 (Simulation time: 06 hr 15 min 37 sec)
Heartbeat CPU 2 instructions: 200000000 cycles: 727710997 heartbeat IPC: 0.1874 cumulative IPC: 0.185 (Simulation time: 06 hr 17 min 28 sec)
Heartbeat CPU 3 instructions: 1030000001 cycles: 730076056 heartbeat IPC: 1.084 cumulative IPC: 1.341 (Simulation time: 06 hr 18 min 41 sec)
Heartbeat CPU 3 instructions: 1040000004 cycles: 735956327 heartbeat IPC: 1.701 cumulative IPC: 1.344 (Simulation time: 06 hr 21 min 32 sec)
Heartbeat CPU 1 instructions: 520000000 cycles: 740308709 heartbeat IPC: 0.5134 cumulative IPC: 0.6443 (Simulation time: 06 hr 23 min 36 sec)
Heartbeat CPU 3 instructions: 1050000002 cycles: 745026170 heartbeat IPC: 1.103 cumulative IPC: 1.341 (Simulation time: 06 hr 25 min 46 sec)
Heartbeat CPU 3 instructions: 1060000002 cycles: 750018485 heartbeat IPC: 2.003 cumulative IPC: 1.346 (Simulation time: 06 hr 28 min 12 sec)
Heartbeat CPU 1 instructions: 530000001 cycles: 757261742 heartbeat IPC: 0.5899 cumulative IPC: 0.6431 (Simulation time: 06 hr 31 min 35 sec)
Heartbeat CPU 3 instructions: 1070000001 cycles: 760280008 heartbeat IPC: 0.9745 cumulative IPC: 1.341 (Simulation time: 06 hr 32 min 49 sec)
Heartbeat CPU 3 instructions: 1080000001 cycles: 764944295 heartbeat IPC: 2.144 cumulative IPC: 1.346 (Simulation time: 06 hr 35 min 12 sec)
Heartbeat CPU 3 instructions: 1090000000 cycles: 772254138 heartbeat IPC: 1.368 cumulative IPC: 1.346 (Simulation time: 06 hr 38 min 43 sec)
Heartbeat CPU 1 instructions: 540000002 cycles: 773089732 heartbeat IPC: 0.6318 cumulative IPC: 0.6428 (Simulation time: 06 hr 39 min 05 sec)
Heartbeat CPU 3 instructions: 1100000002 cycles: 781255380 heartbeat IPC: 1.111 cumulative IPC: 1.343 (Simulation time: 06 hr 43 min 05 sec)
Heartbeat CPU 2 instructions: 210000000 cycles: 783040954 heartbeat IPC: 0.1807 cumulative IPC: 0.1847 (Simulation time: 06 hr 43 min 56 sec)
Heartbeat CPU 1 instructions: 550000000 cycles: 787379120 heartbeat IPC: 0.6998 cumulative IPC: 0.6439 (Simulation time: 06 hr 46 min 08 sec)
Heartbeat CPU 3 instructions: 1110000000 cycles: 788781279 heartbeat IPC: 1.329 cumulative IPC: 1.343 (Simulation time: 06 hr 46 min 50 sec)
Heartbeat CPU 3 instructions: 1120000003 cycles: 796322070 heartbeat IPC: 1.326 cumulative IPC: 1.343 (Simulation time: 06 hr 50 min 39 sec)
Heartbeat CPU 0 instructions: 160000002 cycles: 797322293 heartbeat IPC: 0.1355 cumulative IPC: 0.1417 (Simulation time: 06 hr 51 min 12 sec)
Heartbeat CPU 1 instructions: 560000004 cycles: 801328969 heartbeat IPC: 0.7169 cumulative IPC: 0.6452 (Simulation time: 06 hr 53 min 20 sec)
Heartbeat CPU 3 instructions: 1130000004 cycles: 804147374 heartbeat IPC: 1.278 cumulative IPC: 1.342 (Simulation time: 06 hr 54 min 45 sec)
Heartbeat CPU 3 instructions: 1140000000 cycles: 811751558 heartbeat IPC: 1.315 cumulative IPC: 1.342 (Simulation time: 06 hr 58 min 37 sec)
Heartbeat CPU 1 instructions: 570000001 cycles: 815287219 heartbeat IPC: 0.7164 cumulative IPC: 0.6465 (Simulation time: 07 hr 00 min 24 sec)
Heartbeat CPU 3 instructions: 1150000000 cycles: 819389506 heartbeat IPC: 1.309 cumulative IPC: 1.341 (Simulation time: 07 hr 02 min 56 sec)
Simulation finished CPU 2 instructions: 150000003 cycles: 801564892 cumulative IPC: 0.1871 (Simulation time: 07 hr 04 min 40 sec)
Heartbeat CPU 2 instructions: 220000004 cycles: 825358702 heartbeat IPC: 0.2363 cumulative IPC: 0.1874 (Simulation time: 07 hr 06 min 20 sec)
Heartbeat CPU 3 instructions: 1160000004 cycles: 827125071 heartbeat IPC: 1.293 cumulative IPC: 1.341 (Simulation time: 07 hr 07 min 19 sec)
Heartbeat CPU 1 instructions: 580000000 cycles: 828959620 heartbeat IPC: 0.7314 cumulative IPC: 0.6479 (Simulation time: 07 hr 08 min 22 sec)
Heartbeat CPU 3 instructions: 1170000002 cycles: 833121708 heartbeat IPC: 1.668 cumulative IPC: 1.343 (Simulation time: 07 hr 10 min 45 sec)
Heartbeat CPU 3 instructions: 1180000003 cycles: 840719399 heartbeat IPC: 1.316 cumulative IPC: 1.343 (Simulation time: 07 hr 14 min 41 sec)
Heartbeat CPU 1 instructions: 590000003 cycles: 843302827 heartbeat IPC: 0.6972 cumulative IPC: 0.6488 (Simulation time: 07 hr 16 min 02 sec)
Heartbeat CPU 3 instructions: 1190000000 cycles: 847239968 heartbeat IPC: 1.534 cumulative IPC: 1.345 (Simulation time: 07 hr 18 min 02 sec)
Heartbeat CPU 3 instructions: 1200000002 cycles: 855066070 heartbeat IPC: 1.278 cumulative IPC: 1.344 (Simulation time: 07 hr 21 min 42 sec)
Heartbeat CPU 1 instructions: 600000000 cycles: 861879906 heartbeat IPC: 0.5383 cumulative IPC: 0.6463 (Simulation time: 07 hr 24 min 50 sec)
Heartbeat CPU 3 instructions: 1210000000 cycles: 865091003 heartbeat IPC: 0.9975 cumulative IPC: 1.34 (Simulation time: 07 hr 26 min 16 sec)
Heartbeat CPU 0 instructions: 170000001 cycles: 865433919 heartbeat IPC: 0.1468 cumulative IPC: 0.1421 (Simulation time: 07 hr 26 min 26 sec)
Heartbeat CPU 3 instructions: 1220000001 cycles: 871290834 heartbeat IPC: 1.613 cumulative IPC: 1.342 (Simulation time: 07 hr 29 min 07 sec)
Heartbeat CPU 1 instructions: 610000003 cycles: 880314503 heartbeat IPC: 0.5425 cumulative IPC: 0.6441 (Simulation time: 07 hr 33 min 07 sec)
Heartbeat CPU 3 instructions: 1230000001 cycles: 880918681 heartbeat IPC: 1.039 cumulative IPC: 1.339 (Simulation time: 07 hr 33 min 23 sec)
Heartbeat CPU 2 instructions: 230000000 cycles: 883932058 heartbeat IPC: 0.1707 cumulative IPC: 0.1863 (Simulation time: 07 hr 34 min 52 sec)
Heartbeat CPU 3 instructions: 1240000002 cycles: 884502648 heartbeat IPC: 2.79 cumulative IPC: 1.345 (Simulation time: 07 hr 35 min 07 sec)
Heartbeat CPU 3 instructions: 1250000000 cycles: 892691342 heartbeat IPC: 1.221 cumulative IPC: 1.343 (Simulation time: 07 hr 38 min 54 sec)
Heartbeat CPU 1 instructions: 620000000 cycles: 897646249 heartbeat IPC: 0.577 cumulative IPC: 0.6428 (Simulation time: 07 hr 41 min 06 sec)
Heartbeat CPU 3 instructions: 1260000002 cycles: 900352812 heartbeat IPC: 1.305 cumulative IPC: 1.343 (Simulation time: 07 hr 42 min 28 sec)
Heartbeat CPU 3 instructions: 1270000002 cycles: 905690962 heartbeat IPC: 1.873 cumulative IPC: 1.346 (Simulation time: 07 hr 45 min 08 sec)
Heartbeat CPU 1 instructions: 630000003 cycles: 912708351 heartbeat IPC: 0.6639 cumulative IPC: 0.6431 (Simulation time: 07 hr 48 min 25 sec)
Heartbeat CPU 3 instructions: 1280000002 cycles: 915261471 heartbeat IPC: 1.045 cumulative IPC: 1.343 (Simulation time: 07 hr 49 min 42 sec)
Heartbeat CPU 3 instructions: 1290000003 cycles: 922876519 heartbeat IPC: 1.313 cumulative IPC: 1.343 (Simulation time: 07 hr 53 min 32 sec)
Heartbeat CPU 1 instructions: 640000004 cycles: 926681566 heartbeat IPC: 0.7157 cumulative IPC: 0.6442 (Simulation time: 07 hr 55 min 28 sec)
Heartbeat CPU 2 instructions: 240000002 cycles: 929361569 heartbeat IPC: 0.2201 cumulative IPC: 0.188 (Simulation time: 07 hr 56 min 51 sec)
Heartbeat CPU 3 instructions: 1300000003 cycles: 930431410 heartbeat IPC: 1.324 cumulative IPC: 1.343 (Simulation time: 07 hr 57 min 23 sec)
Heartbeat CPU 0 instructions: 180000001 cycles: 935408210 heartbeat IPC: 0.1429 cumulative IPC: 0.1421 (Simulation time: 07 hr 59 min 56 sec)
Heartbeat CPU 3 instructions: 1310000002 cycles: 937943333 heartbeat IPC: 1.331 cumulative IPC: 1.343 (Simulation time: 08 hr 01 min 11 sec)
Heartbeat CPU 1 instructions: 650000000 cycles: 940626439 heartbeat IPC: 0.7171 cumulative IPC: 0.6453 (Simulation time: 08 hr 02 min 32 sec)
Heartbeat CPU 3 instructions: 1320000000 cycles: 945386566 heartbeat IPC: 1.344 cumulative IPC: 1.343 (Simulation time: 08 hr 04 min 59 sec)
Heartbeat CPU 3 instructions: 1330000004 cycles: 952786345 heartbeat IPC: 1.351 cumulative IPC: 1.343 (Simulation time: 08 hr 08 min 45 sec)
Heartbeat CPU 1 instructions: 660000002 cycles: 954369565 heartbeat IPC: 0.7276 cumulative IPC: 0.6466 (Simulation time: 08 hr 09 min 31 sec)
Heartbeat CPU 3 instructions: 1340000002 cycles: 960506584 heartbeat IPC: 1.295 cumulative IPC: 1.342 (Simulation time: 08 hr 12 min 53 sec)
Heartbeat CPU 3 instructions: 1350000001 cycles: 967914782 heartbeat IPC: 1.35 cumulative IPC: 1.342 (Simulation time: 08 hr 17 min 27 sec)
Heartbeat CPU 1 instructions: 670000001 cycles: 968058563 heartbeat IPC: 0.7305 cumulative IPC: 0.6478 (Simulation time: 08 hr 17 min 31 sec)
Heartbeat CPU 2 instructions: 250000000 cycles: 970512186 heartbeat IPC: 0.243 cumulative IPC: 0.1904 (Simulation time: 08 hr 18 min 59 sec)
Heartbeat CPU 3 instructions: 1360000000 cycles: 974946603 heartbeat IPC: 1.422 cumulative IPC: 1.343 (Simulation time: 08 hr 21 min 08 sec)
Heartbeat CPU 3 instructions: 1370000001 cycles: 980876167 heartbeat IPC: 1.686 cumulative IPC: 1.345 (Simulation time: 08 hr 24 min 10 sec)
Heartbeat CPU 1 instructions: 680000002 cycles: 982433708 heartbeat IPC: 0.6956 cumulative IPC: 0.6485 (Simulation time: 08 hr 24 min 54 sec)
Heartbeat CPU 3 instructions: 1380000004 cycles: 988585350 heartbeat IPC: 1.297 cumulative IPC: 1.345 (Simulation time: 08 hr 27 min 54 sec)
Heartbeat CPU 3 instructions: 1390000004 cycles: 997429047 heartbeat IPC: 1.131 cumulative IPC: 1.343 (Simulation time: 08 hr 31 min 58 sec)
Heartbeat CPU 1 instructions: 690000003 cycles: 1001553695 heartbeat IPC: 0.523 cumulative IPC: 0.646 (Simulation time: 08 hr 33 min 44 sec)
Heartbeat CPU 0 instructions: 190000001 cycles: 1004286441 heartbeat IPC: 0.1452 cumulative IPC: 0.1424 (Simulation time: 08 hr 35 min 04 sec)
Heartbeat CPU 3 instructions: 1400000003 cycles: 1004909160 heartbeat IPC: 1.337 cumulative IPC: 1.343 (Simulation time: 08 hr 35 min 24 sec)
Heartbeat CPU 3 instructions: 1410000004 cycles: 1012654428 heartbeat IPC: 1.291 cumulative IPC: 1.342 (Simulation time: 08 hr 39 min 09 sec)
Heartbeat CPU 1 instructions: 700000000 cycles: 1018628761 heartbeat IPC: 0.5856 cumulative IPC: 0.645 (Simulation time: 08 hr 41 min 56 sec)
Heartbeat CPU 3 instructions: 1420000001 cycles: 1019231854 heartbeat IPC: 1.52 cumulative IPC: 1.343 (Simulation time: 08 hr 42 min 16 sec)
Heartbeat CPU 3 instructions: 1430000001 cycles: 1026194359 heartbeat IPC: 1.436 cumulative IPC: 1.344 (Simulation time: 08 hr 45 min 27 sec)
Heartbeat CPU 2 instructions: 260000003 cycles: 1026802275 heartbeat IPC: 0.1777 cumulative IPC: 0.1897 (Simulation time: 08 hr 45 min 44 sec)
Heartbeat CPU 3 instructions: 1440000003 cycles: 1034829348 heartbeat IPC: 1.158 cumulative IPC: 1.342 (Simulation time: 08 hr 49 min 23 sec)
Heartbeat CPU 1 instructions: 710000002 cycles: 1035585476 heartbeat IPC: 0.5897 cumulative IPC: 0.6441 (Simulation time: 08 hr 49 min 48 sec)
Heartbeat CPU 3 instructions: 1450000001 cycles: 1039824158 heartbeat IPC: 2.002 cumulative IPC: 1.346 (Simulation time: 08 hr 51 min 59 sec)
Heartbeat CPU 3 instructions: 1460000004 cycles: 1048735732 heartbeat IPC: 1.122 cumulative IPC: 1.344 (Simulation time: 08 hr 56 min 20 sec)
Heartbeat CPU 1 instructions: 720000000 cycles: 1050843555 heartbeat IPC: 0.6554 cumulative IPC: 0.6443 (Simulation time: 08 hr 57 min 20 sec)
Heartbeat CPU 3 instructions: 1470000004 cycles: 1056578420 heartbeat IPC: 1.275 cumulative IPC: 1.343 (Simulation time: 09 hr 00 min 11 sec)
Heartbeat CPU 3 instructions: 1480000004 cycles: 1064142400 heartbeat IPC: 1.322 cumulative IPC: 1.343 (Simulation time: 09 hr 04 min 05 sec)
Heartbeat CPU 1 instructions: 730000003 cycles: 1064601450 heartbeat IPC: 0.7269 cumulative IPC: 0.6453 (Simulation time: 09 hr 04 min 19 sec)
Heartbeat CPU 2 instructions: 270000000 cycles: 1071289101 heartbeat IPC: 0.2248 cumulative IPC: 0.1912 (Simulation time: 09 hr 07 min 38 sec)
Heartbeat CPU 3 instructions: 1490000000 cycles: 1071625550 heartbeat IPC: 1.336 cumulative IPC: 1.343 (Simulation time: 09 hr 07 min 48 sec)
Heartbeat CPU 0 instructions: 200000001 cycles: 1072470820 heartbeat IPC: 0.1467 cumulative IPC: 0.1426 (Simulation time: 09 hr 08 min 14 sec)
Simulation finished CPU 0 instructions: 150000003 cycles: 1051600745 cumulative IPC: 0.1426 (Simulation time: 09 hr 08 min 14 sec)
Simulation complete CPU 0 instructions: 150000003 cycles: 1051600745 cumulative IPC: 0.1426 (Simulation time: 09 hr 08 min 14 sec)
Simulation complete CPU 1 instructions: 679308110 cycles: 1051600745 cumulative IPC: 0.646 (Simulation time: 09 hr 08 min 14 sec)
Simulation complete CPU 2 instructions: 201293842 cycles: 1051600745 cumulative IPC: 0.1914 (Simulation time: 09 hr 08 min 14 sec)
Simulation complete CPU 3 instructions: 1412367658 cycles: 1051600745 cumulative IPC: 1.343 (Simulation time: 09 hr 08 min 14 sec)

ChampSim completed all CPUs

=== Simulation ===
CPU 0 runs /home/das/dpc3_traces/620.omnetpp_s-874B.champsimtrace.xzCPU 1 runs /home/das/dpc3_traces/607.cactuBSSN_s-2421B.champsimtrace.xzCPU 2 runs /home/das/dpc3_traces/605.mcf_s-665B.champsimtrace.xzCPU 3 runs /home/das/dpc3_traces/628.pop2_s-17B.champsimtrace.xz
Total Simulation Statistics (not including warmup)

CPU 0 cumulative IPC: 0.1426 instructions: 150000003 cycles: 1051600745
CPU 0 Branch Prediction Accuracy: 94.9% MPKI: 10.6 Average ROB Occupancy at Mispredict: 84.2
Branch type MPKI
BRANCH_DIRECT_JUMP: 0.923
BRANCH_INDIRECT: 0.128
BRANCH_CONDITIONAL: 8.42
BRANCH_DIRECT_CALL: 0.00016
BRANCH_INDIRECT_CALL: 0.734
BRANCH_RETURN: 0.399


CPU 1 cumulative IPC: 0.646 instructions: 679308110 cycles: 1051600745
CPU 1 Branch Prediction Accuracy: 99.85% MPKI: 0.001802 Average ROB Occupancy at Mispredict: 348.7
Branch type MPKI
BRANCH_DIRECT_JUMP: 1.47e-06
BRANCH_INDIRECT: 7.36e-06
BRANCH_CONDITIONAL: 0.00179
BRANCH_DIRECT_CALL: 0
BRANCH_INDIRECT_CALL: 0
BRANCH_RETURN: 0


CPU 2 cumulative IPC: 0.1914 instructions: 201293842 cycles: 1051600745
CPU 2 Branch Prediction Accuracy: 90.43% MPKI: 23.66 Average ROB Occupancy at Mispredict: 18.74
Branch type MPKI
BRANCH_DIRECT_JUMP: 0.254
BRANCH_INDIRECT: 0
BRANCH_CONDITIONAL: 23.4
BRANCH_DIRECT_CALL: 0
BRANCH_INDIRECT_CALL: 0.000507
BRANCH_RETURN: 0


CPU 3 cumulative IPC: 1.343 instructions: 1412367658 cycles: 1051600745
CPU 3 Branch Prediction Accuracy: 97.47% MPKI: 3.965 Average ROB Occupancy at Mispredict: 95.8
Branch type MPKI
BRANCH_DIRECT_JUMP: 0.0284
BRANCH_INDIRECT: 0.000661
BRANCH_CONDITIONAL: 3.88
BRANCH_DIRECT_CALL: 0.000164
BRANCH_INDIRECT_CALL: 0
BRANCH_RETURN: 0.0579

LLC TOTAL        ACCESS:    3543355 HIT:    1306239 MISS:    2237116
LLC LOAD         ACCESS:    1685500 HIT:     282462 MISS:    1403038
LLC RFO          ACCESS:     257851 HIT:      75830 MISS:     182021
LLC PREFETCH     ACCESS:      35747 HIT:      13367 MISS:      22380
LLC WRITE        ACCESS:     968199 HIT:     897940 MISS:      70259
LLC TRANSLATION  ACCESS:     596058 HIT:      36640 MISS:     559418
LLC PREFETCH REQUESTED:          0 ISSUED:          0 USEFUL:          0 USELESS:          0
LLC AVERAGE MISS LATENCY: 1546 cycles
LLC TOTAL        ACCESS:    7912198 HIT:    2642422 MISS:    5269776
LLC LOAD         ACCESS:    6998418 HIT:    1892592 MISS:    5105826
LLC RFO          ACCESS:      18907 HIT:      18907 MISS:          0
LLC PREFETCH     ACCESS:     113698 HIT:      12167 MISS:     101531
LLC WRITE        ACCESS:     678588 HIT:     678454 MISS:        134
LLC TRANSLATION  ACCESS:     102587 HIT:      40302 MISS:      62285
LLC PREFETCH REQUESTED:          0 ISSUED:          0 USEFUL:          0 USELESS:          0
LLC AVERAGE MISS LATENCY: 1546 cycles
LLC TOTAL        ACCESS:    7398870 HIT:    4519454 MISS:    2879416
LLC LOAD         ACCESS:    2740518 HIT:    1921322 MISS:     819196
LLC RFO          ACCESS:     346408 HIT:     338023 MISS:       8385
LLC PREFETCH     ACCESS:    3748957 HIT:    1735047 MISS:    2013910
LLC WRITE        ACCESS:     544532 HIT:     515690 MISS:      28842
LLC TRANSLATION  ACCESS:      18455 HIT:       9372 MISS:       9083
LLC PREFETCH REQUESTED:          0 ISSUED:          0 USEFUL:          0 USELESS:          0
LLC AVERAGE MISS LATENCY: 1546 cycles
LLC TOTAL        ACCESS:   23107518 HIT:   14507902 MISS:    8599616
LLC LOAD         ACCESS:    3104126 HIT:    2108344 MISS:     995782
LLC RFO          ACCESS:    2995774 HIT:    1147119 MISS:    1848655
LLC PREFETCH     ACCESS:   12697791 HIT:    7002542 MISS:    5695249
LLC WRITE        ACCESS:    4269291 HIT:    4235191 MISS:      34100
LLC TRANSLATION  ACCESS:      40536 HIT:      14706 MISS:      25830
LLC PREFETCH REQUESTED:          0 ISSUED:          0 USEFUL:          0 USELESS:          0
LLC AVERAGE MISS LATENCY: 1546 cycles
cpu0_DTLB TOTAL        ACCESS:   38348285 HIT:   35050219 MISS:    3298066
cpu0_DTLB LOAD         ACCESS:   38348285 HIT:   35050219 MISS:    3298066
cpu0_DTLB RFO          ACCESS:          0 HIT:          0 MISS:          0
cpu0_DTLB PREFETCH     ACCESS:          0 HIT:          0 MISS:          0
cpu0_DTLB WRITE        ACCESS:          0 HIT:          0 MISS:          0
cpu0_DTLB TRANSLATION  ACCESS:          0 HIT:          0 MISS:          0
cpu0_DTLB PREFETCH REQUESTED:          0 ISSUED:          0 USEFUL:          0 USELESS:          0
cpu0_DTLB AVERAGE MISS LATENCY: 230.3 cycles
cpu0_DTLB TOTAL        ACCESS:          0 HIT:          0 MISS:          0
cpu0_DTLB LOAD         ACCESS:          0 HIT:          0 MISS:          0
cpu0_DTLB RFO          ACCESS:          0 HIT:          0 MISS:          0
cpu0_DTLB PREFETCH     ACCESS:          0 HIT:          0 MISS:          0
cpu0_DTLB WRITE        ACCESS:          0 HIT:          0 MISS:          0
cpu0_DTLB TRANSLATION  ACCESS:          0 HIT:          0 MISS:          0
cpu0_DTLB PREFETCH REQUESTED:          0 ISSUED:          0 USEFUL:          0 USELESS:          0
cpu0_DTLB AVERAGE MISS LATENCY: 230.3 cycles
cpu0_DTLB TOTAL        ACCESS:          0 HIT:          0 MISS:          0
cpu0_DTLB LOAD         ACCESS:          0 HIT:          0 MISS:          0
cpu0_DTLB RFO          ACCESS:          0 HIT:          0 MISS:          0
cpu0_DTLB PREFETCH     ACCESS:          0 HIT:          0 MISS:          0
cpu0_DTLB WRITE        ACCESS:          0 HIT:          0 MISS:          0
cpu0_DTLB TRANSLATION  ACCESS:          0 HIT:          0 MISS:          0
cpu0_DTLB PREFETCH REQUESTED:          0 ISSUED:          0 USEFUL:          0 USELESS:          0
cpu0_DTLB AVERAGE MISS LATENCY: 230.3 cycles
cpu0_DTLB TOTAL        ACCESS:          0 HIT:          0 MISS:          0
cpu0_DTLB LOAD         ACCESS:          0 HIT:          0 MISS:          0
cpu0_DTLB RFO          ACCESS:          0 HIT:          0 MISS:          0
cpu0_DTLB PREFETCH     ACCESS:          0 HIT:          0 MISS:          0
cpu0_DTLB WRITE        ACCESS:          0 HIT:          0 MISS:          0
cpu0_DTLB TRANSLATION  ACCESS:          0 HIT:          0 MISS:          0
cpu0_DTLB PREFETCH REQUESTED:          0 ISSUED:          0 USEFUL:          0 USELESS:          0
cpu0_DTLB AVERAGE MISS LATENCY: 230.3 cycles
cpu0_ITLB TOTAL        ACCESS:   10798832 HIT:   10527011 MISS:     271821
cpu0_ITLB LOAD         ACCESS:   10798832 HIT:   10527011 MISS:     271821
cpu0_ITLB RFO          ACCESS:          0 HIT:          0 MISS:          0
cpu0_ITLB PREFETCH     ACCESS:          0 HIT:          0 MISS:          0
cpu0_ITLB WRITE        ACCESS:          0 HIT:          0 MISS:          0
cpu0_ITLB TRANSLATION  ACCESS:          0 HIT:          0 MISS:          0
cpu0_ITLB PREFETCH REQUESTED:          0 ISSUED:          0 USEFUL:          0 USELESS:          0
cpu0_ITLB AVERAGE MISS LATENCY: 16.08 cycles
cpu0_ITLB TOTAL        ACCESS:          0 HIT:          0 MISS:          0
cpu0_ITLB LOAD         ACCESS:          0 HIT:          0 MISS:          0
cpu0_ITLB RFO          ACCESS:          0 HIT:          0 MISS:          0
cpu0_ITLB PREFETCH     ACCESS:          0 HIT:          0 MISS:          0
cpu0_ITLB WRITE        ACCESS:          0 HIT:          0 MISS:          0
cpu0_ITLB TRANSLATION  ACCESS:          0 HIT:          0 MISS:          0
cpu0_ITLB PREFETCH REQUESTED:          0 ISSUED:          0 USEFUL:          0 USELESS:          0
cpu0_ITLB AVERAGE MISS LATENCY: 16.08 cycles
cpu0_ITLB TOTAL        ACCESS:          0 HIT:          0 MISS:          0
cpu0_ITLB LOAD         ACCESS:          0 HIT:          0 MISS:          0
cpu0_ITLB RFO          ACCESS:          0 HIT:          0 MISS:          0
cpu0_ITLB PREFETCH     ACCESS:          0 HIT:          0 MISS:          0
cpu0_ITLB WRITE        ACCESS:          0 HIT:          0 MISS:          0
cpu0_ITLB TRANSLATION  ACCESS:          0 HIT:          0 MISS:          0
cpu0_ITLB PREFETCH REQUESTED:          0 ISSUED:          0 USEFUL:          0 USELESS:          0
cpu0_ITLB AVERAGE MISS LATENCY: 16.08 cycles
cpu0_ITLB TOTAL        ACCESS:          0 HIT:          0 MISS:          0
cpu0_ITLB LOAD         ACCESS:          0 HIT:          0 MISS:          0
cpu0_ITLB RFO          ACCESS:          0 HIT:          0 MISS:          0
cpu0_ITLB PREFETCH     ACCESS:          0 HIT:          0 MISS:          0
cpu0_ITLB WRITE        ACCESS:          0 HIT:          0 MISS:          0
cpu0_ITLB TRANSLATION  ACCESS:          0 HIT:          0 MISS:          0
cpu0_ITLB PREFETCH REQUESTED:          0 ISSUED:          0 USEFUL:          0 USELESS:          0
cpu0_ITLB AVERAGE MISS LATENCY: 16.08 cycles
cpu0_L1D TOTAL        ACCESS:   49882805 HIT:   44927944 MISS:    4954861
cpu0_L1D LOAD         ACCESS:   23011978 HIT:   19925090 MISS:    3086888
cpu0_L1D RFO          ACCESS:          0 HIT:          0 MISS:          0
cpu0_L1D PREFETCH     ACCESS:          0 HIT:          0 MISS:          0
cpu0_L1D WRITE        ACCESS:   25979714 HIT:   24857682 MISS:    1122032
cpu0_L1D TRANSLATION  ACCESS:     891113 HIT:     145172 MISS:     745941
cpu0_L1D PREFETCH REQUESTED:          0 ISSUED:          0 USEFUL:          0 USELESS:          0
cpu0_L1D AVERAGE MISS LATENCY: 576.3 cycles
cpu0_L1D TOTAL        ACCESS:          0 HIT:          0 MISS:          0
cpu0_L1D LOAD         ACCESS:          0 HIT:          0 MISS:          0
cpu0_L1D RFO          ACCESS:          0 HIT:          0 MISS:          0
cpu0_L1D PREFETCH     ACCESS:          0 HIT:          0 MISS:          0
cpu0_L1D WRITE        ACCESS:          0 HIT:          0 MISS:          0
cpu0_L1D TRANSLATION  ACCESS:          0 HIT:          0 MISS:          0
cpu0_L1D PREFETCH REQUESTED:          0 ISSUED:          0 USEFUL:          0 USELESS:          0
cpu0_L1D AVERAGE MISS LATENCY: 576.3 cycles
cpu0_L1D TOTAL        ACCESS:          0 HIT:          0 MISS:          0
cpu0_L1D LOAD         ACCESS:          0 HIT:          0 MISS:          0
cpu0_L1D RFO          ACCESS:          0 HIT:          0 MISS:          0
cpu0_L1D PREFETCH     ACCESS:          0 HIT:          0 MISS:          0
cpu0_L1D WRITE        ACCESS:          0 HIT:          0 MISS:          0
cpu0_L1D TRANSLATION  ACCESS:          0 HIT:          0 MISS:          0
cpu0_L1D PREFETCH REQUESTED:          0 ISSUED:          0 USEFUL:          0 USELESS:          0
cpu0_L1D AVERAGE MISS LATENCY: 576.3 cycles
cpu0_L1D TOTAL        ACCESS:          0 HIT:          0 MISS:          0
cpu0_L1D LOAD         ACCESS:          0 HIT:          0 MISS:          0
cpu0_L1D RFO          ACCESS:          0 HIT:          0 MISS:          0
cpu0_L1D PREFETCH     ACCESS:          0 HIT:          0 MISS:          0
cpu0_L1D WRITE        ACCESS:          0 HIT:          0 MISS:          0
cpu0_L1D TRANSLATION  ACCESS:          0 HIT:          0 MISS:          0
cpu0_L1D PREFETCH REQUESTED:          0 ISSUED:          0 USEFUL:          0 USELESS:          0
cpu0_L1D AVERAGE MISS LATENCY: 576.3 cycles
cpu0_L1I TOTAL        ACCESS:   12879093 HIT:   12805036 MISS:      74057
cpu0_L1I LOAD         ACCESS:   12879093 HIT:   12805036 MISS:      74057
cpu0_L1I RFO          ACCESS:          0 HIT:          0 MISS:          0
cpu0_L1I PREFETCH     ACCESS:          0 HIT:          0 MISS:          0
cpu0_L1I WRITE        ACCESS:          0 HIT:          0 MISS:          0
cpu0_L1I TRANSLATION  ACCESS:          0 HIT:          0 MISS:          0
cpu0_L1I PREFETCH REQUESTED:          0 ISSUED:          0 USEFUL:          0 USELESS:          0
cpu0_L1I AVERAGE MISS LATENCY: 111.7 cycles
cpu0_L1I TOTAL        ACCESS:          0 HIT:          0 MISS:          0
cpu0_L1I LOAD         ACCESS:          0 HIT:          0 MISS:          0
cpu0_L1I RFO          ACCESS:          0 HIT:          0 MISS:          0
cpu0_L1I PREFETCH     ACCESS:          0 HIT:          0 MISS:          0
cpu0_L1I WRITE        ACCESS:          0 HIT:          0 MISS:          0
cpu0_L1I TRANSLATION  ACCESS:          0 HIT:          0 MISS:          0
cpu0_L1I PREFETCH REQUESTED:          0 ISSUED:          0 USEFUL:          0 USELESS:          0
cpu0_L1I AVERAGE MISS LATENCY: 111.7 cycles
cpu0_L1I TOTAL        ACCESS:          0 HIT:          0 MISS:          0
cpu0_L1I LOAD         ACCESS:          0 HIT:          0 MISS:          0
cpu0_L1I RFO          ACCESS:          0 HIT:          0 MISS:          0
cpu0_L1I PREFETCH     ACCESS:          0 HIT:          0 MISS:          0
cpu0_L1I WRITE        ACCESS:          0 HIT:          0 MISS:          0
cpu0_L1I TRANSLATION  ACCESS:          0 HIT:          0 MISS:          0
cpu0_L1I PREFETCH REQUESTED:          0 ISSUED:          0 USEFUL:          0 USELESS:          0
cpu0_L1I AVERAGE MISS LATENCY: 111.7 cycles
cpu0_L1I TOTAL        ACCESS:          0 HIT:          0 MISS:          0
cpu0_L1I LOAD         ACCESS:          0 HIT:          0 MISS:          0
cpu0_L1I RFO          ACCESS:          0 HIT:          0 MISS:          0
cpu0_L1I PREFETCH     ACCESS:          0 HIT:          0 MISS:          0
cpu0_L1I WRITE        ACCESS:          0 HIT:          0 MISS:          0
cpu0_L1I TRANSLATION  ACCESS:          0 HIT:          0 MISS:          0
cpu0_L1I PREFETCH REQUESTED:          0 ISSUED:          0 USEFUL:          0 USELESS:          0
cpu0_L1I AVERAGE MISS LATENCY: 111.7 cycles
cpu0_L2C TOTAL        ACCESS:    5094693 HIT:    2516203 MISS:    2578490
cpu0_L2C LOAD         ACCESS:    2539735 HIT:     854059 MISS:    1685676
cpu0_L2C RFO          ACCESS:     365203 HIT:     107352 MISS:     257851
cpu0_L2C PREFETCH     ACCESS:      46096 HIT:       9427 MISS:      36669
cpu0_L2C WRITE        ACCESS:    1398495 HIT:    1396259 MISS:       2236
cpu0_L2C TRANSLATION  ACCESS:     745164 HIT:     149106 MISS:     596058
cpu0_L2C PREFETCH REQUESTED:      46096 ISSUED:      46096 USEFUL:       4337 USELESS:       2642
cpu0_L2C AVERAGE MISS LATENCY: 1121 cycles
cpu0_L2C TOTAL        ACCESS:          0 HIT:          0 MISS:          0
cpu0_L2C LOAD         ACCESS:          0 HIT:          0 MISS:          0
cpu0_L2C RFO          ACCESS:          0 HIT:          0 MISS:          0
cpu0_L2C PREFETCH     ACCESS:          0 HIT:          0 MISS:          0
cpu0_L2C WRITE        ACCESS:          0 HIT:          0 MISS:          0
cpu0_L2C TRANSLATION  ACCESS:          0 HIT:          0 MISS:          0
cpu0_L2C PREFETCH REQUESTED:      46096 ISSUED:      46096 USEFUL:       4337 USELESS:       2642
cpu0_L2C AVERAGE MISS LATENCY: 1121 cycles
cpu0_L2C TOTAL        ACCESS:          0 HIT:          0 MISS:          0
cpu0_L2C LOAD         ACCESS:          0 HIT:          0 MISS:          0
cpu0_L2C RFO          ACCESS:          0 HIT:          0 MISS:          0
cpu0_L2C PREFETCH     ACCESS:          0 HIT:          0 MISS:          0
cpu0_L2C WRITE        ACCESS:          0 HIT:          0 MISS:          0
cpu0_L2C TRANSLATION  ACCESS:          0 HIT:          0 MISS:          0
cpu0_L2C PREFETCH REQUESTED:      46096 ISSUED:      46096 USEFUL:       4337 USELESS:       2642
cpu0_L2C AVERAGE MISS LATENCY: 1121 cycles
cpu0_L2C TOTAL        ACCESS:          0 HIT:          0 MISS:          0
cpu0_L2C LOAD         ACCESS:          0 HIT:          0 MISS:          0
cpu0_L2C RFO          ACCESS:          0 HIT:          0 MISS:          0
cpu0_L2C PREFETCH     ACCESS:          0 HIT:          0 MISS:          0
cpu0_L2C WRITE        ACCESS:          0 HIT:          0 MISS:          0
cpu0_L2C TRANSLATION  ACCESS:          0 HIT:          0 MISS:          0
cpu0_L2C PREFETCH REQUESTED:      46096 ISSUED:      46096 USEFUL:       4337 USELESS:       2642
cpu0_L2C AVERAGE MISS LATENCY: 1121 cycles
cpu0_STLB TOTAL        ACCESS:    3014722 HIT:    2372302 MISS:     642420
cpu0_STLB LOAD         ACCESS:    3014722 HIT:    2372302 MISS:     642420
cpu0_STLB RFO          ACCESS:          0 HIT:          0 MISS:          0
cpu0_STLB PREFETCH     ACCESS:          0 HIT:          0 MISS:          0
cpu0_STLB WRITE        ACCESS:          0 HIT:          0 MISS:          0
cpu0_STLB TRANSLATION  ACCESS:          0 HIT:          0 MISS:          0
cpu0_STLB PREFETCH REQUESTED:          0 ISSUED:          0 USEFUL:          0 USELESS:          0
cpu0_STLB AVERAGE MISS LATENCY: 1178 cycles
cpu0_STLB TOTAL        ACCESS:          0 HIT:          0 MISS:          0
cpu0_STLB LOAD         ACCESS:          0 HIT:          0 MISS:          0
cpu0_STLB RFO          ACCESS:          0 HIT:          0 MISS:          0
cpu0_STLB PREFETCH     ACCESS:          0 HIT:          0 MISS:          0
cpu0_STLB WRITE        ACCESS:          0 HIT:          0 MISS:          0
cpu0_STLB TRANSLATION  ACCESS:          0 HIT:          0 MISS:          0
cpu0_STLB PREFETCH REQUESTED:          0 ISSUED:          0 USEFUL:          0 USELESS:          0
cpu0_STLB AVERAGE MISS LATENCY: 1178 cycles
cpu0_STLB TOTAL        ACCESS:          0 HIT:          0 MISS:          0
cpu0_STLB LOAD         ACCESS:          0 HIT:          0 MISS:          0
cpu0_STLB RFO          ACCESS:          0 HIT:          0 MISS:          0
cpu0_STLB PREFETCH     ACCESS:          0 HIT:          0 MISS:          0
cpu0_STLB WRITE        ACCESS:          0 HIT:          0 MISS:          0
cpu0_STLB TRANSLATION  ACCESS:          0 HIT:          0 MISS:          0
cpu0_STLB PREFETCH REQUESTED:          0 ISSUED:          0 USEFUL:          0 USELESS:          0
cpu0_STLB AVERAGE MISS LATENCY: 1178 cycles
cpu0_STLB TOTAL        ACCESS:          0 HIT:          0 MISS:          0
cpu0_STLB LOAD         ACCESS:          0 HIT:          0 MISS:          0
cpu0_STLB RFO          ACCESS:          0 HIT:          0 MISS:          0
cpu0_STLB PREFETCH     ACCESS:          0 HIT:          0 MISS:          0
cpu0_STLB WRITE        ACCESS:          0 HIT:          0 MISS:          0
cpu0_STLB TRANSLATION  ACCESS:          0 HIT:          0 MISS:          0
cpu0_STLB PREFETCH REQUESTED:          0 ISSUED:          0 USEFUL:          0 USELESS:          0
cpu0_STLB AVERAGE MISS LATENCY: 1178 cycles
cpu1_DTLB TOTAL        ACCESS:          0 HIT:          0 MISS:          0
cpu1_DTLB LOAD         ACCESS:          0 HIT:          0 MISS:          0
cpu1_DTLB RFO          ACCESS:          0 HIT:          0 MISS:          0
cpu1_DTLB PREFETCH     ACCESS:          0 HIT:          0 MISS:          0
cpu1_DTLB WRITE        ACCESS:          0 HIT:          0 MISS:          0
cpu1_DTLB TRANSLATION  ACCESS:          0 HIT:          0 MISS:          0
cpu1_DTLB PREFETCH REQUESTED:          0 ISSUED:          0 USEFUL:          0 USELESS:          0
cpu1_DTLB AVERAGE MISS LATENCY: 8.282 cycles
cpu1_DTLB TOTAL        ACCESS:  143886582 HIT:   84774227 MISS:   59112355
cpu1_DTLB LOAD         ACCESS:  143886582 HIT:   84774227 MISS:   59112355
cpu1_DTLB RFO          ACCESS:          0 HIT:          0 MISS:          0
cpu1_DTLB PREFETCH     ACCESS:          0 HIT:          0 MISS:          0
cpu1_DTLB WRITE        ACCESS:          0 HIT:          0 MISS:          0
cpu1_DTLB TRANSLATION  ACCESS:          0 HIT:          0 MISS:          0
cpu1_DTLB PREFETCH REQUESTED:          0 ISSUED:          0 USEFUL:          0 USELESS:          0
cpu1_DTLB AVERAGE MISS LATENCY: 8.282 cycles
cpu1_DTLB TOTAL        ACCESS:          0 HIT:          0 MISS:          0
cpu1_DTLB LOAD         ACCESS:          0 HIT:          0 MISS:          0
cpu1_DTLB RFO          ACCESS:          0 HIT:          0 MISS:          0
cpu1_DTLB PREFETCH     ACCESS:          0 HIT:          0 MISS:          0
cpu1_DTLB WRITE        ACCESS:          0 HIT:          0 MISS:          0
cpu1_DTLB TRANSLATION  ACCESS:          0 HIT:          0 MISS:          0
cpu1_DTLB PREFETCH REQUESTED:          0 ISSUED:          0 USEFUL:          0 USELESS:          0
cpu1_DTLB AVERAGE MISS LATENCY: 8.282 cycles
cpu1_DTLB TOTAL        ACCESS:          0 HIT:          0 MISS:          0
cpu1_DTLB LOAD         ACCESS:          0 HIT:          0 MISS:          0
cpu1_DTLB RFO          ACCESS:          0 HIT:          0 MISS:          0
cpu1_DTLB PREFETCH     ACCESS:          0 HIT:          0 MISS:          0
cpu1_DTLB WRITE        ACCESS:          0 HIT:          0 MISS:          0
cpu1_DTLB TRANSLATION  ACCESS:          0 HIT:          0 MISS:          0
cpu1_DTLB PREFETCH REQUESTED:          0 ISSUED:          0 USEFUL:          0 USELESS:          0
cpu1_DTLB AVERAGE MISS LATENCY: 8.282 cycles
cpu1_ITLB TOTAL        ACCESS:          0 HIT:          0 MISS:          0
cpu1_ITLB LOAD         ACCESS:          0 HIT:          0 MISS:          0
cpu1_ITLB RFO          ACCESS:          0 HIT:          0 MISS:          0
cpu1_ITLB PREFETCH     ACCESS:          0 HIT:          0 MISS:          0
cpu1_ITLB WRITE        ACCESS:          0 HIT:          0 MISS:          0
cpu1_ITLB TRANSLATION  ACCESS:          0 HIT:          0 MISS:          0
cpu1_ITLB PREFETCH REQUESTED:          0 ISSUED:          0 USEFUL:          0 USELESS:          0
cpu1_ITLB AVERAGE MISS LATENCY: -nan cycles
cpu1_ITLB TOTAL        ACCESS:   88310806 HIT:   88310806 MISS:          0
cpu1_ITLB LOAD         ACCESS:   88310806 HIT:   88310806 MISS:          0
cpu1_ITLB RFO          ACCESS:          0 HIT:          0 MISS:          0
cpu1_ITLB PREFETCH     ACCESS:          0 HIT:          0 MISS:          0
cpu1_ITLB WRITE        ACCESS:          0 HIT:          0 MISS:          0
cpu1_ITLB TRANSLATION  ACCESS:          0 HIT:          0 MISS:          0
cpu1_ITLB PREFETCH REQUESTED:          0 ISSUED:          0 USEFUL:          0 USELESS:          0
cpu1_ITLB AVERAGE MISS LATENCY: -nan cycles
cpu1_ITLB TOTAL        ACCESS:          0 HIT:          0 MISS:          0
cpu1_ITLB LOAD         ACCESS:          0 HIT:          0 MISS:          0
cpu1_ITLB RFO          ACCESS:          0 HIT:          0 MISS:          0
cpu1_ITLB PREFETCH     ACCESS:          0 HIT:          0 MISS:          0
cpu1_ITLB WRITE        ACCESS:          0 HIT:          0 MISS:          0
cpu1_ITLB TRANSLATION  ACCESS:          0 HIT:          0 MISS:          0
cpu1_ITLB PREFETCH REQUESTED:          0 ISSUED:          0 USEFUL:          0 USELESS:          0
cpu1_ITLB AVERAGE MISS LATENCY: -nan cycles
cpu1_ITLB TOTAL        ACCESS:          0 HIT:          0 MISS:          0
cpu1_ITLB LOAD         ACCESS:          0 HIT:          0 MISS:          0
cpu1_ITLB RFO          ACCESS:          0 HIT:          0 MISS:          0
cpu1_ITLB PREFETCH     ACCESS:          0 HIT:          0 MISS:          0
cpu1_ITLB WRITE        ACCESS:          0 HIT:          0 MISS:          0
cpu1_ITLB TRANSLATION  ACCESS:          0 HIT:          0 MISS:          0
cpu1_ITLB PREFETCH REQUESTED:          0 ISSUED:          0 USEFUL:          0 USELESS:          0
cpu1_ITLB AVERAGE MISS LATENCY: -nan cycles
cpu1_L1D TOTAL        ACCESS:          0 HIT:          0 MISS:          0
cpu1_L1D LOAD         ACCESS:          0 HIT:          0 MISS:          0
cpu1_L1D RFO          ACCESS:          0 HIT:          0 MISS:          0
cpu1_L1D PREFETCH     ACCESS:          0 HIT:          0 MISS:          0
cpu1_L1D WRITE        ACCESS:          0 HIT:          0 MISS:          0
cpu1_L1D TRANSLATION  ACCESS:          0 HIT:          0 MISS:          0
cpu1_L1D PREFETCH REQUESTED:          0 ISSUED:          0 USEFUL:          0 USELESS:          0
cpu1_L1D AVERAGE MISS LATENCY: 165.4 cycles
cpu1_L1D TOTAL        ACCESS:  177317162 HIT:   98322122 MISS:   78995040
cpu1_L1D LOAD         ACCESS:   99576420 HIT:   24774384 MISS:   74802036
cpu1_L1D RFO          ACCESS:          0 HIT:          0 MISS:          0
cpu1_L1D PREFETCH     ACCESS:          0 HIT:          0 MISS:          0
cpu1_L1D WRITE        ACCESS:   77612047 HIT:   73546606 MISS:    4065441
cpu1_L1D TRANSLATION  ACCESS:     128695 HIT:       1132 MISS:     127563
cpu1_L1D PREFETCH REQUESTED:          0 ISSUED:          0 USEFUL:          0 USELESS:          0
cpu1_L1D AVERAGE MISS LATENCY: 165.4 cycles
cpu1_L1D TOTAL        ACCESS:          0 HIT:          0 MISS:          0
cpu1_L1D LOAD         ACCESS:          0 HIT:          0 MISS:          0
cpu1_L1D RFO          ACCESS:          0 HIT:          0 MISS:          0
cpu1_L1D PREFETCH     ACCESS:          0 HIT:          0 MISS:          0
cpu1_L1D WRITE        ACCESS:          0 HIT:          0 MISS:          0
cpu1_L1D TRANSLATION  ACCESS:          0 HIT:          0 MISS:          0
cpu1_L1D PREFETCH REQUESTED:          0 ISSUED:          0 USEFUL:          0 USELESS:          0
cpu1_L1D AVERAGE MISS LATENCY: 165.4 cycles
cpu1_L1D TOTAL        ACCESS:          0 HIT:          0 MISS:          0
cpu1_L1D LOAD         ACCESS:          0 HIT:          0 MISS:          0
cpu1_L1D RFO          ACCESS:          0 HIT:          0 MISS:          0
cpu1_L1D PREFETCH     ACCESS:          0 HIT:          0 MISS:          0
cpu1_L1D WRITE        ACCESS:          0 HIT:          0 MISS:          0
cpu1_L1D TRANSLATION  ACCESS:          0 HIT:          0 MISS:          0
cpu1_L1D PREFETCH REQUESTED:          0 ISSUED:          0 USEFUL:          0 USELESS:          0
cpu1_L1D AVERAGE MISS LATENCY: 165.4 cycles
cpu1_L1I TOTAL        ACCESS:          0 HIT:          0 MISS:          0
cpu1_L1I LOAD         ACCESS:          0 HIT:          0 MISS:          0
cpu1_L1I RFO          ACCESS:          0 HIT:          0 MISS:          0
cpu1_L1I PREFETCH     ACCESS:          0 HIT:          0 MISS:          0
cpu1_L1I WRITE        ACCESS:          0 HIT:          0 MISS:          0
cpu1_L1I TRANSLATION  ACCESS:          0 HIT:          0 MISS:          0
cpu1_L1I PREFETCH REQUESTED:          0 ISSUED:          0 USEFUL:          0 USELESS:          0
cpu1_L1I AVERAGE MISS LATENCY: -nan cycles
cpu1_L1I TOTAL        ACCESS:  115975629 HIT:  115975629 MISS:          0
cpu1_L1I LOAD         ACCESS:  115975629 HIT:  115975629 MISS:          0
cpu1_L1I RFO          ACCESS:          0 HIT:          0 MISS:          0
cpu1_L1I PREFETCH     ACCESS:          0 HIT:          0 MISS:          0
cpu1_L1I WRITE        ACCESS:          0 HIT:          0 MISS:          0
cpu1_L1I TRANSLATION  ACCESS:          0 HIT:          0 MISS:          0
cpu1_L1I PREFETCH REQUESTED:          0 ISSUED:          0 USEFUL:          0 USELESS:          0
cpu1_L1I AVERAGE MISS LATENCY: -nan cycles
cpu1_L1I TOTAL        ACCESS:          0 HIT:          0 MISS:          0
cpu1_L1I LOAD         ACCESS:          0 HIT:          0 MISS:          0
cpu1_L1I RFO          ACCESS:          0 HIT:          0 MISS:          0
cpu1_L1I PREFETCH     ACCESS:          0 HIT:          0 MISS:          0
cpu1_L1I WRITE        ACCESS:          0 HIT:          0 MISS:          0
cpu1_L1I TRANSLATION  ACCESS:          0 HIT:          0 MISS:          0
cpu1_L1I PREFETCH REQUESTED:          0 ISSUED:          0 USEFUL:          0 USELESS:          0
cpu1_L1I AVERAGE MISS LATENCY: -nan cycles
cpu1_L1I TOTAL        ACCESS:          0 HIT:          0 MISS:          0
cpu1_L1I LOAD         ACCESS:          0 HIT:          0 MISS:          0
cpu1_L1I RFO          ACCESS:          0 HIT:          0 MISS:          0
cpu1_L1I PREFETCH     ACCESS:          0 HIT:          0 MISS:          0
cpu1_L1I WRITE        ACCESS:          0 HIT:          0 MISS:          0
cpu1_L1I TRANSLATION  ACCESS:          0 HIT:          0 MISS:          0
cpu1_L1I PREFETCH REQUESTED:          0 ISSUED:          0 USEFUL:          0 USELESS:          0
cpu1_L1I AVERAGE MISS LATENCY: -nan cycles
cpu1_L2C TOTAL        ACCESS:          0 HIT:          0 MISS:          0
cpu1_L2C LOAD         ACCESS:          0 HIT:          0 MISS:          0
cpu1_L2C RFO          ACCESS:          0 HIT:          0 MISS:          0
cpu1_L2C PREFETCH     ACCESS:          0 HIT:          0 MISS:          0
cpu1_L2C WRITE        ACCESS:          0 HIT:          0 MISS:          0
cpu1_L2C TRANSLATION  ACCESS:          0 HIT:          0 MISS:          0
cpu1_L2C PREFETCH REQUESTED:     936903 ISSUED:     936903 USEFUL:     103563 USELESS:      10131
cpu1_L2C AVERAGE MISS LATENCY: 1720 cycles
cpu1_L2C TOTAL        ACCESS:   83955842 HIT:   76721233 MISS:    7234609
cpu1_L2C LOAD         ACCESS:   74009485 HIT:   67010876 MISS:    6998609
cpu1_L2C RFO          ACCESS:    2986605 HIT:    2967535 MISS:      19070
cpu1_L2C PREFETCH     ACCESS:     936903 HIT:     822561 MISS:     114342
cpu1_L2C WRITE        ACCESS:    5895374 HIT:    5895373 MISS:          1
cpu1_L2C TRANSLATION  ACCESS:     127475 HIT:      24888 MISS:     102587
cpu1_L2C PREFETCH REQUESTED:     936903 ISSUED:     936903 USEFUL:     103563 USELESS:      10131
cpu1_L2C AVERAGE MISS LATENCY: 1720 cycles
cpu1_L2C TOTAL        ACCESS:          0 HIT:          0 MISS:          0
cpu1_L2C LOAD         ACCESS:          0 HIT:          0 MISS:          0
cpu1_L2C RFO          ACCESS:          0 HIT:          0 MISS:          0
cpu1_L2C PREFETCH     ACCESS:          0 HIT:          0 MISS:          0
cpu1_L2C WRITE        ACCESS:          0 HIT:          0 MISS:          0
cpu1_L2C TRANSLATION  ACCESS:          0 HIT:          0 MISS:          0
cpu1_L2C PREFETCH REQUESTED:     936903 ISSUED:     936903 USEFUL:     103563 USELESS:      10131
cpu1_L2C AVERAGE MISS LATENCY: 1720 cycles
cpu1_L2C TOTAL        ACCESS:          0 HIT:          0 MISS:          0
cpu1_L2C LOAD         ACCESS:          0 HIT:          0 MISS:          0
cpu1_L2C RFO          ACCESS:          0 HIT:          0 MISS:          0
cpu1_L2C PREFETCH     ACCESS:          0 HIT:          0 MISS:          0
cpu1_L2C WRITE        ACCESS:          0 HIT:          0 MISS:          0
cpu1_L2C TRANSLATION  ACCESS:          0 HIT:          0 MISS:          0
cpu1_L2C PREFETCH REQUESTED:     936903 ISSUED:     936903 USEFUL:     103563 USELESS:      10131
cpu1_L2C AVERAGE MISS LATENCY: 1720 cycles
cpu1_STLB TOTAL        ACCESS:          0 HIT:          0 MISS:          0
cpu1_STLB LOAD         ACCESS:          0 HIT:          0 MISS:          0
cpu1_STLB RFO          ACCESS:          0 HIT:          0 MISS:          0
cpu1_STLB PREFETCH     ACCESS:          0 HIT:          0 MISS:          0
cpu1_STLB WRITE        ACCESS:          0 HIT:          0 MISS:          0
cpu1_STLB TRANSLATION  ACCESS:          0 HIT:          0 MISS:          0
cpu1_STLB PREFETCH REQUESTED:          0 ISSUED:          0 USEFUL:          0 USELESS:          0
cpu1_STLB AVERAGE MISS LATENCY: 1792 cycles
cpu1_STLB TOTAL        ACCESS:   51256961 HIT:   51174236 MISS:      82725
cpu1_STLB LOAD         ACCESS:   51256961 HIT:   51174236 MISS:      82725
cpu1_STLB RFO          ACCESS:          0 HIT:          0 MISS:          0
cpu1_STLB PREFETCH     ACCESS:          0 HIT:          0 MISS:          0
cpu1_STLB WRITE        ACCESS:          0 HIT:          0 MISS:          0
cpu1_STLB TRANSLATION  ACCESS:          0 HIT:          0 MISS:          0
cpu1_STLB PREFETCH REQUESTED:          0 ISSUED:          0 USEFUL:          0 USELESS:          0
cpu1_STLB AVERAGE MISS LATENCY: 1792 cycles
cpu1_STLB TOTAL        ACCESS:          0 HIT:          0 MISS:          0
cpu1_STLB LOAD         ACCESS:          0 HIT:          0 MISS:          0
cpu1_STLB RFO          ACCESS:          0 HIT:          0 MISS:          0
cpu1_STLB PREFETCH     ACCESS:          0 HIT:          0 MISS:          0
cpu1_STLB WRITE        ACCESS:          0 HIT:          0 MISS:          0
cpu1_STLB TRANSLATION  ACCESS:          0 HIT:          0 MISS:          0
cpu1_STLB PREFETCH REQUESTED:          0 ISSUED:          0 USEFUL:          0 USELESS:          0
cpu1_STLB AVERAGE MISS LATENCY: 1792 cycles
cpu1_STLB TOTAL        ACCESS:          0 HIT:          0 MISS:          0
cpu1_STLB LOAD         ACCESS:          0 HIT:          0 MISS:          0
cpu1_STLB RFO          ACCESS:          0 HIT:          0 MISS:          0
cpu1_STLB PREFETCH     ACCESS:          0 HIT:          0 MISS:          0
cpu1_STLB WRITE        ACCESS:          0 HIT:          0 MISS:          0
cpu1_STLB TRANSLATION  ACCESS:          0 HIT:          0 MISS:          0
cpu1_STLB PREFETCH REQUESTED:          0 ISSUED:          0 USEFUL:          0 USELESS:          0
cpu1_STLB AVERAGE MISS LATENCY: 1792 cycles
cpu2_DTLB TOTAL        ACCESS:          0 HIT:          0 MISS:          0
cpu2_DTLB LOAD         ACCESS:          0 HIT:          0 MISS:          0
cpu2_DTLB RFO          ACCESS:          0 HIT:          0 MISS:          0
cpu2_DTLB PREFETCH     ACCESS:          0 HIT:          0 MISS:          0
cpu2_DTLB WRITE        ACCESS:          0 HIT:          0 MISS:          0
cpu2_DTLB TRANSLATION  ACCESS:          0 HIT:          0 MISS:          0
cpu2_DTLB PREFETCH REQUESTED:          0 ISSUED:          0 USEFUL:          0 USELESS:          0
cpu2_DTLB AVERAGE MISS LATENCY: 11.53 cycles
cpu2_DTLB TOTAL        ACCESS:          0 HIT:          0 MISS:          0
cpu2_DTLB LOAD         ACCESS:          0 HIT:          0 MISS:          0
cpu2_DTLB RFO          ACCESS:          0 HIT:          0 MISS:          0
cpu2_DTLB PREFETCH     ACCESS:          0 HIT:          0 MISS:          0
cpu2_DTLB WRITE        ACCESS:          0 HIT:          0 MISS:          0
cpu2_DTLB TRANSLATION  ACCESS:          0 HIT:          0 MISS:          0
cpu2_DTLB PREFETCH REQUESTED:          0 ISSUED:          0 USEFUL:          0 USELESS:          0
cpu2_DTLB AVERAGE MISS LATENCY: 11.53 cycles
cpu2_DTLB TOTAL        ACCESS:   55420119 HIT:   51969942 MISS:    3450177
cpu2_DTLB LOAD         ACCESS:   55420119 HIT:   51969942 MISS:    3450177
cpu2_DTLB RFO          ACCESS:          0 HIT:          0 MISS:          0
cpu2_DTLB PREFETCH     ACCESS:          0 HIT:          0 MISS:          0
cpu2_DTLB WRITE        ACCESS:          0 HIT:          0 MISS:          0
cpu2_DTLB TRANSLATION  ACCESS:          0 HIT:          0 MISS:          0
cpu2_DTLB PREFETCH REQUESTED:          0 ISSUED:          0 USEFUL:          0 USELESS:          0
cpu2_DTLB AVERAGE MISS LATENCY: 11.53 cycles
cpu2_DTLB TOTAL        ACCESS:          0 HIT:          0 MISS:          0
cpu2_DTLB LOAD         ACCESS:          0 HIT:          0 MISS:          0
cpu2_DTLB RFO          ACCESS:          0 HIT:          0 MISS:          0
cpu2_DTLB PREFETCH     ACCESS:          0 HIT:          0 MISS:          0
cpu2_DTLB WRITE        ACCESS:          0 HIT:          0 MISS:          0
cpu2_DTLB TRANSLATION  ACCESS:          0 HIT:          0 MISS:          0
cpu2_DTLB PREFETCH REQUESTED:          0 ISSUED:          0 USEFUL:          0 USELESS:          0
cpu2_DTLB AVERAGE MISS LATENCY: 11.53 cycles
cpu2_ITLB TOTAL        ACCESS:          0 HIT:          0 MISS:          0
cpu2_ITLB LOAD         ACCESS:          0 HIT:          0 MISS:          0
cpu2_ITLB RFO          ACCESS:          0 HIT:          0 MISS:          0
cpu2_ITLB PREFETCH     ACCESS:          0 HIT:          0 MISS:          0
cpu2_ITLB WRITE        ACCESS:          0 HIT:          0 MISS:          0
cpu2_ITLB TRANSLATION  ACCESS:          0 HIT:          0 MISS:          0
cpu2_ITLB PREFETCH REQUESTED:          0 ISSUED:          0 USEFUL:          0 USELESS:          0
cpu2_ITLB AVERAGE MISS LATENCY: -nan cycles
cpu2_ITLB TOTAL        ACCESS:          0 HIT:          0 MISS:          0
cpu2_ITLB LOAD         ACCESS:          0 HIT:          0 MISS:          0
cpu2_ITLB RFO          ACCESS:          0 HIT:          0 MISS:          0
cpu2_ITLB PREFETCH     ACCESS:          0 HIT:          0 MISS:          0
cpu2_ITLB WRITE        ACCESS:          0 HIT:          0 MISS:          0
cpu2_ITLB TRANSLATION  ACCESS:          0 HIT:          0 MISS:          0
cpu2_ITLB PREFETCH REQUESTED:          0 ISSUED:          0 USEFUL:          0 USELESS:          0
cpu2_ITLB AVERAGE MISS LATENCY: -nan cycles
cpu2_ITLB TOTAL        ACCESS:      62660 HIT:      62660 MISS:          0
cpu2_ITLB LOAD         ACCESS:      62660 HIT:      62660 MISS:          0
cpu2_ITLB RFO          ACCESS:          0 HIT:          0 MISS:          0
cpu2_ITLB PREFETCH     ACCESS:          0 HIT:          0 MISS:          0
cpu2_ITLB WRITE        ACCESS:          0 HIT:          0 MISS:          0
cpu2_ITLB TRANSLATION  ACCESS:          0 HIT:          0 MISS:          0
cpu2_ITLB PREFETCH REQUESTED:          0 ISSUED:          0 USEFUL:          0 USELESS:          0
cpu2_ITLB AVERAGE MISS LATENCY: -nan cycles
cpu2_ITLB TOTAL        ACCESS:          0 HIT:          0 MISS:          0
cpu2_ITLB LOAD         ACCESS:          0 HIT:          0 MISS:          0
cpu2_ITLB RFO          ACCESS:          0 HIT:          0 MISS:          0
cpu2_ITLB PREFETCH     ACCESS:          0 HIT:          0 MISS:          0
cpu2_ITLB WRITE        ACCESS:          0 HIT:          0 MISS:          0
cpu2_ITLB TRANSLATION  ACCESS:          0 HIT:          0 MISS:          0
cpu2_ITLB PREFETCH REQUESTED:          0 ISSUED:          0 USEFUL:          0 USELESS:          0
cpu2_ITLB AVERAGE MISS LATENCY: -nan cycles
cpu2_L1D TOTAL        ACCESS:          0 HIT:          0 MISS:          0
cpu2_L1D LOAD         ACCESS:          0 HIT:          0 MISS:          0
cpu2_L1D RFO          ACCESS:          0 HIT:          0 MISS:          0
cpu2_L1D PREFETCH     ACCESS:          0 HIT:          0 MISS:          0
cpu2_L1D WRITE        ACCESS:          0 HIT:          0 MISS:          0
cpu2_L1D TRANSLATION  ACCESS:          0 HIT:          0 MISS:          0
cpu2_L1D PREFETCH REQUESTED:          0 ISSUED:          0 USEFUL:          0 USELESS:          0
cpu2_L1D AVERAGE MISS LATENCY: 135.7 cycles
cpu2_L1D TOTAL        ACCESS:          0 HIT:          0 MISS:          0
cpu2_L1D LOAD         ACCESS:          0 HIT:          0 MISS:          0
cpu2_L1D RFO          ACCESS:          0 HIT:          0 MISS:          0
cpu2_L1D PREFETCH     ACCESS:          0 HIT:          0 MISS:          0
cpu2_L1D WRITE        ACCESS:          0 HIT:          0 MISS:          0
cpu2_L1D TRANSLATION  ACCESS:          0 HIT:          0 MISS:          0
cpu2_L1D PREFETCH REQUESTED:          0 ISSUED:          0 USEFUL:          0 USELESS:          0
cpu2_L1D AVERAGE MISS LATENCY: 135.7 cycles
cpu2_L1D TOTAL        ACCESS:   70500503 HIT:   61061677 MISS:    9438826
cpu2_L1D LOAD         ACCESS:   46670964 HIT:   39355282 MISS:    7315682
cpu2_L1D RFO          ACCESS:          0 HIT:          0 MISS:          0
cpu2_L1D PREFETCH     ACCESS:          0 HIT:          0 MISS:          0
cpu2_L1D WRITE        ACCESS:   23788766 HIT:   21687526 MISS:    2101240
cpu2_L1D TRANSLATION  ACCESS:      40773 HIT:      18869 MISS:      21904
cpu2_L1D PREFETCH REQUESTED:          0 ISSUED:          0 USEFUL:          0 USELESS:          0
cpu2_L1D AVERAGE MISS LATENCY: 135.7 cycles
cpu2_L1D TOTAL        ACCESS:          0 HIT:          0 MISS:          0
cpu2_L1D LOAD         ACCESS:          0 HIT:          0 MISS:          0
cpu2_L1D RFO          ACCESS:          0 HIT:          0 MISS:          0
cpu2_L1D PREFETCH     ACCESS:          0 HIT:          0 MISS:          0
cpu2_L1D WRITE        ACCESS:          0 HIT:          0 MISS:          0
cpu2_L1D TRANSLATION  ACCESS:          0 HIT:          0 MISS:          0
cpu2_L1D PREFETCH REQUESTED:          0 ISSUED:          0 USEFUL:          0 USELESS:          0
cpu2_L1D AVERAGE MISS LATENCY: 135.7 cycles
cpu2_L1I TOTAL        ACCESS:          0 HIT:          0 MISS:          0
cpu2_L1I LOAD         ACCESS:          0 HIT:          0 MISS:          0
[...]
cpu2_L2C PREFETCH     ACCESS:          0 HIT:          0 MISS:          0
cpu2_L2C WRITE        ACCESS:          0 HIT:          0 MISS:          0
cpu2_L2C TRANSLATION  ACCESS:          0 HIT:          0 MISS:          0
cpu2_L2C PREFETCH REQUESTED:   11494975 ISSUED:   11489103 USEFUL:    1257922 USELESS:     137952
cpu2_L2C AVERAGE MISS LATENCY: 340.7 cycles
cpu2_L2C TOTAL        ACCESS:          0 HIT:          0 MISS:          0
cpu2_L2C LOAD         ACCESS:          0 HIT:          0 MISS:          0
cpu2_L2C RFO          ACCESS:          0 HIT:          0 MISS:          0
cpu2_L2C PREFETCH     ACCESS:          0 HIT:          0 MISS:          0
cpu2_L2C WRITE        ACCESS:          0 HIT:          0 MISS:          0
cpu2_L2C TRANSLATION  ACCESS:          0 HIT:          0 MISS:          0
cpu2_L2C PREFETCH REQUESTED:   11494975 ISSUED:   11489103 USEFUL:    1257922 USELESS:     137952
cpu2_L2C AVERAGE MISS LATENCY: 340.7 cycles
cpu2_L2C TOTAL        ACCESS:   14715590 HIT:    9490638 MISS:    5224952
cpu2_L2C LOAD         ACCESS:    4607063 HIT:    2538369 MISS:    2068694
cpu2_L2C RFO          ACCESS:     573053 HIT:     314580 MISS:     258473
cpu2_L2C PREFETCH     ACCESS:    8734145 HIT:    5850938 MISS:    2883207
cpu2_L2C WRITE        ACCESS:     784536 HIT:     784094 MISS:        442
cpu2_L2C TRANSLATION  ACCESS:      16793 HIT:       2657 MISS:      14136
cpu2_L2C PREFETCH REQUESTED:   11494975 ISSUED:   11489103 USEFUL:    1257922 USELESS:     137952
cpu2_L2C AVERAGE MISS LATENCY: 340.7 cycles
cpu2_L2C TOTAL        ACCESS:          0 HIT:          0 MISS:          0
cpu2_L2C LOAD         ACCESS:          0 HIT:          0 MISS:          0
cpu2_L2C RFO          ACCESS:          0 HIT:          0 MISS:          0
cpu2_L2C PREFETCH     ACCESS:          0 HIT:          0 MISS:          0
cpu2_L2C WRITE        ACCESS:          0 HIT:          0 MISS:          0
cpu2_L2C TRANSLATION  ACCESS:          0 HIT:          0 MISS:          0
cpu2_L2C PREFETCH REQUESTED:   11494975 ISSUED:   11489103 USEFUL:    1257922 USELESS:     137952
cpu2_L2C AVERAGE MISS LATENCY: 340.7 cycles
cpu2_STLB TOTAL        ACCESS:          0 HIT:          0 MISS:          0
cpu2_STLB LOAD         ACCESS:          0 HIT:          0 MISS:          0
cpu2_STLB RFO          ACCESS:          0 HIT:          0 MISS:          0
cpu2_STLB PREFETCH     ACCESS:          0 HIT:          0 MISS:          0
cpu2_STLB WRITE        ACCESS:          0 HIT:          0 MISS:          0
cpu2_STLB TRANSLATION  ACCESS:          0 HIT:          0 MISS:          0
cpu2_STLB PREFETCH REQUESTED:          0 ISSUED:          0 USEFUL:          0 USELESS:          0
cpu2_STLB AVERAGE MISS LATENCY: 451.8 cycles
cpu2_STLB TOTAL        ACCESS:          0 HIT:          0 MISS:          0
cpu2_STLB LOAD         ACCESS:          0 HIT:          0 MISS:          0
cpu2_STLB RFO          ACCESS:          0 HIT:          0 MISS:          0
cpu2_STLB PREFETCH     ACCESS:          0 HIT:          0 MISS:          0
cpu2_STLB WRITE        ACCESS:          0 HIT:          0 MISS:          0
cpu2_STLB TRANSLATION  ACCESS:          0 HIT:          0 MISS:          0
cpu2_STLB PREFETCH REQUESTED:          0 ISSUED:          0 USEFUL:          0 USELESS:          0
cpu2_STLB AVERAGE MISS LATENCY: 451.8 cycles
cpu2_STLB TOTAL        ACCESS:    2217387 HIT:    2186429 MISS:      30958
cpu2_STLB LOAD         ACCESS:    2217387 HIT:    2186429 MISS:      30958
cpu2_STLB RFO          ACCESS:          0 HIT:          0 MISS:          0
cpu2_STLB PREFETCH     ACCESS:          0 HIT:          0 MISS:          0
cpu2_STLB WRITE        ACCESS:          0 HIT:          0 MISS:          0
cpu2_STLB TRANSLATION  ACCESS:          0 HIT:          0 MISS:          0
cpu2_STLB PREFETCH REQUESTED:          0 ISSUED:          0 USEFUL:          0 USELESS:          0
cpu2_STLB AVERAGE MISS LATENCY: 451.8 cycles
cpu2_STLB TOTAL        ACCESS:          0 HIT:          0 MISS:          0
cpu2_STLB LOAD         ACCESS:          0 HIT:          0 MISS:          0
cpu2_STLB RFO          ACCESS:          0 HIT:          0 MISS:          0
cpu2_STLB PREFETCH     ACCESS:          0 HIT:          0 MISS:          0
cpu2_STLB WRITE        ACCESS:          0 HIT:          0 MISS:          0
cpu2_STLB TRANSLATION  ACCESS:          0 HIT:          0 MISS:          0
cpu2_STLB PREFETCH REQUESTED:          0 ISSUED:          0 USEFUL:          0 USELESS:          0
cpu2_STLB AVERAGE MISS LATENCY: 451.8 cycles
cpu3_DTLB TOTAL        ACCESS:          0 HIT:          0 MISS:          0
cpu3_DTLB LOAD         ACCESS:          0 HIT:          0 MISS:          0
cpu3_DTLB RFO          ACCESS:          0 HIT:          0 MISS:          0
cpu3_DTLB PREFETCH     ACCESS:          0 HIT:          0 MISS:          0
cpu3_DTLB WRITE        ACCESS:          0 HIT:          0 MISS:          0
cpu3_DTLB TRANSLATION  ACCESS:          0 HIT:          0 MISS:          0
cpu3_DTLB PREFETCH REQUESTED:          0 ISSUED:          0 USEFUL:          0 USELESS:          0
cpu3_DTLB AVERAGE MISS LATENCY: 26.57 cycles
cpu3_DTLB TOTAL        ACCESS:          0 HIT:          0 MISS:          0
cpu3_DTLB LOAD         ACCESS:          0 HIT:          0 MISS:          0
cpu3_DTLB RFO          ACCESS:          0 HIT:          0 MISS:          0
cpu3_DTLB PREFETCH     ACCESS:          0 HIT:          0 MISS:          0
cpu3_DTLB WRITE        ACCESS:          0 HIT:          0 MISS:          0
cpu3_DTLB TRANSLATION  ACCESS:          0 HIT:          0 MISS:          0
cpu3_DTLB PREFETCH REQUESTED:          0 ISSUED:          0 USEFUL:          0 USELESS:          0
cpu3_DTLB AVERAGE MISS LATENCY: 26.57 cycles
cpu3_DTLB TOTAL        ACCESS:          0 HIT:          0 MISS:          0
cpu3_DTLB LOAD         ACCESS:          0 HIT:          0 MISS:          0
cpu3_DTLB RFO          ACCESS:          0 HIT:          0 MISS:          0
cpu3_DTLB PREFETCH     ACCESS:          0 HIT:          0 MISS:          0
cpu3_DTLB WRITE        ACCESS:          0 HIT:          0 MISS:          0
cpu3_DTLB TRANSLATION  ACCESS:          0 HIT:          0 MISS:          0
cpu3_DTLB PREFETCH REQUESTED:          0 ISSUED:          0 USEFUL:          0 USELESS:          0
cpu3_DTLB AVERAGE MISS LATENCY: 26.57 cycles
cpu3_DTLB TOTAL        ACCESS:   20548779 HIT:   20369905 MISS:     178874
cpu3_DTLB LOAD         ACCESS:   20548779 HIT:   20369905 MISS:     178874
cpu3_DTLB RFO          ACCESS:          0 HIT:          0 MISS:          0
cpu3_DTLB PREFETCH     ACCESS:          0 HIT:          0 MISS:          0
cpu3_DTLB WRITE        ACCESS:          0 HIT:          0 MISS:          0
cpu3_DTLB TRANSLATION  ACCESS:          0 HIT:          0 MISS:          0
cpu3_DTLB PREFETCH REQUESTED:          0 ISSUED:          0 USEFUL:          0 USELESS:          0
cpu3_DTLB AVERAGE MISS LATENCY: 26.57 cycles
cpu3_ITLB TOTAL        ACCESS:          0 HIT:          0 MISS:          0
cpu3_ITLB LOAD         ACCESS:          0 HIT:          0 MISS:          0
cpu3_ITLB RFO          ACCESS:          0 HIT:          0 MISS:          0
cpu3_ITLB PREFETCH     ACCESS:          0 HIT:          0 MISS:          0
cpu3_ITLB WRITE        ACCESS:          0 HIT:          0 MISS:          0
cpu3_ITLB TRANSLATION  ACCESS:          0 HIT:          0 MISS:          0
cpu3_ITLB PREFETCH REQUESTED:          0 ISSUED:          0 USEFUL:          0 USELESS:          0
cpu3_ITLB AVERAGE MISS LATENCY: 17.16 cycles
cpu3_ITLB TOTAL        ACCESS:          0 HIT:          0 MISS:          0
cpu3_ITLB LOAD         ACCESS:          0 HIT:          0 MISS:          0
cpu3_ITLB RFO          ACCESS:          0 HIT:          0 MISS:          0
cpu3_ITLB PREFETCH     ACCESS:          0 HIT:          0 MISS:          0
cpu3_ITLB WRITE        ACCESS:          0 HIT:          0 MISS:          0
cpu3_ITLB TRANSLATION  ACCESS:          0 HIT:          0 MISS:          0
cpu3_ITLB PREFETCH REQUESTED:          0 ISSUED:          0 USEFUL:          0 USELESS:          0
cpu3_ITLB AVERAGE MISS LATENCY: 17.16 cycles
cpu3_ITLB TOTAL        ACCESS:          0 HIT:          0 MISS:          0
cpu3_ITLB LOAD         ACCESS:          0 HIT:          0 MISS:          0
cpu3_ITLB RFO          ACCESS:          0 HIT:          0 MISS:          0
cpu3_ITLB PREFETCH     ACCESS:          0 HIT:          0 MISS:          0
cpu3_ITLB WRITE        ACCESS:          0 HIT:          0 MISS:          0
cpu3_ITLB TRANSLATION  ACCESS:          0 HIT:          0 MISS:          0
cpu3_ITLB PREFETCH REQUESTED:          0 ISSUED:          0 USEFUL:          0 USELESS:          0
cpu3_ITLB AVERAGE MISS LATENCY: 17.16 cycles
cpu3_ITLB TOTAL        ACCESS:     300347 HIT:     293844 MISS:       6503
cpu3_ITLB LOAD         ACCESS:     300347 HIT:     293844 MISS:       6503
cpu3_ITLB RFO          ACCESS:          0 HIT:          0 MISS:          0
cpu3_ITLB PREFETCH     ACCESS:          0 HIT:          0 MISS:          0
cpu3_ITLB WRITE        ACCESS:          0 HIT:          0 MISS:          0
cpu3_ITLB TRANSLATION  ACCESS:          0 HIT:          0 MISS:          0
cpu3_ITLB PREFETCH REQUESTED:          0 ISSUED:          0 USEFUL:          0 USELESS:          0
cpu3_ITLB AVERAGE MISS LATENCY: 17.16 cycles
cpu3_L1D TOTAL        ACCESS:          0 HIT:          0 MISS:          0
cpu3_L1D LOAD         ACCESS:          0 HIT:          0 MISS:          0
cpu3_L1D RFO          ACCESS:          0 HIT:          0 MISS:          0
cpu3_L1D PREFETCH     ACCESS:          0 HIT:          0 MISS:          0
cpu3_L1D WRITE        ACCESS:          0 HIT:          0 MISS:          0
cpu3_L1D TRANSLATION  ACCESS:          0 HIT:          0 MISS:          0
cpu3_L1D PREFETCH REQUESTED:          0 ISSUED:          0 USEFUL:          0 USELESS:          0
cpu3_L1D AVERAGE MISS LATENCY: 131.7 cycles
cpu3_L1D TOTAL        ACCESS:          0 HIT:          0 MISS:          0
cpu3_L1D LOAD         ACCESS:          0 HIT:          0 MISS:          0
cpu3_L1D RFO          ACCESS:          0 HIT:          0 MISS:          0
cpu3_L1D PREFETCH     ACCESS:          0 HIT:          0 MISS:          0
cpu3_L1D WRITE        ACCESS:          0 HIT:          0 MISS:          0
cpu3_L1D TRANSLATION  ACCESS:          0 HIT:          0 MISS:          0
cpu3_L1D PREFETCH REQUESTED:          0 ISSUED:          0 USEFUL:          0 USELESS:          0
cpu3_L1D AVERAGE MISS LATENCY: 131.7 cycles
cpu3_L1D TOTAL        ACCESS:          0 HIT:          0 MISS:          0
cpu3_L1D LOAD         ACCESS:          0 HIT:          0 MISS:          0
cpu3_L1D RFO          ACCESS:          0 HIT:          0 MISS:          0
cpu3_L1D PREFETCH     ACCESS:          0 HIT:          0 MISS:          0
cpu3_L1D WRITE        ACCESS:          0 HIT:          0 MISS:          0
cpu3_L1D TRANSLATION  ACCESS:          0 HIT:          0 MISS:          0
cpu3_L1D PREFETCH REQUESTED:          0 ISSUED:          0 USEFUL:          0 USELESS:          0
cpu3_L1D AVERAGE MISS LATENCY: 131.7 cycles
cpu3_L1D TOTAL        ACCESS:   24949124 HIT:   19946489 MISS:    5002635
cpu3_L1D LOAD         ACCESS:   15340352 HIT:   13237161 MISS:    2103191
cpu3_L1D RFO          ACCESS:          0 HIT:          0 MISS:          0
cpu3_L1D PREFETCH     ACCESS:          0 HIT:          0 MISS:          0
cpu3_L1D WRITE        ACCESS:    9600510 HIT:    6707158 MISS:    2893352
cpu3_L1D TRANSLATION  ACCESS:       8262 HIT:       2170 MISS:       6092
cpu3_L1D PREFETCH REQUESTED:          0 ISSUED:          0 USEFUL:          0 USELESS:          0
cpu3_L1D AVERAGE MISS LATENCY: 131.7 cycles
cpu3_L1I TOTAL        ACCESS:          0 HIT:          0 MISS:          0
cpu3_L1I LOAD         ACCESS:          0 HIT:          0 MISS:          0
cpu3_L1I RFO          ACCESS:          0 HIT:          0 MISS:          0
cpu3_L1I PREFETCH     ACCESS:          0 HIT:          0 MISS:          0
cpu3_L1I WRITE        ACCESS:          0 HIT:          0 MISS:          0
cpu3_L1I TRANSLATION  ACCESS:          0 HIT:          0 MISS:          0
cpu3_L1I PREFETCH REQUESTED:          0 ISSUED:          0 USEFUL:          0 USELESS:          0
cpu3_L1I AVERAGE MISS LATENCY: 54.4 cycles
cpu3_L1I TOTAL        ACCESS:          0 HIT:          0 MISS:          0
cpu3_L1I LOAD         ACCESS:          0 HIT:          0 MISS:          0
cpu3_L1I RFO          ACCESS:          0 HIT:          0 MISS:          0
cpu3_L1I PREFETCH     ACCESS:          0 HIT:          0 MISS:          0
cpu3_L1I WRITE        ACCESS:          0 HIT:          0 MISS:          0
cpu3_L1I TRANSLATION  ACCESS:          0 HIT:          0 MISS:          0
cpu3_L1I PREFETCH REQUESTED:          0 ISSUED:          0 USEFUL:          0 USELESS:          0
cpu3_L1I AVERAGE MISS LATENCY: 54.4 cycles
cpu3_L1I TOTAL        ACCESS:          0 HIT:          0 MISS:          0
cpu3_L1I LOAD         ACCESS:          0 HIT:          0 MISS:          0
cpu3_L1I RFO          ACCESS:          0 HIT:          0 MISS:          0
cpu3_L1I PREFETCH     ACCESS:          0 HIT:          0 MISS:          0
cpu3_L1I WRITE        ACCESS:          0 HIT:          0 MISS:          0
cpu3_L1I TRANSLATION  ACCESS:          0 HIT:          0 MISS:          0
cpu3_L1I PREFETCH REQUESTED:          0 ISSUED:          0 USEFUL:          0 USELESS:          0
cpu3_L1I AVERAGE MISS LATENCY: 54.4 cycles
cpu3_L1I TOTAL        ACCESS:     373171 HIT:     262473 MISS:     110698
cpu3_L1I LOAD         ACCESS:     373171 HIT:     262473 MISS:     110698
cpu3_L1I RFO          ACCESS:          0 HIT:          0 MISS:          0
cpu3_L1I PREFETCH     ACCESS:          0 HIT:          0 MISS:          0
cpu3_L1I WRITE        ACCESS:          0 HIT:          0 MISS:          0
cpu3_L1I TRANSLATION  ACCESS:          0 HIT:          0 MISS:          0
cpu3_L1I PREFETCH REQUESTED:          0 ISSUED:          0 USEFUL:          0 USELESS:          0
cpu3_L1I AVERAGE MISS LATENCY: 54.4 cycles
cpu3_L2C TOTAL        ACCESS:          0 HIT:          0 MISS:          0
cpu3_L2C LOAD         ACCESS:          0 HIT:          0 MISS:          0
cpu3_L2C RFO          ACCESS:          0 HIT:          0 MISS:          0
cpu3_L2C PREFETCH     ACCESS:          0 HIT:          0 MISS:          0
cpu3_L2C WRITE        ACCESS:          0 HIT:          0 MISS:          0
cpu3_L2C TRANSLATION  ACCESS:          0 HIT:          0 MISS:          0
cpu3_L2C PREFETCH REQUESTED:   39627372 ISSUED:   35065176 USEFUL:    3085934 USELESS:     802302
cpu3_L2C AVERAGE MISS LATENCY: 467.3 cycles
cpu3_L2C TOTAL        ACCESS:          0 HIT:          0 MISS:          0
cpu3_L2C LOAD         ACCESS:          0 HIT:          0 MISS:          0
cpu3_L2C RFO          ACCESS:          0 HIT:          0 MISS:          0
cpu3_L2C PREFETCH     ACCESS:          0 HIT:          0 MISS:          0
cpu3_L2C WRITE        ACCESS:          0 HIT:          0 MISS:          0
cpu3_L2C TRANSLATION  ACCESS:          0 HIT:          0 MISS:          0
cpu3_L2C PREFETCH REQUESTED:   39627372 ISSUED:   35065176 USEFUL:    3085934 USELESS:     802302
cpu3_L2C AVERAGE MISS LATENCY: 467.3 cycles
cpu3_L2C TOTAL        ACCESS:          0 HIT:          0 MISS:          0
cpu3_L2C LOAD         ACCESS:          0 HIT:          0 MISS:          0
cpu3_L2C RFO          ACCESS:          0 HIT:          0 MISS:          0
cpu3_L2C PREFETCH     ACCESS:          0 HIT:          0 MISS:          0
cpu3_L2C WRITE        ACCESS:          0 HIT:          0 MISS:          0
cpu3_L2C TRANSLATION  ACCESS:          0 HIT:          0 MISS:          0
cpu3_L2C PREFETCH REQUESTED:   39627372 ISSUED:   35065176 USEFUL:    3085934 USELESS:     802302
cpu3_L2C AVERAGE MISS LATENCY: 467.3 cycles
cpu3_L2C TOTAL        ACCESS:    6409099 HIT:    4434028 MISS:    1975071
cpu3_L2C LOAD         ACCESS:    1380684 HIT:    1017051 MISS:     363633
cpu3_L2C RFO          ACCESS:     724705 HIT:     414520 MISS:     310185
cpu3_L2C PREFETCH     ACCESS:    3342124 HIT:    2045443 MISS:    1296681
cpu3_L2C WRITE        ACCESS:     955598 HIT:     955089 MISS:        509
cpu3_L2C TRANSLATION  ACCESS:       5988 HIT:       1925 MISS:       4063
cpu3_L2C PREFETCH REQUESTED:   39627372 ISSUED:   35065176 USEFUL:    3085934 USELESS:     802302
cpu3_L2C AVERAGE MISS LATENCY: 467.3 cycles
cpu3_STLB TOTAL        ACCESS:          0 HIT:          0 MISS:          0
cpu3_STLB LOAD         ACCESS:          0 HIT:          0 MISS:          0
cpu3_STLB RFO          ACCESS:          0 HIT:          0 MISS:          0
cpu3_STLB PREFETCH     ACCESS:          0 HIT:          0 MISS:          0
cpu3_STLB WRITE        ACCESS:          0 HIT:          0 MISS:          0
cpu3_STLB TRANSLATION  ACCESS:          0 HIT:          0 MISS:          0
cpu3_STLB PREFETCH REQUESTED:          0 ISSUED:          0 USEFUL:          0 USELESS:          0
cpu3_STLB AVERAGE MISS LATENCY: 793.7 cycles
cpu3_STLB TOTAL        ACCESS:          0 HIT:          0 MISS:          0
cpu3_STLB LOAD         ACCESS:          0 HIT:          0 MISS:          0
cpu3_STLB RFO          ACCESS:          0 HIT:          0 MISS:          0
cpu3_STLB PREFETCH     ACCESS:          0 HIT:          0 MISS:          0
cpu3_STLB WRITE        ACCESS:          0 HIT:          0 MISS:          0
cpu3_STLB TRANSLATION  ACCESS:          0 HIT:          0 MISS:          0
cpu3_STLB PREFETCH REQUESTED:          0 ISSUED:          0 USEFUL:          0 USELESS:          0
cpu3_STLB AVERAGE MISS LATENCY: 793.7 cycles
cpu3_STLB TOTAL        ACCESS:          0 HIT:          0 MISS:          0
cpu3_STLB LOAD         ACCESS:          0 HIT:          0 MISS:          0
cpu3_STLB RFO          ACCESS:          0 HIT:          0 MISS:          0
cpu3_STLB PREFETCH     ACCESS:          0 HIT:          0 MISS:          0
cpu3_STLB WRITE        ACCESS:          0 HIT:          0 MISS:          0
cpu3_STLB TRANSLATION  ACCESS:          0 HIT:          0 MISS:          0
cpu3_STLB PREFETCH REQUESTED:          0 ISSUED:          0 USEFUL:          0 USELESS:          0
cpu3_STLB AVERAGE MISS LATENCY: 793.7 cycles
cpu3_STLB TOTAL        ACCESS:      68393 HIT:      61250 MISS:       7143
cpu3_STLB LOAD         ACCESS:      68393 HIT:      61250 MISS:       7143
cpu3_STLB RFO          ACCESS:          0 HIT:          0 MISS:          0
cpu3_STLB PREFETCH     ACCESS:          0 HIT:          0 MISS:          0
cpu3_STLB WRITE        ACCESS:          0 HIT:          0 MISS:          0
cpu3_STLB TRANSLATION  ACCESS:          0 HIT:          0 MISS:          0
cpu3_STLB PREFETCH REQUESTED:          0 ISSUED:          0 USEFUL:          0 USELESS:          0
cpu3_STLB AVERAGE MISS LATENCY: 793.7 cycles

DRAM Statistics

Channel 0 RQ ROW_BUFFER_HIT:    3029034
  ROW_BUFFER_MISS:   11794029
 AVG DBUS CONGESTED CYCLE: 3.982
WQ ROW_BUFFER_HIT: Channel 0 
  ROW_BUFFER_MISS:     104694
  FULL:    3906206
BERTI TO_L1: 33558283 TO_L2: 25364588 TO_L2_BC_MSHR: 145439
BERTI AVG_LAT: 1183.64 NUM_TRACK_LATENCY: 22096630 NUM_CANT_TRACK_LATENCY: 713203
BERTI CROSS_PAGE 8065527 NO_CROSS_PAGE: 50857344
BERTI FOUND_BERTI: 30989738 NO_FOUND_BERTI: 75552278
BERTI AVERAGE_ISSUED: 6.1281
BERTI TO_L1: 33558283 TO_L2: 25364588 TO_L2_BC_MSHR: 145439
BERTI AVG_LAT: 1183.64 NUM_TRACK_LATENCY: 22096630 NUM_CANT_TRACK_LATENCY: 713203
BERTI CROSS_PAGE 8065527 NO_CROSS_PAGE: 50857344
BERTI FOUND_BERTI: 30989738 NO_FOUND_BERTI: 75552278
BERTI AVERAGE_ISSUED: 6.1281
BERTI TO_L1: 33558283 TO_L2: 25364588 TO_L2_BC_MSHR: 145439
BERTI AVG_LAT: 1183.64 NUM_TRACK_LATENCY: 22096630 NUM_CANT_TRACK_LATENCY: 713203
BERTI CROSS_PAGE 8065527 NO_CROSS_PAGE: 50857344
BERTI FOUND_BERTI: 30989738 NO_FOUND_BERTI: 75552278
BERTI AVERAGE_ISSUED: 6.1281
BERTI TO_L1: 33558283 TO_L2: 25364588 TO_L2_BC_MSHR: 145439
BERTI AVG_LAT: 1183.64 NUM_TRACK_LATENCY: 22096630 NUM_CANT_TRACK_LATENCY: 713203
BERTI CROSS_PAGE 8065527 NO_CROSS_PAGE: 50857344
BERTI FOUND_BERTI: 30989738 NO_FOUND_BERTI: 75552278
BERTI AVERAGE_ISSUED: 6.1281
