WARNING: physical memory size is smaller than virtual memory size.
WARNING: option --warmup_instructions is deprecated. Use --warmup-instructions instead.
WARNING: option --simulation_instructions is deprecated. Use --simulation-instructions instead.

*** ChampSim Multicore Out-of-Order Simulator ***
Warmup Instructions: 50000000
Simulation Instructions: 150000000
Number of CPUs: 4
Page size: 4096

Berti Prefetcher
BERTI HASH ORIGINAL
BERTI IP MASK ffff
Berti Prefetcher
BERTI HASH ORIGINAL
BERTI IP MASK ffff
Berti Prefetcher
BERTI HASH ORIGINAL
BERTI IP MASK ffff
Berti Prefetcher
BERTI HASH ORIGINAL
BERTI IP MASK ffff
Off-chip DRAM Size: 4 GiB Channels: 1 Width: 64-bit Data Race: 3200 MT/s
Heartbeat CPU 3 instructions: 10000001 cycles: 2502909 heartbeat IPC: 3.995 cumulative IPC: 3.995 (Simulation time: 00 hr 02 min 50 sec)
Heartbeat CPU 0 instructions: 10000000 cycles: 2511376 heartbeat IPC: 3.982 cumulative IPC: 3.982 (Simulation time: 00 hr 02 min 51 sec)
Heartbeat CPU 2 instructions: 10000000 cycles: 2638488 heartbeat IPC: 3.79 cumulative IPC: 3.79 (Simulation time: 00 hr 02 min 58 sec)
Heartbeat CPU 1 instructions: 10000002 cycles: 2696886 heartbeat IPC: 3.708 cumulative IPC: 3.708 (Simulation time: 00 hr 03 min 01 sec)
Heartbeat CPU 3 instructions: 20000001 cycles: 5005630 heartbeat IPC: 3.996 cumulative IPC: 3.996 (Simulation time: 00 hr 05 min 38 sec)
Heartbeat CPU 0 instructions: 20000000 cycles: 5026972 heartbeat IPC: 3.975 cumulative IPC: 3.979 (Simulation time: 00 hr 05 min 39 sec)
Heartbeat CPU 1 instructions: 20000001 cycles: 5210238 heartbeat IPC: 3.979 cumulative IPC: 3.839 (Simulation time: 00 hr 05 min 52 sec)
Heartbeat CPU 2 instructions: 20000000 cycles: 5276779 heartbeat IPC: 3.79 cumulative IPC: 3.79 (Simulation time: 00 hr 05 min 57 sec)
Heartbeat CPU 3 instructions: 30000003 cycles: 7507965 heartbeat IPC: 3.996 cumulative IPC: 3.996 (Simulation time: 00 hr 08 min 31 sec)
Heartbeat CPU 0 instructions: 30000000 cycles: 7534063 heartbeat IPC: 3.989 cumulative IPC: 3.982 (Simulation time: 00 hr 08 min 33 sec)
Heartbeat CPU 1 instructions: 30000000 cycles: 7723371 heartbeat IPC: 3.979 cumulative IPC: 3.884 (Simulation time: 00 hr 08 min 45 sec)
Heartbeat CPU 2 instructions: 30000004 cycles: 7915597 heartbeat IPC: 3.79 cumulative IPC: 3.79 (Simulation time: 00 hr 08 min 57 sec)
Heartbeat CPU 3 instructions: 40000002 cycles: 10010596 heartbeat IPC: 3.996 cumulative IPC: 3.996 (Simulation time: 00 hr 11 min 07 sec)
Heartbeat CPU 0 instructions: 40000000 cycles: 10051050 heartbeat IPC: 3.973 cumulative IPC: 3.98 (Simulation time: 00 hr 11 min 10 sec)
Heartbeat CPU 1 instructions: 40000003 cycles: 10239972 heartbeat IPC: 3.974 cumulative IPC: 3.906 (Simulation time: 00 hr 11 min 23 sec)
Heartbeat CPU 2 instructions: 40000001 cycles: 10554248 heartbeat IPC: 3.79 cumulative IPC: 3.79 (Simulation time: 00 hr 11 min 42 sec)
Heartbeat CPU 3 instructions: 50000003 cycles: 12513280 heartbeat IPC: 3.996 cumulative IPC: 3.996 (Simulation time: 00 hr 14 min 05 sec)
Warmup finished CPU 3 instructions: 50000003 cycles: 12513281 cumulative IPC: 3.996 (Simulation time: 00 hr 14 min 05 sec)
Heartbeat CPU 0 instructions: 50000001 cycles: 12589320 heartbeat IPC: 3.94 cumulative IPC: 3.972 (Simulation time: 00 hr 14 min 11 sec)
Warmup finished CPU 0 instructions: 50000001 cycles: 12589321 cumulative IPC: 3.972 (Simulation time: 00 hr 14 min 11 sec)
Heartbeat CPU 1 instructions: 50000002 cycles: 12761110 heartbeat IPC: 3.966 cumulative IPC: 3.918 (Simulation time: 00 hr 14 min 24 sec)
Warmup finished CPU 1 instructions: 50000002 cycles: 12761111 cumulative IPC: 3.918 (Simulation time: 00 hr 14 min 24 sec)
Heartbeat CPU 2 instructions: 50000000 cycles: 13194729 heartbeat IPC: 3.787 cumulative IPC: 3.789 (Simulation time: 00 hr 14 min 58 sec)
Warmup finished CPU 2 instructions: 50000000 cycles: 13194730 cumulative IPC: 3.789 (Simulation time: 00 hr 14 min 58 sec)
Warmup complete CPU 0 instructions: 52410263 cycles: 13194730 cumulative IPC: 3.972 (Simulation time: 00 hr 14 min 58 sec)
Warmup complete CPU 1 instructions: 51719665 cycles: 13194730 cumulative IPC: 3.92 (Simulation time: 00 hr 14 min 58 sec)
Warmup complete CPU 2 instructions: 50000000 cycles: 13194730 cumulative IPC: 3.789 (Simulation time: 00 hr 14 min 58 sec)
Warmup complete CPU 3 instructions: 52714861 cycles: 13194730 cumulative IPC: 3.995 (Simulation time: 00 hr 14 min 58 sec)
Heartbeat CPU 0 instructions: 60000002 cycles: 15652061 heartbeat IPC: 3.265 cumulative IPC: 3.089 (Simulation time: 00 hr 17 min 13 sec)
Heartbeat CPU 3 instructions: 60000004 cycles: 16634360 heartbeat IPC: 2.427 cumulative IPC: 2.118 (Simulation time: 00 hr 18 min 04 sec)
Heartbeat CPU 1 instructions: 60000000 cycles: 17126443 heartbeat IPC: 2.291 cumulative IPC: 2.106 (Simulation time: 00 hr 18 min 34 sec)
Heartbeat CPU 2 instructions: 60000004 cycles: 17433444 heartbeat IPC: 2.359 cumulative IPC: 2.359 (Simulation time: 00 hr 18 min 49 sec)
Heartbeat CPU 0 instructions: 70000003 cycles: 19207331 heartbeat IPC: 2.813 cumulative IPC: 2.925 (Simulation time: 00 hr 20 min 33 sec)
Heartbeat CPU 3 instructions: 70000000 cycles: 21341910 heartbeat IPC: 2.124 cumulative IPC: 2.122 (Simulation time: 00 hr 22 min 44 sec)
Heartbeat CPU 2 instructions: 70000002 cycles: 21400670 heartbeat IPC: 2.521 cumulative IPC: 2.437 (Simulation time: 00 hr 22 min 47 sec)
Heartbeat CPU 1 instructions: 70000000 cycles: 21526629 heartbeat IPC: 2.273 cumulative IPC: 2.194 (Simulation time: 00 hr 22 min 55 sec)
Heartbeat CPU 0 instructions: 80000000 cycles: 22493884 heartbeat IPC: 3.043 cumulative IPC: 2.967 (Simulation time: 00 hr 23 min 57 sec)
Heartbeat CPU 2 instructions: 80000000 cycles: 25147475 heartbeat IPC: 2.669 cumulative IPC: 2.51 (Simulation time: 00 hr 26 min 28 sec)
Heartbeat CPU 0 instructions: 90000001 cycles: 25877713 heartbeat IPC: 2.955 cumulative IPC: 2.964 (Simulation time: 00 hr 27 min 21 sec)
Heartbeat CPU 3 instructions: 80000001 cycles: 26038623 heartbeat IPC: 2.129 cumulative IPC: 2.124 (Simulation time: 00 hr 27 min 33 sec)
Heartbeat CPU 1 instructions: 80000003 cycles: 26167289 heartbeat IPC: 2.155 cumulative IPC: 2.18 (Simulation time: 00 hr 27 min 42 sec)
Heartbeat CPU 2 instructions: 90000002 cycles: 28900066 heartbeat IPC: 2.665 cumulative IPC: 2.547 (Simulation time: 00 hr 30 min 28 sec)
Heartbeat CPU 0 instructions: 100000004 cycles: 29268277 heartbeat IPC: 2.949 cumulative IPC: 2.961 (Simulation time: 00 hr 30 min 44 sec)
Heartbeat CPU 1 instructions: 90000003 cycles: 30038979 heartbeat IPC: 2.583 cumulative IPC: 2.273 (Simulation time: 00 hr 31 min 22 sec)
Heartbeat CPU 3 instructions: 90000002 cycles: 30742578 heartbeat IPC: 2.126 cumulative IPC: 2.125 (Simulation time: 00 hr 31 min 55 sec)
Heartbeat CPU 0 instructions: 110000001 cycles: 32689963 heartbeat IPC: 2.923 cumulative IPC: 2.954 (Simulation time: 00 hr 33 min 17 sec)
Heartbeat CPU 2 instructions: 100000003 cycles: 33087881 heartbeat IPC: 2.388 cumulative IPC: 2.513 (Simulation time: 00 hr 33 min 36 sec)
Heartbeat CPU 3 instructions: 100000000 cycles: 35452185 heartbeat IPC: 2.123 cumulative IPC: 2.124 (Simulation time: 00 hr 35 min 37 sec)
Heartbeat CPU 0 instructions: 120000002 cycles: 36095290 heartbeat IPC: 2.937 cumulative IPC: 2.951 (Simulation time: 00 hr 36 min 13 sec)
Heartbeat CPU 2 instructions: 110000001 cycles: 38351951 heartbeat IPC: 1.9 cumulative IPC: 2.385 (Simulation time: 00 hr 38 min 24 sec)
Heartbeat CPU 0 instructions: 130000003 cycles: 39521468 heartbeat IPC: 2.919 cumulative IPC: 2.947 (Simulation time: 00 hr 39 min 31 sec)
Heartbeat CPU 3 instructions: 110000001 cycles: 40176318 heartbeat IPC: 2.117 cumulative IPC: 2.123 (Simulation time: 00 hr 40 min 09 sec)
Heartbeat CPU 0 instructions: 140000003 cycles: 43080605 heartbeat IPC: 2.81 cumulative IPC: 2.931 (Simulation time: 00 hr 42 min 00 sec)
Heartbeat CPU 1 instructions: 100000001 cycles: 43614436 heartbeat IPC: 0.7366 cumulative IPC: 1.587 (Simulation time: 00 hr 42 min 20 sec)
Heartbeat CPU 3 instructions: 120000000 cycles: 44845116 heartbeat IPC: 2.142 cumulative IPC: 2.126 (Simulation time: 00 hr 43 min 06 sec)
Heartbeat CPU 2 instructions: 120000003 cycles: 45288426 heartbeat IPC: 1.442 cumulative IPC: 2.181 (Simulation time: 00 hr 43 min 22 sec)
Heartbeat CPU 0 instructions: 150000002 cycles: 47027609 heartbeat IPC: 2.534 cumulative IPC: 2.884 (Simulation time: 00 hr 44 min 22 sec)
Heartbeat CPU 3 instructions: 130000002 cycles: 49820469 heartbeat IPC: 2.01 cumulative IPC: 2.11 (Simulation time: 00 hr 46 min 18 sec)
Heartbeat CPU 0 instructions: 160000001 cycles: 50386063 heartbeat IPC: 2.978 cumulative IPC: 2.893 (Simulation time: 00 hr 46 min 43 sec)
Heartbeat CPU 3 instructions: 140000000 cycles: 54569389 heartbeat IPC: 2.106 cumulative IPC: 2.11 (Simulation time: 00 hr 49 min 24 sec)
Heartbeat CPU 0 instructions: 170000003 cycles: 54822022 heartbeat IPC: 2.254 cumulative IPC: 2.825 (Simulation time: 00 hr 49 min 37 sec)
Heartbeat CPU 2 instructions: 130000001 cycles: 56264912 heartbeat IPC: 0.911 cumulative IPC: 1.857 (Simulation time: 00 hr 50 min 49 sec)
Heartbeat CPU 0 instructions: 180000003 cycles: 58718689 heartbeat IPC: 2.566 cumulative IPC: 2.803 (Simulation time: 00 hr 52 min 32 sec)
Heartbeat CPU 3 instructions: 150000004 cycles: 59266065 heartbeat IPC: 2.129 cumulative IPC: 2.112 (Simulation time: 00 hr 52 min 54 sec)
Heartbeat CPU 0 instructions: 190000001 cycles: 64008261 heartbeat IPC: 1.891 cumulative IPC: 2.708 (Simulation time: 00 hr 55 min 19 sec)
Heartbeat CPU 3 instructions: 160000003 cycles: 64268515 heartbeat IPC: 1.999 cumulative IPC: 2.101 (Simulation time: 00 hr 55 min 30 sec)
Heartbeat CPU 2 instructions: 140000002 cycles: 67492398 heartbeat IPC: 0.8907 cumulative IPC: 1.658 (Simulation time: 00 hr 57 min 37 sec)
Heartbeat CPU 0 instructions: 200000004 cycles: 67631098 heartbeat IPC: 2.76 cumulative IPC: 2.711 (Simulation time: 00 hr 57 min 43 sec)
Simulation finished CPU 0 instructions: 150000004 cycles: 55286224 cumulative IPC: 2.713 (Simulation time: 00 hr 58 min 19 sec)
Heartbeat CPU 3 instructions: 170000003 cycles: 68881647 heartbeat IPC: 2.168 cumulative IPC: 2.106 (Simulation time: 00 hr 58 min 32 sec)
Heartbeat CPU 0 instructions: 210000003 cycles: 71219575 heartbeat IPC: 2.787 cumulative IPC: 2.716 (Simulation time: 00 hr 59 min 52 sec)
Heartbeat CPU 3 instructions: 180000004 cycles: 73570825 heartbeat IPC: 2.133 cumulative IPC: 2.108 (Simulation time: 01 hr 01 min 29 sec)
Heartbeat CPU 0 instructions: 220000001 cycles: 75132513 heartbeat IPC: 2.556 cumulative IPC: 2.706 (Simulation time: 01 hr 02 min 26 sec)
Heartbeat CPU 3 instructions: 190000002 cycles: 78259279 heartbeat IPC: 2.133 cumulative IPC: 2.11 (Simulation time: 01 hr 04 min 25 sec)
Heartbeat CPU 2 instructions: 150000001 cycles: 78282929 heartbeat IPC: 0.9267 cumulative IPC: 1.536 (Simulation time: 01 hr 04 min 26 sec)
Heartbeat CPU 0 instructions: 230000000 cycles: 78623973 heartbeat IPC: 2.864 cumulative IPC: 2.714 (Simulation time: 01 hr 04 min 38 sec)
Heartbeat CPU 0 instructions: 240000002 cycles: 82337164 heartbeat IPC: 2.693 cumulative IPC: 2.713 (Simulation time: 01 hr 06 min 58 sec)
Heartbeat CPU 3 instructions: 200000000 cycles: 82989465 heartbeat IPC: 2.114 cumulative IPC: 2.11 (Simulation time: 01 hr 07 min 20 sec)
Simulation finished CPU 3 instructions: 150000002 cycles: 71023695 cumulative IPC: 2.112 (Simulation time: 01 hr 08 min 00 sec)
Heartbeat CPU 0 instructions: 250000004 cycles: 85970764 heartbeat IPC: 2.752 cumulative IPC: 2.715 (Simulation time: 01 hr 08 min 58 sec)
Heartbeat CPU 3 instructions: 210000000 cycles: 87618445 heartbeat IPC: 2.16 cumulative IPC: 2.113 (Simulation time: 01 hr 09 min 56 sec)
Heartbeat CPU 1 instructions: 110000001 cycles: 88545450 heartbeat IPC: 0.2226 cumulative IPC: 0.7735 (Simulation time: 01 hr 10 min 41 sec)
Heartbeat CPU 2 instructions: 160000000 cycles: 88686741 heartbeat IPC: 0.9612 cumulative IPC: 1.457 (Simulation time: 01 hr 10 min 52 sec)
Heartbeat CPU 0 instructions: 260000002 cycles: 89379925 heartbeat IPC: 2.933 cumulative IPC: 2.725 (Simulation time: 01 hr 11 min 33 sec)
Heartbeat CPU 3 instructions: 220000000 cycles: 92184173 heartbeat IPC: 2.19 cumulative IPC: 2.118 (Simulation time: 01 hr 14 min 12 sec)
Heartbeat CPU 1 instructions: 120000003 cycles: 92291227 heartbeat IPC: 2.67 cumulative IPC: 0.8633 (Simulation time: 01 hr 14 min 18 sec)
Heartbeat CPU 2 instructions: 170000000 cycles: 92306036 heartbeat IPC: 2.763 cumulative IPC: 1.517 (Simulation time: 01 hr 14 min 19 sec)
Heartbeat CPU 0 instructions: 270000004 cycles: 92755168 heartbeat IPC: 2.963 cumulative IPC: 2.735 (Simulation time: 01 hr 14 min 44 sec)
Heartbeat CPU 1 instructions: 130000002 cycles: 95835956 heartbeat IPC: 2.821 cumulative IPC: 0.9472 (Simulation time: 01 hr 17 min 18 sec)
Heartbeat CPU 0 instructions: 280000004 cycles: 96170027 heartbeat IPC: 2.928 cumulative IPC: 2.743 (Simulation time: 01 hr 17 min 35 sec)
Heartbeat CPU 3 instructions: 230000001 cycles: 96773381 heartbeat IPC: 2.179 cumulative IPC: 2.121 (Simulation time: 01 hr 18 min 07 sec)
Heartbeat CPU 2 instructions: 180000003 cycles: 97278709 heartbeat IPC: 2.011 cumulative IPC: 1.546 (Simulation time: 01 hr 18 min 33 sec)
Heartbeat CPU 1 instructions: 140000000 cycles: 99301652 heartbeat IPC: 2.885 cumulative IPC: 1.025 (Simulation time: 01 hr 20 min 18 sec)
Heartbeat CPU 0 instructions: 290000003 cycles: 99598228 heartbeat IPC: 2.917 cumulative IPC: 2.75 (Simulation time: 01 hr 20 min 33 sec)
Heartbeat CPU 3 instructions: 240000000 cycles: 101375830 heartbeat IPC: 2.173 cumulative IPC: 2.124 (Simulation time: 01 hr 21 min 58 sec)
Heartbeat CPU 2 instructions: 190000004 cycles: 102230260 heartbeat IPC: 2.02 cumulative IPC: 1.572 (Simulation time: 01 hr 22 min 40 sec)
Heartbeat CPU 0 instructions: 300000000 cycles: 103039348 heartbeat IPC: 2.906 cumulative IPC: 2.756 (Simulation time: 01 hr 23 min 20 sec)
Heartbeat CPU 1 instructions: 150000003 cycles: 103863759 heartbeat IPC: 2.192 cumulative IPC: 1.084 (Simulation time: 01 hr 24 min 00 sec)
Heartbeat CPU 3 instructions: 250000002 cycles: 105999100 heartbeat IPC: 2.163 cumulative IPC: 2.126 (Simulation time: 01 hr 25 min 50 sec)
Heartbeat CPU 0 instructions: 310000004 cycles: 106468168 heartbeat IPC: 2.916 cumulative IPC: 2.762 (Simulation time: 01 hr 26 min 15 sec)
Heartbeat CPU 2 instructions: 200000002 cycles: 107179097 heartbeat IPC: 2.021 cumulative IPC: 1.596 (Simulation time: 01 hr 26 min 44 sec)
Simulation finished CPU 2 instructions: 150000002 cycles: 93984368 cumulative IPC: 1.596 (Simulation time: 01 hr 26 min 44 sec)
Heartbeat CPU 1 instructions: 160000000 cycles: 108794172 heartbeat IPC: 2.028 cumulative IPC: 1.133 (Simulation time: 01 hr 28 min 16 sec)
Heartbeat CPU 0 instructions: 320000001 cycles: 109897213 heartbeat IPC: 2.916 cumulative IPC: 2.767 (Simulation time: 01 hr 29 min 28 sec)
Heartbeat CPU 3 instructions: 260000000 cycles: 110643854 heartbeat IPC: 2.153 cumulative IPC: 2.127 (Simulation time: 01 hr 30 min 16 sec)
Heartbeat CPU 2 instructions: 210000000 cycles: 111664434 heartbeat IPC: 2.229 cumulative IPC: 1.625 (Simulation time: 01 hr 31 min 23 sec)
Heartbeat CPU 0 instructions: 330000001 cycles: 113327938 heartbeat IPC: 2.915 cumulative IPC: 2.772 (Simulation time: 01 hr 33 min 11 sec)
Heartbeat CPU 1 instructions: 170000000 cycles: 113542805 heartbeat IPC: 2.106 cumulative IPC: 1.179 (Simulation time: 01 hr 33 min 25 sec)
Heartbeat CPU 3 instructions: 270000000 cycles: 115260402 heartbeat IPC: 2.166 cumulative IPC: 2.129 (Simulation time: 01 hr 35 min 29 sec)
Heartbeat CPU 2 instructions: 220000001 cycles: 116134613 heartbeat IPC: 2.237 cumulative IPC: 1.651 (Simulation time: 01 hr 36 min 27 sec)
Heartbeat CPU 0 instructions: 340000003 cycles: 116753403 heartbeat IPC: 2.919 cumulative IPC: 2.777 (Simulation time: 01 hr 37 min 09 sec)
Heartbeat CPU 1 instructions: 180000004 cycles: 117996383 heartbeat IPC: 2.245 cumulative IPC: 1.224 (Simulation time: 01 hr 38 min 33 sec)
Heartbeat CPU 3 instructions: 280000001 cycles: 119881653 heartbeat IPC: 2.164 cumulative IPC: 2.13 (Simulation time: 01 hr 40 min 38 sec)
Heartbeat CPU 0 instructions: 350000001 cycles: 120192448 heartbeat IPC: 2.908 cumulative IPC: 2.781 (Simulation time: 01 hr 40 min 57 sec)
Heartbeat CPU 2 instructions: 230000000 cycles: 120495101 heartbeat IPC: 2.293 cumulative IPC: 1.678 (Simulation time: 01 hr 41 min 18 sec)
Heartbeat CPU 1 instructions: 190000003 cycles: 122171153 heartbeat IPC: 2.395 cumulative IPC: 1.269 (Simulation time: 01 hr 42 min 43 sec)
Heartbeat CPU 0 instructions: 360000000 cycles: 123609420 heartbeat IPC: 2.927 cumulative IPC: 2.786 (Simulation time: 01 hr 43 min 57 sec)
Heartbeat CPU 3 instructions: 290000004 cycles: 124507031 heartbeat IPC: 2.162 cumulative IPC: 2.132 (Simulation time: 01 hr 44 min 37 sec)
Heartbeat CPU 2 instructions: 240000002 cycles: 124833362 heartbeat IPC: 2.305 cumulative IPC: 1.702 (Simulation time: 01 hr 44 min 53 sec)
Heartbeat CPU 0 instructions: 370000001 cycles: 127016848 heartbeat IPC: 2.935 cumulative IPC: 2.79 (Simulation time: 01 hr 46 min 25 sec)
Heartbeat CPU 1 instructions: 200000004 cycles: 128801733 heartbeat IPC: 1.508 cumulative IPC: 1.283 (Simulation time: 01 hr 47 min 41 sec)
Heartbeat CPU 3 instructions: 300000000 cycles: 129121876 heartbeat IPC: 2.167 cumulative IPC: 2.133 (Simulation time: 01 hr 47 min 57 sec)
Heartbeat CPU 2 instructions: 250000000 cycles: 130064857 heartbeat IPC: 1.911 cumulative IPC: 1.711 (Simulation time: 01 hr 48 min 36 sec)
Simulation finished CPU 1 instructions: 150000004 cycles: 117043321 cumulative IPC: 1.282 (Simulation time: 01 hr 48 min 44 sec)
Simulation complete CPU 0 instructions: 327059561 cycles: 117043321 cumulative IPC: 2.794 (Simulation time: 01 hr 48 min 44 sec)
Simulation complete CPU 1 instructions: 150000004 cycles: 117043321 cumulative IPC: 1.282 (Simulation time: 01 hr 48 min 44 sec)
Simulation complete CPU 2 instructions: 200488025 cycles: 117043321 cumulative IPC: 1.713 (Simulation time: 01 hr 48 min 44 sec)
Simulation complete CPU 3 instructions: 249697541 cycles: 117043321 cumulative IPC: 2.133 (Simulation time: 01 hr 48 min 44 sec)

ChampSim completed all CPUs

=== Simulation ===
CPU 0 runs /home/das/dpc3_traces/654.roms_s-842B.champsimtrace.xzCPU 1 runs /home/das/dpc3_traces/627.cam4_s-573B.champsimtrace.xzCPU 2 runs /home/das/dpc3_traces/628.pop2_s-17B.champsimtrace.xzCPU 3 runs /home/das/dpc3_traces/621.wrf_s-575B.champsimtrace.xz
Total Simulation Statistics (not including warmup)

CPU 0 cumulative IPC: 2.794 instructions: 327059561 cycles: 117043321
CPU 0 Branch Prediction Accuracy: 95.17% MPKI: 8.007 Average ROB Occupancy at Mispredict: 83.11
Branch type MPKI
BRANCH_DIRECT_JUMP: 0.158
BRANCH_INDIRECT: 0
BRANCH_CONDITIONAL: 6.76
BRANCH_DIRECT_CALL: 0
BRANCH_INDIRECT_CALL: 0
BRANCH_RETURN: 1.08


CPU 1 cumulative IPC: 1.282 instructions: 150000004 cycles: 117043321
CPU 1 Branch Prediction Accuracy: 94.56% MPKI: 7.709 Average ROB Occupancy at Mispredict: 61.43
Branch type MPKI
BRANCH_DIRECT_JUMP: 0.00711
BRANCH_INDIRECT: 0.00237
BRANCH_CONDITIONAL: 7.05
BRANCH_DIRECT_CALL: 0.0271
BRANCH_INDIRECT_CALL: 0
BRANCH_RETURN: 0.627


CPU 2 cumulative IPC: 1.713 instructions: 200488025 cycles: 117043321
CPU 2 Branch Prediction Accuracy: 97.69% MPKI: 3.523 Average ROB Occupancy at Mispredict: 99.12
Branch type MPKI
BRANCH_DIRECT_JUMP: 0.0317
BRANCH_INDIRECT: 0.000893
BRANCH_CONDITIONAL: 3.46
BRANCH_DIRECT_CALL: 0.00138
BRANCH_INDIRECT_CALL: 0
BRANCH_RETURN: 0.0303


CPU 3 cumulative IPC: 2.133 instructions: 249697541 cycles: 117043321
CPU 3 Branch Prediction Accuracy: 94.91% MPKI: 6.809 Average ROB Occupancy at Mispredict: 78.99
Branch type MPKI
BRANCH_DIRECT_JUMP: 0
BRANCH_INDIRECT: 0
BRANCH_CONDITIONAL: 6.79
BRANCH_DIRECT_CALL: 0
BRANCH_INDIRECT_CALL: 0
BRANCH_RETURN: 0.0164

LLC TOTAL        ACCESS:     111913 HIT:      28000 MISS:      83913
LLC LOAD         ACCESS:       2568 HIT:       1078 MISS:       1490
LLC RFO          ACCESS:      15822 HIT:        343 MISS:      15479
LLC PREFETCH     ACCESS:      78094 HIT:      24363 MISS:      53731
LLC WRITE        ACCESS:      15333 HIT:       2215 MISS:      13118
LLC TRANSLATION  ACCESS:         96 HIT:          1 MISS:         95
LLC PREFETCH REQUESTED:          0 ISSUED:          0 USEFUL:          0 USELESS:          0
LLC AVERAGE MISS LATENCY: 1599 cycles
LLC TOTAL        ACCESS:    1300665 HIT:     669892 MISS:     630773
LLC LOAD         ACCESS:      97974 HIT:      29367 MISS:      68607
LLC RFO          ACCESS:     522667 HIT:      17291 MISS:     505376
LLC PREFETCH     ACCESS:     147475 HIT:      94995 MISS:      52480
LLC WRITE        ACCESS:     529923 HIT:     527993 MISS:       1930
LLC TRANSLATION  ACCESS:       2626 HIT:        246 MISS:       2380
LLC PREFETCH REQUESTED:          0 ISSUED:          0 USEFUL:          0 USELESS:          0
LLC AVERAGE MISS LATENCY: 1599 cycles
LLC TOTAL        ACCESS:    3305777 HIT:    2293159 MISS:    1012618
LLC LOAD         ACCESS:     494727 HIT:     364230 MISS:     130497
LLC RFO          ACCESS:     413835 HIT:     186496 MISS:     227339
LLC PREFETCH     ACCESS:    1788779 HIT:    1139383 MISS:     649396
LLC WRITE        ACCESS:     602008 HIT:     600730 MISS:       1278
LLC TRANSLATION  ACCESS:       6428 HIT:       2320 MISS:       4108
LLC PREFETCH REQUESTED:          0 ISSUED:          0 USEFUL:          0 USELESS:          0
LLC AVERAGE MISS LATENCY: 1599 cycles
LLC TOTAL        ACCESS:      10673 HIT:       1953 MISS:       8720
LLC LOAD         ACCESS:       1517 HIT:        313 MISS:       1204
LLC RFO          ACCESS:       4037 HIT:        193 MISS:       3844
LLC PREFETCH     ACCESS:       4192 HIT:       1446 MISS:       2746
LLC WRITE        ACCESS:        768 HIT:          0 MISS:        768
LLC TRANSLATION  ACCESS:        159 HIT:          1 MISS:        158
LLC PREFETCH REQUESTED:          0 ISSUED:          0 USEFUL:          0 USELESS:          0
LLC AVERAGE MISS LATENCY: 1599 cycles
cpu0_DTLB TOTAL        ACCESS:   40323908 HIT:   40319847 MISS:       4061
cpu0_DTLB LOAD         ACCESS:   40323908 HIT:   40319847 MISS:       4061
cpu0_DTLB RFO          ACCESS:          0 HIT:          0 MISS:          0
cpu0_DTLB PREFETCH     ACCESS:          0 HIT:          0 MISS:          0
cpu0_DTLB WRITE        ACCESS:          0 HIT:          0 MISS:          0
cpu0_DTLB TRANSLATION  ACCESS:          0 HIT:          0 MISS:          0
cpu0_DTLB PREFETCH REQUESTED:          0 ISSUED:          0 USEFUL:          0 USELESS:          0
cpu0_DTLB AVERAGE MISS LATENCY: 94.17 cycles
cpu0_DTLB TOTAL        ACCESS:          0 HIT:          0 MISS:          0
cpu0_DTLB LOAD         ACCESS:          0 HIT:          0 MISS:          0
cpu0_DTLB RFO          ACCESS:          0 HIT:          0 MISS:          0
cpu0_DTLB PREFETCH     ACCESS:          0 HIT:          0 MISS:          0
cpu0_DTLB WRITE        ACCESS:          0 HIT:          0 MISS:          0
cpu0_DTLB TRANSLATION  ACCESS:          0 HIT:          0 MISS:          0
cpu0_DTLB PREFETCH REQUESTED:          0 ISSUED:          0 USEFUL:          0 USELESS:          0
cpu0_DTLB AVERAGE MISS LATENCY: 94.17 cycles
cpu0_DTLB TOTAL        ACCESS:          0 HIT:          0 MISS:          0
cpu0_DTLB LOAD         ACCESS:          0 HIT:          0 MISS:          0
cpu0_DTLB RFO          ACCESS:          0 HIT:          0 MISS:          0
cpu0_DTLB PREFETCH     ACCESS:          0 HIT:          0 MISS:          0
cpu0_DTLB WRITE        ACCESS:          0 HIT:          0 MISS:          0
cpu0_DTLB TRANSLATION  ACCESS:          0 HIT:          0 MISS:          0
cpu0_DTLB PREFETCH REQUESTED:          0 ISSUED:          0 USEFUL:          0 USELESS:          0
cpu0_DTLB AVERAGE MISS LATENCY: 94.17 cycles
cpu0_DTLB TOTAL        ACCESS:          0 HIT:          0 MISS:          0
cpu0_DTLB LOAD         ACCESS:          0 HIT:          0 MISS:          0
cpu0_DTLB RFO          ACCESS:          0 HIT:          0 MISS:          0
cpu0_DTLB PREFETCH     ACCESS:          0 HIT:          0 MISS:          0
cpu0_DTLB WRITE        ACCESS:          0 HIT:          0 MISS:          0
cpu0_DTLB TRANSLATION  ACCESS:          0 HIT:          0 MISS:          0
cpu0_DTLB PREFETCH REQUESTED:          0 ISSUED:          0 USEFUL:          0 USELESS:          0
cpu0_DTLB AVERAGE MISS LATENCY: 94.17 cycles
cpu0_ITLB TOTAL        ACCESS:    3252029 HIT:    3252029 MISS:          0
cpu0_ITLB LOAD         ACCESS:    3252029 HIT:    3252029 MISS:          0
cpu0_ITLB RFO          ACCESS:          0 HIT:          0 MISS:          0
cpu0_ITLB PREFETCH     ACCESS:          0 HIT:          0 MISS:          0
cpu0_ITLB WRITE        ACCESS:          0 HIT:          0 MISS:          0
cpu0_ITLB TRANSLATION  ACCESS:          0 HIT:          0 MISS:          0
cpu0_ITLB PREFETCH REQUESTED:          0 ISSUED:          0 USEFUL:          0 USELESS:          0
cpu0_ITLB AVERAGE MISS LATENCY: -nan cycles
cpu0_ITLB TOTAL        ACCESS:          0 HIT:          0 MISS:          0
cpu0_ITLB LOAD         ACCESS:          0 HIT:          0 MISS:          0
cpu0_ITLB RFO          ACCESS:          0 HIT:          0 MISS:          0
cpu0_ITLB PREFETCH     ACCESS:          0 HIT:          0 MISS:          0
cpu0_ITLB WRITE        ACCESS:          0 HIT:          0 MISS:          0
cpu0_ITLB TRANSLATION  ACCESS:          0 HIT:          0 MISS:          0
cpu0_ITLB PREFETCH REQUESTED:          0 ISSUED:          0 USEFUL:          0 USELESS:          0
cpu0_ITLB AVERAGE MISS LATENCY: -nan cycles
cpu0_ITLB TOTAL        ACCESS:          0 HIT:          0 MISS:          0
cpu0_ITLB LOAD         ACCESS:          0 HIT:          0 MISS:          0
cpu0_ITLB RFO          ACCESS:          0 HIT:          0 MISS:          0
cpu0_ITLB PREFETCH     ACCESS:          0 HIT:          0 MISS:          0
cpu0_ITLB WRITE        ACCESS:          0 HIT:          0 MISS:          0
cpu0_ITLB TRANSLATION  ACCESS:          0 HIT:          0 MISS:          0
cpu0_ITLB PREFETCH REQUESTED:          0 ISSUED:          0 USEFUL:          0 USELESS:          0
cpu0_ITLB AVERAGE MISS LATENCY: -nan cycles
cpu0_ITLB TOTAL        ACCESS:          0 HIT:          0 MISS:          0
cpu0_ITLB LOAD         ACCESS:          0 HIT:          0 MISS:          0
cpu0_ITLB RFO          ACCESS:          0 HIT:          0 MISS:          0
cpu0_ITLB PREFETCH     ACCESS:          0 HIT:          0 MISS:          0
cpu0_ITLB WRITE        ACCESS:          0 HIT:          0 MISS:          0
cpu0_ITLB TRANSLATION  ACCESS:          0 HIT:          0 MISS:          0
cpu0_ITLB PREFETCH REQUESTED:          0 ISSUED:          0 USEFUL:          0 USELESS:          0
cpu0_ITLB AVERAGE MISS LATENCY: -nan cycles
cpu0_L1D TOTAL        ACCESS:   55438776 HIT:   55323871 MISS:     114905
cpu0_L1D LOAD         ACCESS:   31697604 HIT:   31669606 MISS:      27998
cpu0_L1D RFO          ACCESS:          0 HIT:          0 MISS:          0
cpu0_L1D PREFETCH     ACCESS:          0 HIT:          0 MISS:          0
cpu0_L1D WRITE        ACCESS:   23740310 HIT:   23653499 MISS:      86811
cpu0_L1D TRANSLATION  ACCESS:        862 HIT:        766 MISS:         96
cpu0_L1D PREFETCH REQUESTED:          0 ISSUED:          0 USEFUL:          0 USELESS:          0
cpu0_L1D AVERAGE MISS LATENCY: 358.7 cycles
cpu0_L1D TOTAL        ACCESS:          0 HIT:          0 MISS:          0
cpu0_L1D LOAD         ACCESS:          0 HIT:          0 MISS:          0
cpu0_L1D RFO          ACCESS:          0 HIT:          0 MISS:          0
cpu0_L1D PREFETCH     ACCESS:          0 HIT:          0 MISS:          0
cpu0_L1D WRITE        ACCESS:          0 HIT:          0 MISS:          0
cpu0_L1D TRANSLATION  ACCESS:          0 HIT:          0 MISS:          0
cpu0_L1D PREFETCH REQUESTED:          0 ISSUED:          0 USEFUL:          0 USELESS:          0
cpu0_L1D AVERAGE MISS LATENCY: 358.7 cycles
cpu0_L1D TOTAL        ACCESS:          0 HIT:          0 MISS:          0
cpu0_L1D LOAD         ACCESS:          0 HIT:          0 MISS:          0
cpu0_L1D RFO          ACCESS:          0 HIT:          0 MISS:          0
cpu0_L1D PREFETCH     ACCESS:          0 HIT:          0 MISS:          0
cpu0_L1D WRITE        ACCESS:          0 HIT:          0 MISS:          0
cpu0_L1D TRANSLATION  ACCESS:          0 HIT:          0 MISS:          0
cpu0_L1D PREFETCH REQUESTED:          0 ISSUED:          0 USEFUL:          0 USELESS:          0
cpu0_L1D AVERAGE MISS LATENCY: 358.7 cycles
cpu0_L1D TOTAL        ACCESS:          0 HIT:          0 MISS:          0
cpu0_L1D LOAD         ACCESS:          0 HIT:          0 MISS:          0
cpu0_L1D RFO          ACCESS:          0 HIT:          0 MISS:          0
cpu0_L1D PREFETCH     ACCESS:          0 HIT:          0 MISS:          0
cpu0_L1D WRITE        ACCESS:          0 HIT:          0 MISS:          0
cpu0_L1D TRANSLATION  ACCESS:          0 HIT:          0 MISS:          0
cpu0_L1D PREFETCH REQUESTED:          0 ISSUED:          0 USEFUL:          0 USELESS:          0
cpu0_L1D AVERAGE MISS LATENCY: 358.7 cycles
cpu0_L1I TOTAL        ACCESS:    3855048 HIT:    3855048 MISS:          0
cpu0_L1I LOAD         ACCESS:    3855048 HIT:    3855048 MISS:          0
cpu0_L1I RFO          ACCESS:          0 HIT:          0 MISS:          0
cpu0_L1I PREFETCH     ACCESS:          0 HIT:          0 MISS:          0
cpu0_L1I WRITE        ACCESS:          0 HIT:          0 MISS:          0
cpu0_L1I TRANSLATION  ACCESS:          0 HIT:          0 MISS:          0
cpu0_L1I PREFETCH REQUESTED:          0 ISSUED:          0 USEFUL:          0 USELESS:          0
cpu0_L1I AVERAGE MISS LATENCY: -nan cycles
cpu0_L1I TOTAL        ACCESS:          0 HIT:          0 MISS:          0
cpu0_L1I LOAD         ACCESS:          0 HIT:          0 MISS:          0
cpu0_L1I RFO          ACCESS:          0 HIT:          0 MISS:          0
cpu0_L1I PREFETCH     ACCESS:          0 HIT:          0 MISS:          0
cpu0_L1I WRITE        ACCESS:          0 HIT:          0 MISS:          0
cpu0_L1I TRANSLATION  ACCESS:          0 HIT:          0 MISS:          0
cpu0_L1I PREFETCH REQUESTED:          0 ISSUED:          0 USEFUL:          0 USELESS:          0
cpu0_L1I AVERAGE MISS LATENCY: -nan cycles
cpu0_L1I TOTAL        ACCESS:          0 HIT:          0 MISS:          0
cpu0_L1I LOAD         ACCESS:          0 HIT:          0 MISS:          0
cpu0_L1I RFO          ACCESS:          0 HIT:          0 MISS:          0
cpu0_L1I PREFETCH     ACCESS:          0 HIT:          0 MISS:          0
cpu0_L1I WRITE        ACCESS:          0 HIT:          0 MISS:          0
cpu0_L1I TRANSLATION  ACCESS:          0 HIT:          0 MISS:          0
cpu0_L1I PREFETCH REQUESTED:          0 ISSUED:          0 USEFUL:          0 USELESS:          0
cpu0_L1I AVERAGE MISS LATENCY: -nan cycles
cpu0_L1I TOTAL        ACCESS:          0 HIT:          0 MISS:          0
cpu0_L1I LOAD         ACCESS:          0 HIT:          0 MISS:          0
cpu0_L1I RFO          ACCESS:          0 HIT:          0 MISS:          0
cpu0_L1I PREFETCH     ACCESS:          0 HIT:          0 MISS:          0
cpu0_L1I WRITE        ACCESS:          0 HIT:          0 MISS:          0
cpu0_L1I TRANSLATION  ACCESS:          0 HIT:          0 MISS:          0
cpu0_L1I PREFETCH REQUESTED:          0 ISSUED:          0 USEFUL:          0 USELESS:          0
cpu0_L1I AVERAGE MISS LATENCY: -nan cycles
cpu0_L2C TOTAL        ACCESS:     297806 HIT:     199361 MISS:      98445
cpu0_L2C LOAD         ACCESS:      24186 HIT:      19989 MISS:       4197
cpu0_L2C RFO          ACCESS:      16615 HIT:        792 MISS:      15823
cpu0_L2C PREFETCH     ACCESS:     240266 HIT:     161937 MISS:      78329
cpu0_L2C WRITE        ACCESS:      16643 HIT:      16643 MISS:          0
cpu0_L2C TRANSLATION  ACCESS:         96 HIT:          0 MISS:         96
cpu0_L2C PREFETCH REQUESTED:     240277 ISSUED:     240266 USEFUL:      21451 USELESS:       4402
cpu0_L2C AVERAGE MISS LATENCY: 1026 cycles
cpu0_L2C TOTAL        ACCESS:          0 HIT:          0 MISS:          0
cpu0_L2C LOAD         ACCESS:          0 HIT:          0 MISS:          0
cpu0_L2C RFO          ACCESS:          0 HIT:          0 MISS:          0
cpu0_L2C PREFETCH     ACCESS:          0 HIT:          0 MISS:          0
cpu0_L2C WRITE        ACCESS:          0 HIT:          0 MISS:          0
cpu0_L2C TRANSLATION  ACCESS:          0 HIT:          0 MISS:          0
cpu0_L2C PREFETCH REQUESTED:     240277 ISSUED:     240266 USEFUL:      21451 USELESS:       4402
cpu0_L2C AVERAGE MISS LATENCY: 1026 cycles
cpu0_L2C TOTAL        ACCESS:          0 HIT:          0 MISS:          0
cpu0_L2C LOAD         ACCESS:          0 HIT:          0 MISS:          0
cpu0_L2C RFO          ACCESS:          0 HIT:          0 MISS:          0
cpu0_L2C PREFETCH     ACCESS:          0 HIT:          0 MISS:          0
cpu0_L2C WRITE        ACCESS:          0 HIT:          0 MISS:          0
cpu0_L2C TRANSLATION  ACCESS:          0 HIT:          0 MISS:          0
cpu0_L2C PREFETCH REQUESTED:     240277 ISSUED:     240266 USEFUL:      21451 USELESS:       4402
cpu0_L2C AVERAGE MISS LATENCY: 1026 cycles
cpu0_L2C TOTAL        ACCESS:          0 HIT:          0 MISS:          0
cpu0_L2C LOAD         ACCESS:          0 HIT:          0 MISS:          0
cpu0_L2C RFO          ACCESS:          0 HIT:          0 MISS:          0
cpu0_L2C PREFETCH     ACCESS:          0 HIT:          0 MISS:          0
cpu0_L2C WRITE        ACCESS:          0 HIT:          0 MISS:          0
cpu0_L2C TRANSLATION  ACCESS:          0 HIT:          0 MISS:          0
cpu0_L2C PREFETCH REQUESTED:     240277 ISSUED:     240266 USEFUL:      21451 USELESS:       4402
cpu0_L2C AVERAGE MISS LATENCY: 1026 cycles
cpu0_STLB TOTAL        ACCESS:        930 HIT:         70 MISS:        860
cpu0_STLB LOAD         ACCESS:        930 HIT:         70 MISS:        860
cpu0_STLB RFO          ACCESS:          0 HIT:          0 MISS:          0
cpu0_STLB PREFETCH     ACCESS:          0 HIT:          0 MISS:          0
cpu0_STLB WRITE        ACCESS:          0 HIT:          0 MISS:          0
cpu0_STLB TRANSLATION  ACCESS:          0 HIT:          0 MISS:          0
cpu0_STLB PREFETCH REQUESTED:          0 ISSUED:          0 USEFUL:          0 USELESS:          0
cpu0_STLB AVERAGE MISS LATENCY: 505.9 cycles
cpu0_STLB TOTAL        ACCESS:          0 HIT:          0 MISS:          0
cpu0_STLB LOAD         ACCESS:          0 HIT:          0 MISS:          0
cpu0_STLB RFO          ACCESS:          0 HIT:          0 MISS:          0
cpu0_STLB PREFETCH     ACCESS:          0 HIT:          0 MISS:          0
cpu0_STLB WRITE        ACCESS:          0 HIT:          0 MISS:          0
cpu0_STLB TRANSLATION  ACCESS:          0 HIT:          0 MISS:          0
cpu0_STLB PREFETCH REQUESTED:          0 ISSUED:          0 USEFUL:          0 USELESS:          0
cpu0_STLB AVERAGE MISS LATENCY: 505.9 cycles
cpu0_STLB TOTAL        ACCESS:          0 HIT:          0 MISS:          0
cpu0_STLB LOAD         ACCESS:          0 HIT:          0 MISS:          0
cpu0_STLB RFO          ACCESS:          0 HIT:          0 MISS:          0
cpu0_STLB PREFETCH     ACCESS:          0 HIT:          0 MISS:          0
cpu0_STLB WRITE        ACCESS:          0 HIT:          0 MISS:          0
cpu0_STLB TRANSLATION  ACCESS:          0 HIT:          0 MISS:          0
cpu0_STLB PREFETCH REQUESTED:          0 ISSUED:          0 USEFUL:          0 USELESS:          0
cpu0_STLB AVERAGE MISS LATENCY: 505.9 cycles
cpu0_STLB TOTAL        ACCESS:          0 HIT:          0 MISS:          0
cpu0_STLB LOAD         ACCESS:          0 HIT:          0 MISS:          0
cpu0_STLB RFO          ACCESS:          0 HIT:          0 MISS:          0
cpu0_STLB PREFETCH     ACCESS:          0 HIT:          0 MISS:          0
cpu0_STLB WRITE        ACCESS:          0 HIT:          0 MISS:          0
cpu0_STLB TRANSLATION  ACCESS:          0 HIT:          0 MISS:          0
cpu0_STLB PREFETCH REQUESTED:          0 ISSUED:          0 USEFUL:          0 USELESS:          0
cpu0_STLB AVERAGE MISS LATENCY: 505.9 cycles
cpu1_DTLB TOTAL        ACCESS:          0 HIT:          0 MISS:          0
cpu1_DTLB LOAD         ACCESS:          0 HIT:          0 MISS:          0
cpu1_DTLB RFO          ACCESS:          0 HIT:          0 MISS:          0
cpu1_DTLB PREFETCH     ACCESS:          0 HIT:          0 MISS:          0
cpu1_DTLB WRITE        ACCESS:          0 HIT:          0 MISS:          0
cpu1_DTLB TRANSLATION  ACCESS:          0 HIT:          0 MISS:          0
cpu1_DTLB PREFETCH REQUESTED:          0 ISSUED:          0 USEFUL:          0 USELESS:          0
cpu1_DTLB AVERAGE MISS LATENCY: 9.891 cycles
cpu1_DTLB TOTAL        ACCESS:   22308543 HIT:   22054409 MISS:     254134
cpu1_DTLB LOAD         ACCESS:   22308543 HIT:   22054409 MISS:     254134
cpu1_DTLB RFO          ACCESS:          0 HIT:          0 MISS:          0
cpu1_DTLB PREFETCH     ACCESS:          0 HIT:          0 MISS:          0
cpu1_DTLB WRITE        ACCESS:          0 HIT:          0 MISS:          0
cpu1_DTLB TRANSLATION  ACCESS:          0 HIT:          0 MISS:          0
cpu1_DTLB PREFETCH REQUESTED:          0 ISSUED:          0 USEFUL:          0 USELESS:          0
cpu1_DTLB AVERAGE MISS LATENCY: 9.891 cycles
cpu1_DTLB TOTAL        ACCESS:          0 HIT:          0 MISS:          0
cpu1_DTLB LOAD         ACCESS:          0 HIT:          0 MISS:          0
cpu1_DTLB RFO          ACCESS:          0 HIT:          0 MISS:          0
cpu1_DTLB PREFETCH     ACCESS:          0 HIT:          0 MISS:          0
cpu1_DTLB WRITE        ACCESS:          0 HIT:          0 MISS:          0
cpu1_DTLB TRANSLATION  ACCESS:          0 HIT:          0 MISS:          0
cpu1_DTLB PREFETCH REQUESTED:          0 ISSUED:          0 USEFUL:          0 USELESS:          0
cpu1_DTLB AVERAGE MISS LATENCY: 9.891 cycles
cpu1_DTLB TOTAL        ACCESS:          0 HIT:          0 MISS:          0
cpu1_DTLB LOAD         ACCESS:          0 HIT:          0 MISS:          0
cpu1_DTLB RFO          ACCESS:          0 HIT:          0 MISS:          0
cpu1_DTLB PREFETCH     ACCESS:          0 HIT:          0 MISS:          0
cpu1_DTLB WRITE        ACCESS:          0 HIT:          0 MISS:          0
cpu1_DTLB TRANSLATION  ACCESS:          0 HIT:          0 MISS:          0
cpu1_DTLB PREFETCH REQUESTED:          0 ISSUED:          0 USEFUL:          0 USELESS:          0
cpu1_DTLB AVERAGE MISS LATENCY: 9.891 cycles
cpu1_ITLB TOTAL        ACCESS:          0 HIT:          0 MISS:          0
cpu1_ITLB LOAD         ACCESS:          0 HIT:          0 MISS:          0
cpu1_ITLB RFO          ACCESS:          0 HIT:          0 MISS:          0
cpu1_ITLB PREFETCH     ACCESS:          0 HIT:          0 MISS:          0
cpu1_ITLB WRITE        ACCESS:          0 HIT:          0 MISS:          0
cpu1_ITLB TRANSLATION  ACCESS:          0 HIT:          0 MISS:          0
cpu1_ITLB PREFETCH REQUESTED:          0 ISSUED:          0 USEFUL:          0 USELESS:          0
cpu1_ITLB AVERAGE MISS LATENCY: 64.96 cycles
cpu1_ITLB TOTAL        ACCESS:    2820735 HIT:    2817410 MISS:       3325
cpu1_ITLB LOAD         ACCESS:    2820735 HIT:    2817410 MISS:       3325
cpu1_ITLB RFO          ACCESS:          0 HIT:          0 MISS:          0
cpu1_ITLB PREFETCH     ACCESS:          0 HIT:          0 MISS:          0
cpu1_ITLB WRITE        ACCESS:          0 HIT:          0 MISS:          0
cpu1_ITLB TRANSLATION  ACCESS:          0 HIT:          0 MISS:          0
cpu1_ITLB PREFETCH REQUESTED:          0 ISSUED:          0 USEFUL:          0 USELESS:          0
cpu1_ITLB AVERAGE MISS LATENCY: 64.96 cycles
cpu1_ITLB TOTAL        ACCESS:          0 HIT:          0 MISS:          0
cpu1_ITLB LOAD         ACCESS:          0 HIT:          0 MISS:          0
cpu1_ITLB RFO          ACCESS:          0 HIT:          0 MISS:          0
cpu1_ITLB PREFETCH     ACCESS:          0 HIT:          0 MISS:          0
cpu1_ITLB WRITE        ACCESS:          0 HIT:          0 MISS:          0
cpu1_ITLB TRANSLATION  ACCESS:          0 HIT:          0 MISS:          0
cpu1_ITLB PREFETCH REQUESTED:          0 ISSUED:          0 USEFUL:          0 USELESS:          0
cpu1_ITLB AVERAGE MISS LATENCY: 64.96 cycles
cpu1_ITLB TOTAL        ACCESS:          0 HIT:          0 MISS:          0
cpu1_ITLB LOAD         ACCESS:          0 HIT:          0 MISS:          0
cpu1_ITLB RFO          ACCESS:          0 HIT:          0 MISS:          0
cpu1_ITLB PREFETCH     ACCESS:          0 HIT:          0 MISS:          0
cpu1_ITLB WRITE        ACCESS:          0 HIT:          0 MISS:          0
cpu1_ITLB TRANSLATION  ACCESS:          0 HIT:          0 MISS:          0
cpu1_ITLB PREFETCH REQUESTED:          0 ISSUED:          0 USEFUL:          0 USELESS:          0
cpu1_ITLB AVERAGE MISS LATENCY: 64.96 cycles
cpu1_L1D TOTAL        ACCESS:          0 HIT:          0 MISS:          0
cpu1_L1D LOAD         ACCESS:          0 HIT:          0 MISS:          0
cpu1_L1D RFO          ACCESS:          0 HIT:          0 MISS:          0
cpu1_L1D PREFETCH     ACCESS:          0 HIT:          0 MISS:          0
cpu1_L1D WRITE        ACCESS:          0 HIT:          0 MISS:          0
cpu1_L1D TRANSLATION  ACCESS:          0 HIT:          0 MISS:          0
cpu1_L1D PREFETCH REQUESTED:          0 ISSUED:          0 USEFUL:          0 USELESS:          0
cpu1_L1D AVERAGE MISS LATENCY: 410.1 cycles
cpu1_L1D TOTAL        ACCESS:   29338284 HIT:   25626249 MISS:    3712035
cpu1_L1D LOAD         ACCESS:   15200302 HIT:   14399108 MISS:     801194
cpu1_L1D RFO          ACCESS:          0 HIT:          0 MISS:          0
cpu1_L1D PREFETCH     ACCESS:          0 HIT:          0 MISS:          0
cpu1_L1D WRITE        ACCESS:   14125967 HIT:   11218853 MISS:    2907114
cpu1_L1D TRANSLATION  ACCESS:      12015 HIT:       8288 MISS:       3727
cpu1_L1D PREFETCH REQUESTED:          0 ISSUED:          0 USEFUL:          0 USELESS:          0
cpu1_L1D AVERAGE MISS LATENCY: 410.1 cycles
cpu1_L1D TOTAL        ACCESS:          0 HIT:          0 MISS:          0
cpu1_L1D LOAD         ACCESS:          0 HIT:          0 MISS:          0
cpu1_L1D RFO          ACCESS:          0 HIT:          0 MISS:          0
cpu1_L1D PREFETCH     ACCESS:          0 HIT:          0 MISS:          0
cpu1_L1D WRITE        ACCESS:          0 HIT:          0 MISS:          0
cpu1_L1D TRANSLATION  ACCESS:          0 HIT:          0 MISS:          0
cpu1_L1D PREFETCH REQUESTED:          0 ISSUED:          0 USEFUL:          0 USELESS:          0
cpu1_L1D AVERAGE MISS LATENCY: 410.1 cycles
cpu1_L1D TOTAL        ACCESS:          0 HIT:          0 MISS:          0
cpu1_L1D LOAD         ACCESS:          0 HIT:          0 MISS:          0
cpu1_L1D RFO          ACCESS:          0 HIT:          0 MISS:          0
cpu1_L1D PREFETCH     ACCESS:          0 HIT:          0 MISS:          0
cpu1_L1D WRITE        ACCESS:          0 HIT:          0 MISS:          0
cpu1_L1D TRANSLATION  ACCESS:          0 HIT:          0 MISS:          0
cpu1_L1D PREFETCH REQUESTED:          0 ISSUED:          0 USEFUL:          0 USELESS:          0
cpu1_L1D AVERAGE MISS LATENCY: 410.1 cycles
cpu1_L1I TOTAL        ACCESS:          0 HIT:          0 MISS:          0
cpu1_L1I LOAD         ACCESS:          0 HIT:          0 MISS:          0
cpu1_L1I RFO          ACCESS:          0 HIT:          0 MISS:          0
cpu1_L1I PREFETCH     ACCESS:          0 HIT:          0 MISS:          0
cpu1_L1I WRITE        ACCESS:          0 HIT:          0 MISS:          0
cpu1_L1I TRANSLATION  ACCESS:          0 HIT:          0 MISS:          0
cpu1_L1I PREFETCH REQUESTED:          0 ISSUED:          0 USEFUL:          0 USELESS:          0
cpu1_L1I AVERAGE MISS LATENCY: 141.8 cycles
cpu1_L1I TOTAL        ACCESS:    3619882 HIT:    3546114 MISS:      73768
cpu1_L1I LOAD         ACCESS:    3619882 HIT:    3546114 MISS:      73768
cpu1_L1I RFO          ACCESS:          0 HIT:          0 MISS:          0
cpu1_L1I PREFETCH     ACCESS:          0 HIT:          0 MISS:          0
cpu1_L1I WRITE        ACCESS:          0 HIT:          0 MISS:          0
cpu1_L1I TRANSLATION  ACCESS:          0 HIT:          0 MISS:          0
cpu1_L1I PREFETCH REQUESTED:          0 ISSUED:          0 USEFUL:          0 USELESS:          0
cpu1_L1I AVERAGE MISS LATENCY: 141.8 cycles
cpu1_L1I TOTAL        ACCESS:          0 HIT:          0 MISS:          0
cpu1_L1I LOAD         ACCESS:          0 HIT:          0 MISS:          0
cpu1_L1I RFO          ACCESS:          0 HIT:          0 MISS:          0
cpu1_L1I PREFETCH     ACCESS:          0 HIT:          0 MISS:          0
cpu1_L1I WRITE        ACCESS:          0 HIT:          0 MISS:          0
cpu1_L1I TRANSLATION  ACCESS:          0 HIT:          0 MISS:          0
cpu1_L1I PREFETCH REQUESTED:          0 ISSUED:          0 USEFUL:          0 USELESS:          0
cpu1_L1I AVERAGE MISS LATENCY: 141.8 cycles
cpu1_L1I TOTAL        ACCESS:          0 HIT:          0 MISS:          0
cpu1_L1I LOAD         ACCESS:          0 HIT:          0 MISS:          0
cpu1_L1I RFO          ACCESS:          0 HIT:          0 MISS:          0
cpu1_L1I PREFETCH     ACCESS:          0 HIT:          0 MISS:          0
cpu1_L1I WRITE        ACCESS:          0 HIT:          0 MISS:          0
cpu1_L1I TRANSLATION  ACCESS:          0 HIT:          0 MISS:          0
cpu1_L1I PREFETCH REQUESTED:          0 ISSUED:          0 USEFUL:          0 USELESS:          0
cpu1_L1I AVERAGE MISS LATENCY: 141.8 cycles
cpu1_L2C TOTAL        ACCESS:          0 HIT:          0 MISS:          0
cpu1_L2C LOAD         ACCESS:          0 HIT:          0 MISS:          0
cpu1_L2C RFO          ACCESS:          0 HIT:          0 MISS:          0
cpu1_L2C PREFETCH     ACCESS:          0 HIT:          0 MISS:          0
cpu1_L2C WRITE        ACCESS:          0 HIT:          0 MISS:          0
cpu1_L2C TRANSLATION  ACCESS:          0 HIT:          0 MISS:          0
cpu1_L2C PREFETCH REQUESTED:     825476 ISSUED:     648504 USEFUL:      21739 USELESS:      11953
cpu1_L2C AVERAGE MISS LATENCY: 1973 cycles
cpu1_L2C TOTAL        ACCESS:    2859829 HIT:    2080260 MISS:     779569
cpu1_L2C LOAD         ACCESS:     606320 HIT:     504840 MISS:     101480
cpu1_L2C RFO          ACCESS:     761975 HIT:     239308 MISS:     522667
cpu1_L2C PREFETCH     ACCESS:     648504 HIT:     495792 MISS:     152712
cpu1_L2C WRITE        ACCESS:     839338 HIT:     839254 MISS:         84
cpu1_L2C TRANSLATION  ACCESS:       3692 HIT:       1066 MISS:       2626
cpu1_L2C PREFETCH REQUESTED:     825476 ISSUED:     648504 USEFUL:      21739 USELESS:      11953
cpu1_L2C AVERAGE MISS LATENCY: 1973 cycles
cpu1_L2C TOTAL        ACCESS:          0 HIT:          0 MISS:          0
cpu1_L2C LOAD         ACCESS:          0 HIT:          0 MISS:          0
cpu1_L2C RFO          ACCESS:          0 HIT:          0 MISS:          0
cpu1_L2C PREFETCH     ACCESS:          0 HIT:          0 MISS:          0
cpu1_L2C WRITE        ACCESS:          0 HIT:          0 MISS:          0
cpu1_L2C TRANSLATION  ACCESS:          0 HIT:          0 MISS:          0
cpu1_L2C PREFETCH REQUESTED:     825476 ISSUED:     648504 USEFUL:      21739 USELESS:      11953
cpu1_L2C AVERAGE MISS LATENCY: 1973 cycles
cpu1_L2C TOTAL        ACCESS:          0 HIT:          0 MISS:          0
cpu1_L2C LOAD         ACCESS:          0 HIT:          0 MISS:          0
cpu1_L2C RFO          ACCESS:          0 HIT:          0 MISS:          0
cpu1_L2C PREFETCH     ACCESS:          0 HIT:          0 MISS:          0
cpu1_L2C WRITE        ACCESS:          0 HIT:          0 MISS:          0
cpu1_L2C TRANSLATION  ACCESS:          0 HIT:          0 MISS:          0
cpu1_L2C PREFETCH REQUESTED:     825476 ISSUED:     648504 USEFUL:      21739 USELESS:      11953
cpu1_L2C AVERAGE MISS LATENCY: 1973 cycles
cpu1_STLB TOTAL        ACCESS:          0 HIT:          0 MISS:          0
cpu1_STLB LOAD         ACCESS:          0 HIT:          0 MISS:          0
cpu1_STLB RFO          ACCESS:          0 HIT:          0 MISS:          0
cpu1_STLB PREFETCH     ACCESS:          0 HIT:          0 MISS:          0
cpu1_STLB WRITE        ACCESS:          0 HIT:          0 MISS:          0
cpu1_STLB TRANSLATION  ACCESS:          0 HIT:          0 MISS:          0
cpu1_STLB PREFETCH REQUESTED:          0 ISSUED:          0 USEFUL:          0 USELESS:          0
cpu1_STLB AVERAGE MISS LATENCY: 225.6 cycles
cpu1_STLB TOTAL        ACCESS:     105474 HIT:      93791 MISS:      11683
cpu1_STLB LOAD         ACCESS:     105474 HIT:      93791 MISS:      11683
cpu1_STLB RFO          ACCESS:          0 HIT:          0 MISS:          0
cpu1_STLB PREFETCH     ACCESS:          0 HIT:          0 MISS:          0
cpu1_STLB WRITE        ACCESS:          0 HIT:          0 MISS:          0
cpu1_STLB TRANSLATION  ACCESS:          0 HIT:          0 MISS:          0
cpu1_STLB PREFETCH REQUESTED:          0 ISSUED:          0 USEFUL:          0 USELESS:          0
cpu1_STLB AVERAGE MISS LATENCY: 225.6 cycles
cpu1_STLB TOTAL        ACCESS:          0 HIT:          0 MISS:          0
cpu1_STLB LOAD         ACCESS:          0 HIT:          0 MISS:          0
cpu1_STLB RFO          ACCESS:          0 HIT:          0 MISS:          0
cpu1_STLB PREFETCH     ACCESS:          0 HIT:          0 MISS:          0
cpu1_STLB WRITE        ACCESS:          0 HIT:          0 MISS:          0
cpu1_STLB TRANSLATION  ACCESS:          0 HIT:          0 MISS:          0
cpu1_STLB PREFETCH REQUESTED:          0 ISSUED:          0 USEFUL:          0 USELESS:          0
cpu1_STLB AVERAGE MISS LATENCY: 225.6 cycles
cpu1_STLB TOTAL        ACCESS:          0 HIT:          0 MISS:          0
cpu1_STLB LOAD         ACCESS:          0 HIT:          0 MISS:          0
cpu1_STLB RFO          ACCESS:          0 HIT:          0 MISS:          0
cpu1_STLB PREFETCH     ACCESS:          0 HIT:          0 MISS:          0
cpu1_STLB WRITE        ACCESS:          0 HIT:          0 MISS:          0
cpu1_STLB TRANSLATION  ACCESS:          0 HIT:          0 MISS:          0
cpu1_STLB PREFETCH REQUESTED:          0 ISSUED:          0 USEFUL:          0 USELESS:          0
cpu1_STLB AVERAGE MISS LATENCY: 225.6 cycles
cpu2_DTLB TOTAL        ACCESS:          0 HIT:          0 MISS:          0
cpu2_DTLB LOAD         ACCESS:          0 HIT:          0 MISS:          0
cpu2_DTLB RFO          ACCESS:          0 HIT:          0 MISS:          0
cpu2_DTLB PREFETCH     ACCESS:          0 HIT:          0 MISS:          0
cpu2_DTLB WRITE        ACCESS:          0 HIT:          0 MISS:          0
cpu2_DTLB TRANSLATION  ACCESS:          0 HIT:          0 MISS:          0
cpu2_DTLB PREFETCH REQUESTED:          0 ISSUED:          0 USEFUL:          0 USELESS:          0
cpu2_DTLB AVERAGE MISS LATENCY: 16.74 cycles
cpu2_DTLB TOTAL        ACCESS:          0 HIT:          0 MISS:          0
cpu2_DTLB LOAD         ACCESS:          0 HIT:          0 MISS:          0
cpu2_DTLB RFO          ACCESS:          0 HIT:          0 MISS:          0
cpu2_DTLB PREFETCH     ACCESS:          0 HIT:          0 MISS:          0
cpu2_DTLB WRITE        ACCESS:          0 HIT:          0 MISS:          0
cpu2_DTLB TRANSLATION  ACCESS:          0 HIT:          0 MISS:          0
cpu2_DTLB PREFETCH REQUESTED:          0 ISSUED:          0 USEFUL:          0 USELESS:          0
cpu2_DTLB AVERAGE MISS LATENCY: 16.74 cycles
cpu2_DTLB TOTAL        ACCESS:   27069759 HIT:   26819771 MISS:     249988
cpu2_DTLB LOAD         ACCESS:   27069759 HIT:   26819771 MISS:     249988
cpu2_DTLB RFO          ACCESS:          0 HIT:          0 MISS:          0
cpu2_DTLB PREFETCH     ACCESS:          0 HIT:          0 MISS:          0
cpu2_DTLB WRITE        ACCESS:          0 HIT:          0 MISS:          0
cpu2_DTLB TRANSLATION  ACCESS:          0 HIT:          0 MISS:          0
cpu2_DTLB PREFETCH REQUESTED:          0 ISSUED:          0 USEFUL:          0 USELESS:          0
cpu2_DTLB AVERAGE MISS LATENCY: 16.74 cycles
cpu2_DTLB TOTAL        ACCESS:          0 HIT:          0 MISS:          0
cpu2_DTLB LOAD         ACCESS:          0 HIT:          0 MISS:          0
cpu2_DTLB RFO          ACCESS:          0 HIT:          0 MISS:          0
cpu2_DTLB PREFETCH     ACCESS:          0 HIT:          0 MISS:          0
cpu2_DTLB WRITE        ACCESS:          0 HIT:          0 MISS:          0
cpu2_DTLB TRANSLATION  ACCESS:          0 HIT:          0 MISS:          0
cpu2_DTLB PREFETCH REQUESTED:          0 ISSUED:          0 USEFUL:          0 USELESS:          0
cpu2_DTLB AVERAGE MISS LATENCY: 16.74 cycles
cpu2_ITLB TOTAL        ACCESS:          0 HIT:          0 MISS:          0
cpu2_ITLB LOAD         ACCESS:          0 HIT:          0 MISS:          0
cpu2_ITLB RFO          ACCESS:          0 HIT:          0 MISS:          0
cpu2_ITLB PREFETCH     ACCESS:          0 HIT:          0 MISS:          0
cpu2_ITLB WRITE        ACCESS:          0 HIT:          0 MISS:          0
cpu2_ITLB TRANSLATION  ACCESS:          0 HIT:          0 MISS:          0
cpu2_ITLB PREFETCH REQUESTED:          0 ISSUED:          0 USEFUL:          0 USELESS:          0
cpu2_ITLB AVERAGE MISS LATENCY: 11.9 cycles
cpu2_ITLB TOTAL        ACCESS:          0 HIT:          0 MISS:          0
cpu2_ITLB LOAD         ACCESS:          0 HIT:          0 MISS:          0
cpu2_ITLB RFO          ACCESS:          0 HIT:          0 MISS:          0
cpu2_ITLB PREFETCH     ACCESS:          0 HIT:          0 MISS:          0
cpu2_ITLB WRITE        ACCESS:          0 HIT:          0 MISS:          0
cpu2_ITLB TRANSLATION  ACCESS:          0 HIT:          0 MISS:          0
cpu2_ITLB PREFETCH REQUESTED:          0 ISSUED:          0 USEFUL:          0 USELESS:          0
cpu2_ITLB AVERAGE MISS LATENCY: 11.9 cycles
cpu2_ITLB TOTAL        ACCESS:     448433 HIT:     437025 MISS:      11408
cpu2_ITLB LOAD         ACCESS:     448433 HIT:     437025 MISS:      11408
cpu2_ITLB RFO          ACCESS:          0 HIT:          0 MISS:          0
cpu2_ITLB PREFETCH     ACCESS:          0 HIT:          0 MISS:          0
cpu2_ITLB WRITE        ACCESS:          0 HIT:          0 MISS:          0
cpu2_ITLB TRANSLATION  ACCESS:          0 HIT:          0 MISS:          0
cpu2_ITLB PREFETCH REQUESTED:          0 ISSUED:          0 USEFUL:          0 USELESS:          0
cpu2_ITLB AVERAGE MISS LATENCY: 11.9 cycles
cpu2_ITLB TOTAL        ACCESS:          0 HIT:          0 MISS:          0
cpu2_ITLB LOAD         ACCESS:          0 HIT:          0 MISS:          0
cpu2_ITLB RFO          ACCESS:          0 HIT:          0 MISS:          0
cpu2_ITLB PREFETCH     ACCESS:          0 HIT:          0 MISS:          0
cpu2_ITLB WRITE        ACCESS:          0 HIT:          0 MISS:          0
cpu2_ITLB TRANSLATION  ACCESS:          0 HIT:          0 MISS:          0
cpu2_ITLB PREFETCH REQUESTED:          0 ISSUED:          0 USEFUL:          0 USELESS:          0
cpu2_ITLB AVERAGE MISS LATENCY: 11.9 cycles
cpu2_L1D TOTAL        ACCESS:          0 HIT:          0 MISS:          0
cpu2_L1D LOAD         ACCESS:          0 HIT:          0 MISS:          0
cpu2_L1D RFO          ACCESS:          0 HIT:          0 MISS:          0
cpu2_L1D PREFETCH     ACCESS:          0 HIT:          0 MISS:          0
cpu2_L1D WRITE        ACCESS:          0 HIT:          0 MISS:          0
cpu2_L1D TRANSLATION  ACCESS:          0 HIT:          0 MISS:          0
cpu2_L1D PREFETCH REQUESTED:          0 ISSUED:          0 USEFUL:          0 USELESS:          0
cpu2_L1D AVERAGE MISS LATENCY: 104.3 cycles
cpu2_L1D TOTAL        ACCESS:          0 HIT:          0 MISS:          0
cpu2_L1D LOAD         ACCESS:          0 HIT:          0 MISS:          0
cpu2_L1D RFO          ACCESS:          0 HIT:          0 MISS:          0
cpu2_L1D PREFETCH     ACCESS:          0 HIT:          0 MISS:          0
cpu2_L1D WRITE        ACCESS:          0 HIT:          0 MISS:          0
cpu2_L1D TRANSLATION  ACCESS:          0 HIT:          0 MISS:          0
cpu2_L1D PREFETCH REQUESTED:          0 ISSUED:          0 USEFUL:          0 USELESS:          0
cpu2_L1D AVERAGE MISS LATENCY: 104.3 cycles
cpu2_L1D TOTAL        ACCESS:   33570517 HIT:   26422491 MISS:    7148026
cpu2_L1D LOAD         ACCESS:   20073687 HIT:   16921074 MISS:    3152613
cpu2_L1D RFO          ACCESS:          0 HIT:          0 MISS:          0
cpu2_L1D PREFETCH     ACCESS:          0 HIT:          0 MISS:          0
cpu2_L1D WRITE        ACCESS:   13485286 HIT:    9498984 MISS:    3986302
cpu2_L1D TRANSLATION  ACCESS:      11544 HIT:       2433 MISS:       9111
cpu2_L1D PREFETCH REQUESTED:          0 ISSUED:          0 USEFUL:          0 USELESS:          0
cpu2_L1D AVERAGE MISS LATENCY: 104.3 cycles
cpu2_L1D TOTAL        ACCESS:          0 HIT:          0 MISS:          0
cpu2_L1D LOAD         ACCESS:          0 HIT:          0 MISS:          0
cpu2_L1D RFO          ACCESS:          0 HIT:          0 MISS:          0
cpu2_L1D PREFETCH     ACCESS:          0 HIT:          0 MISS:          0
cpu2_L1D WRITE        ACCESS:          0 HIT:          0 MISS:          0
cpu2_L1D TRANSLATION  ACCESS:          0 HIT:          0 MISS:          0
cpu2_L1D PREFETCH REQUESTED:          0 ISSUED:          0 USEFUL:          0 USELESS:          0
cpu2_L1D AVERAGE MISS LATENCY: 104.3 cycles
cpu2_L1I TOTAL        ACCESS:          0 HIT:          0 MISS:          0
cpu2_L1I LOAD         ACCESS:          0 HIT:          0 MISS:          0
cpu2_L1I RFO          ACCESS:          0 HIT:          0 MISS:          0
cpu2_L1I PREFETCH     ACCESS:          0 HIT:          0 MISS:          0
cpu2_L1I WRITE        ACCESS:          0 HIT:          0 MISS:          0
cpu2_L1I TRANSLATION  ACCESS:          0 HIT:          0 MISS:          0
cpu2_L1I PREFETCH REQUESTED:          0 ISSUED:          0 USEFUL:          0 USELESS:          0
cpu2_L1I AVERAGE MISS LATENCY: 38.49 cycles
cpu2_L1I TOTAL        ACCESS:          0 HIT:          0 MISS:          0
cpu2_L1I LOAD         ACCESS:          0 HIT:          0 MISS:          0
cpu2_L1I RFO          ACCESS:          0 HIT:          0 MISS:          0
cpu2_L1I PREFETCH     ACCESS:          0 HIT:          0 MISS:          0
cpu2_L1I WRITE        ACCESS:          0 HIT:          0 MISS:          0
cpu2_L1I TRANSLATION  ACCESS:          0 HIT:          0 MISS:          0
cpu2_L1I PREFETCH REQUESTED:          0 ISSUED:          0 USEFUL:          0 USELESS:          0
cpu2_L1I AVERAGE MISS LATENCY: 38.49 cycles
cpu2_L1I TOTAL        ACCESS:     551752 HIT:     356980 MISS:     194772
cpu2_L1I LOAD         ACCESS:     551752 HIT:     356980 MISS:     194772
cpu2_L1I RFO          ACCESS:          0 HIT:          0 MISS:          0
cpu2_L1I PREFETCH     ACCESS:          0 HIT:          0 MISS:          0
cpu2_L1I WRITE        ACCESS:          0 HIT:          0 MISS:          0
cpu2_L1I TRANSLATION  ACCESS:          0 HIT:          0 MISS:          0
cpu2_L1I PREFETCH REQUESTED:          0 ISSUED:          0 USEFUL:          0 USELESS:          0
cpu2_L1I AVERAGE MISS LATENCY: 38.49 cycles
cpu2_L1I TOTAL        ACCESS:          0 HIT:          0 MISS:          0
cpu2_L1I LOAD         ACCESS:          0 HIT:          0 MISS:          0
cpu2_L1I RFO          ACCESS:          0 HIT:          0 MISS:          0
cpu2_L1I PREFETCH     ACCESS:          0 HIT:          0 MISS:          0
cpu2_L1I WRITE        ACCESS:          0 HIT:          0 MISS:          0
cpu2_L1I TRANSLATION  ACCESS:          0 HIT:          0 MISS:          0
cpu2_L1I PREFETCH REQUESTED:          0 ISSUED:          0 USEFUL:          0 USELESS:          0
cpu2_L1I AVERAGE MISS LATENCY: 38.49 cycles
cpu2_L2C TOTAL        ACCESS:          0 HIT:          0 MISS:          0
cpu2_L2C LOAD         ACCESS:          0 HIT:          0 MISS:          0
cpu2_L2C RFO          ACCESS:          0 HIT:          0 MISS:          0
cpu2_L2C PREFETCH     ACCESS:          0 HIT:          0 MISS:          0
cpu2_L2C WRITE        ACCESS:          0 HIT:          0 MISS:          0
cpu2_L2C TRANSLATION  ACCESS:          0 HIT:          0 MISS:          0
cpu2_L2C PREFETCH REQUESTED:    5597515 ISSUED:    4888763 USEFUL:     426998 USELESS:     121918
cpu2_L2C AVERAGE MISS LATENCY: 327.4 cycles
cpu2_L2C TOTAL        ACCESS:          0 HIT:          0 MISS:          0
cpu2_L2C LOAD         ACCESS:          0 HIT:          0 MISS:          0
cpu2_L2C RFO          ACCESS:          0 HIT:          0 MISS:          0
cpu2_L2C PREFETCH     ACCESS:          0 HIT:          0 MISS:          0
cpu2_L2C WRITE        ACCESS:          0 HIT:          0 MISS:          0
cpu2_L2C TRANSLATION  ACCESS:          0 HIT:          0 MISS:          0
cpu2_L2C PREFETCH REQUESTED:    5597515 ISSUED:    4888763 USEFUL:     426998 USELESS:     121918
cpu2_L2C AVERAGE MISS LATENCY: 327.4 cycles
cpu2_L2C TOTAL        ACCESS:    9323804 HIT:    6570716 MISS:    2753088
cpu2_L2C LOAD         ACCESS:    2090850 HIT:    1559989 MISS:     530861
cpu2_L2C RFO          ACCESS:     993820 HIT:     579973 MISS:     413847
cpu2_L2C PREFETCH     ACCESS:    4888763 HIT:    3087476 MISS:    1801287
cpu2_L2C WRITE        ACCESS:    1341430 HIT:    1340765 MISS:        665
cpu2_L2C TRANSLATION  ACCESS:       8941 HIT:       2513 MISS:       6428
cpu2_L2C PREFETCH REQUESTED:    5597515 ISSUED:    4888763 USEFUL:     426998 USELESS:     121918
cpu2_L2C AVERAGE MISS LATENCY: 327.4 cycles
cpu2_L2C TOTAL        ACCESS:          0 HIT:          0 MISS:          0
cpu2_L2C LOAD         ACCESS:          0 HIT:          0 MISS:          0
cpu2_L2C RFO          ACCESS:          0 HIT:          0 MISS:          0
cpu2_L2C PREFETCH     ACCESS:          0 HIT:          0 MISS:          0
cpu2_L2C WRITE        ACCESS:          0 HIT:          0 MISS:          0
cpu2_L2C TRANSLATION  ACCESS:          0 HIT:          0 MISS:          0
cpu2_L2C PREFETCH REQUESTED:    5597515 ISSUED:    4888763 USEFUL:     426998 USELESS:     121918
cpu2_L2C AVERAGE MISS LATENCY: 327.4 cycles
cpu2_STLB TOTAL        ACCESS:          0 HIT:          0 MISS:          0
cpu2_STLB LOAD         ACCESS:          0 HIT:          0 MISS:          0
cpu2_STLB RFO          ACCESS:          0 HIT:          0 MISS:          0
cpu2_STLB PREFETCH     ACCESS:          0 HIT:          0 MISS:          0
cpu2_STLB WRITE        ACCESS:          0 HIT:          0 MISS:          0
cpu2_STLB TRANSLATION  ACCESS:          0 HIT:          0 MISS:          0
cpu2_STLB PREFETCH REQUESTED:          0 ISSUED:          0 USEFUL:          0 USELESS:          0
cpu2_STLB AVERAGE MISS LATENCY: 511.7 cycles
cpu2_STLB TOTAL        ACCESS:          0 HIT:          0 MISS:          0
cpu2_STLB LOAD         ACCESS:          0 HIT:          0 MISS:          0
cpu2_STLB RFO          ACCESS:          0 HIT:          0 MISS:          0
cpu2_STLB PREFETCH     ACCESS:          0 HIT:          0 MISS:          0
cpu2_STLB WRITE        ACCESS:          0 HIT:          0 MISS:          0
cpu2_STLB TRANSLATION  ACCESS:          0 HIT:          0 MISS:          0
cpu2_STLB PREFETCH REQUESTED:          0 ISSUED:          0 USEFUL:          0 USELESS:          0
cpu2_STLB AVERAGE MISS LATENCY: 511.7 cycles
cpu2_STLB TOTAL        ACCESS:     104753 HIT:      95100 MISS:       9653
cpu2_STLB LOAD         ACCESS:     104753 HIT:      95100 MISS:       9653
cpu2_STLB RFO          ACCESS:          0 HIT:          0 MISS:          0
cpu2_STLB PREFETCH     ACCESS:          0 HIT:          0 MISS:          0
cpu2_STLB WRITE        ACCESS:          0 HIT:          0 MISS:          0
cpu2_STLB TRANSLATION  ACCESS:          0 HIT:          0 MISS:          0
cpu2_STLB PREFETCH REQUESTED:          0 ISSUED:          0 USEFUL:          0 USELESS:          0
cpu2_STLB AVERAGE MISS LATENCY: 511.7 cycles
cpu2_STLB TOTAL        ACCESS:          0 HIT:          0 MISS:          0
cpu2_STLB LOAD         ACCESS:          0 HIT:          0 MISS:          0
cpu2_STLB RFO          ACCESS:          0 HIT:          0 MISS:          0
cpu2_STLB PREFETCH     ACCESS:          0 HIT:          0 MISS:          0
cpu2_STLB WRITE        ACCESS:          0 HIT:          0 MISS:          0
cpu2_STLB TRANSLATION  ACCESS:          0 HIT:          0 MISS:          0
cpu2_STLB PREFETCH REQUESTED:          0 ISSUED:          0 USEFUL:          0 USELESS:          0
cpu2_STLB AVERAGE MISS LATENCY: 511.7 cycles
cpu3_DTLB TOTAL        ACCESS:          0 HIT:          0 MISS:          0
cpu3_DTLB LOAD         ACCESS:          0 HIT:          0 MISS:          0
cpu3_DTLB RFO          ACCESS:          0 HIT:          0 MISS:          0
cpu3_DTLB PREFETCH     ACCESS:          0 HIT:          0 MISS:          0
cpu3_DTLB WRITE        ACCESS:          0 HIT:          0 MISS:          0
cpu3_DTLB TRANSLATION  ACCESS:          0 HIT:          0 MISS:          0
cpu3_DTLB PREFETCH REQUESTED:          0 ISSUED:          0 USEFUL:          0 USELESS:          0
cpu3_DTLB AVERAGE MISS LATENCY: 28.66 cycles
cpu3_DTLB TOTAL        ACCESS:          0 HIT:          0 MISS:          0
cpu3_DTLB LOAD         ACCESS:          0 HIT:          0 MISS:          0
cpu3_DTLB RFO          ACCESS:          0 HIT:          0 MISS:          0
cpu3_DTLB PREFETCH     ACCESS:          0 HIT:          0 MISS:          0
cpu3_DTLB WRITE        ACCESS:          0 HIT:          0 MISS:          0
cpu3_DTLB TRANSLATION  ACCESS:          0 HIT:          0 MISS:          0
cpu3_DTLB PREFETCH REQUESTED:          0 ISSUED:          0 USEFUL:          0 USELESS:          0
cpu3_DTLB AVERAGE MISS LATENCY: 28.66 cycles
cpu3_DTLB TOTAL        ACCESS:          0 HIT:          0 MISS:          0
cpu3_DTLB LOAD         ACCESS:          0 HIT:          0 MISS:          0
cpu3_DTLB RFO          ACCESS:          0 HIT:          0 MISS:          0
cpu3_DTLB PREFETCH     ACCESS:          0 HIT:          0 MISS:          0
cpu3_DTLB WRITE        ACCESS:          0 HIT:          0 MISS:          0
cpu3_DTLB TRANSLATION  ACCESS:          0 HIT:          0 MISS:          0
cpu3_DTLB PREFETCH REQUESTED:          0 ISSUED:          0 USEFUL:          0 USELESS:          0
cpu3_DTLB AVERAGE MISS LATENCY: 28.66 cycles
cpu3_DTLB TOTAL        ACCESS:   29804909 HIT:   29790130 MISS:      14779
cpu3_DTLB LOAD         ACCESS:   29804909 HIT:   29790130 MISS:      14779
cpu3_DTLB RFO          ACCESS:          0 HIT:          0 MISS:          0
cpu3_DTLB PREFETCH     ACCESS:          0 HIT:          0 MISS:          0
cpu3_DTLB WRITE        ACCESS:          0 HIT:          0 MISS:          0
cpu3_DTLB TRANSLATION  ACCESS:          0 HIT:          0 MISS:          0
cpu3_DTLB PREFETCH REQUESTED:          0 ISSUED:          0 USEFUL:          0 USELESS:          0
cpu3_DTLB AVERAGE MISS LATENCY: 28.66 cycles
cpu3_ITLB TOTAL        ACCESS:          0 HIT:          0 MISS:          0
cpu3_ITLB LOAD         ACCESS:          0 HIT:          0 MISS:          0
cpu3_ITLB RFO          ACCESS:          0 HIT:          0 MISS:          0
cpu3_ITLB PREFETCH     ACCESS:          0 HIT:          0 MISS:          0
cpu3_ITLB WRITE        ACCESS:          0 HIT:          0 MISS:          0
cpu3_ITLB TRANSLATION  ACCESS:          0 HIT:          0 MISS:          0
cpu3_ITLB PREFETCH REQUESTED:          0 ISSUED:          0 USEFUL:          0 USELESS:          0
cpu3_ITLB AVERAGE MISS LATENCY: -nan cycles
cpu3_ITLB TOTAL        ACCESS:          0 HIT:          0 MISS:          0
cpu3_ITLB LOAD         ACCESS:          0 HIT:          0 MISS:          0
cpu3_ITLB RFO          ACCESS:          0 HIT:          0 MISS:          0
cpu3_ITLB PREFETCH     ACCESS:          0 HIT:          0 MISS:          0
cpu3_ITLB WRITE        ACCESS:          0 HIT:          0 MISS:          0
cpu3_ITLB TRANSLATION  ACCESS:          0 HIT:          0 MISS:          0
cpu3_ITLB PREFETCH REQUESTED:          0 ISSUED:          0 USEFUL:          0 USELESS:          0
cpu3_ITLB AVERAGE MISS LATENCY: -nan cycles
cpu3_ITLB TOTAL        ACCESS:          0 HIT:          0 MISS:          0
cpu3_ITLB LOAD         ACCESS:          0 HIT:          0 MISS:          0
cpu3_ITLB RFO          ACCESS:          0 HIT:          0 MISS:          0
cpu3_ITLB PREFETCH     ACCESS:          0 HIT:          0 MISS:          0
cpu3_ITLB WRITE        ACCESS:          0 HIT:          0 MISS:          0
cpu3_ITLB TRANSLATION  ACCESS:          0 HIT:          0 MISS:          0
cpu3_ITLB PREFETCH REQUESTED:          0 ISSUED:          0 USEFUL:          0 USELESS:          0
cpu3_ITLB AVERAGE MISS LATENCY: -nan cycles
cpu3_ITLB TOTAL        ACCESS:     844107 HIT:     844107 MISS:          0
cpu3_ITLB LOAD         ACCESS:     844107 HIT:     844107 MISS:          0
cpu3_ITLB RFO          ACCESS:          0 HIT:          0 MISS:          0
cpu3_ITLB PREFETCH     ACCESS:          0 HIT:          0 MISS:          0
cpu3_ITLB WRITE        ACCESS:          0 HIT:          0 MISS:          0
cpu3_ITLB TRANSLATION  ACCESS:          0 HIT:          0 MISS:          0
cpu3_ITLB PREFETCH REQUESTED:          0 ISSUED:          0 USEFUL:          0 USELESS:          0
cpu3_ITLB AVERAGE MISS LATENCY: -nan cycles
cpu3_L1D TOTAL        ACCESS:          0 HIT:          0 MISS:          0
cpu3_L1D LOAD         ACCESS:          0 HIT:          0 MISS:          0
cpu3_L1D RFO          ACCESS:          0 HIT:          0 MISS:          0
cpu3_L1D PREFETCH     ACCESS:          0 HIT:          0 MISS:          0
cpu3_L1D WRITE        ACCESS:          0 HIT:          0 MISS:          0
cpu3_L1D TRANSLATION  ACCESS:          0 HIT:          0 MISS:          0
cpu3_L1D PREFETCH REQUESTED:          0 ISSUED:          0 USEFUL:          0 USELESS:          0
cpu3_L1D AVERAGE MISS LATENCY: 372.7 cycles
cpu3_L1D TOTAL        ACCESS:          0 HIT:          0 MISS:          0
cpu3_L1D LOAD         ACCESS:          0 HIT:          0 MISS:          0
cpu3_L1D RFO          ACCESS:          0 HIT:          0 MISS:          0
cpu3_L1D PREFETCH     ACCESS:          0 HIT:          0 MISS:          0
cpu3_L1D WRITE        ACCESS:          0 HIT:          0 MISS:          0
cpu3_L1D TRANSLATION  ACCESS:          0 HIT:          0 MISS:          0
cpu3_L1D PREFETCH REQUESTED:          0 ISSUED:          0 USEFUL:          0 USELESS:          0
cpu3_L1D AVERAGE MISS LATENCY: 372.7 cycles
cpu3_L1D TOTAL        ACCESS:          0 HIT:          0 MISS:          0
cpu3_L1D LOAD         ACCESS:          0 HIT:          0 MISS:          0
cpu3_L1D RFO          ACCESS:          0 HIT:          0 MISS:          0
cpu3_L1D PREFETCH     ACCESS:          0 HIT:          0 MISS:          0
cpu3_L1D WRITE        ACCESS:          0 HIT:          0 MISS:          0
cpu3_L1D TRANSLATION  ACCESS:          0 HIT:          0 MISS:          0
cpu3_L1D PREFETCH REQUESTED:          0 ISSUED:          0 USEFUL:          0 USELESS:          0
cpu3_L1D AVERAGE MISS LATENCY: 372.7 cycles
cpu3_L1D TOTAL        ACCESS:   36621287 HIT:   36595215 MISS:      26072
cpu3_L1D LOAD         ACCESS:   27360322 HIT:   27355935 MISS:       4387
cpu3_L1D RFO          ACCESS:          0 HIT:          0 MISS:          0
cpu3_L1D PREFETCH     ACCESS:          0 HIT:          0 MISS:          0
cpu3_L1D WRITE        ACCESS:    9260694 HIT:    9239251 MISS:      21443
cpu3_L1D TRANSLATION  ACCESS:        271 HIT:         29 MISS:        242
cpu3_L1D PREFETCH REQUESTED:          0 ISSUED:          0 USEFUL:          0 USELESS:          0
cpu3_L1D AVERAGE MISS LATENCY: 372.7 cycles
cpu3_L1I TOTAL        ACCESS:          0 HIT:          0 MISS:          0
cpu3_L1I LOAD         ACCESS:          0 HIT:          0 MISS:          0
cpu3_L1I RFO          ACCESS:          0 HIT:          0 MISS:          0
cpu3_L1I PREFETCH     ACCESS:          0 HIT:          0 MISS:          0
cpu3_L1I WRITE        ACCESS:          0 HIT:          0 MISS:          0
cpu3_L1I TRANSLATION  ACCESS:          0 HIT:          0 MISS:          0
cpu3_L1I PREFETCH REQUESTED:          0 ISSUED:          0 USEFUL:          0 USELESS:          0
cpu3_L1I AVERAGE MISS LATENCY: 7.522 cycles
cpu3_L1I TOTAL        ACCESS:          0 HIT:          0 MISS:          0
cpu3_L1I LOAD         ACCESS:          0 HIT:          0 MISS:          0
cpu3_L1I RFO          ACCESS:          0 HIT:          0 MISS:          0
cpu3_L1I PREFETCH     ACCESS:          0 HIT:          0 MISS:          0
cpu3_L1I WRITE        ACCESS:          0 HIT:          0 MISS:          0
cpu3_L1I TRANSLATION  ACCESS:          0 HIT:          0 MISS:          0
cpu3_L1I PREFETCH REQUESTED:          0 ISSUED:          0 USEFUL:          0 USELESS:          0
cpu3_L1I AVERAGE MISS LATENCY: 7.522 cycles
cpu3_L1I TOTAL        ACCESS:          0 HIT:          0 MISS:          0
cpu3_L1I LOAD         ACCESS:          0 HIT:          0 MISS:          0
cpu3_L1I RFO          ACCESS:          0 HIT:          0 MISS:          0
cpu3_L1I PREFETCH     ACCESS:          0 HIT:          0 MISS:          0
cpu3_L1I WRITE        ACCESS:          0 HIT:          0 MISS:          0
cpu3_L1I TRANSLATION  ACCESS:          0 HIT:          0 MISS:          0
cpu3_L1I PREFETCH REQUESTED:          0 ISSUED:          0 USEFUL:          0 USELESS:          0
cpu3_L1I AVERAGE MISS LATENCY: 7.522 cycles
cpu3_L1I TOTAL        ACCESS:     939926 HIT:     937576 MISS:       2350
cpu3_L1I LOAD         ACCESS:     939926 HIT:     937576 MISS:       2350
cpu3_L1I RFO          ACCESS:          0 HIT:          0 MISS:          0
cpu3_L1I PREFETCH     ACCESS:          0 HIT:          0 MISS:          0
cpu3_L1I WRITE        ACCESS:          0 HIT:          0 MISS:          0
cpu3_L1I TRANSLATION  ACCESS:          0 HIT:          0 MISS:          0
cpu3_L1I PREFETCH REQUESTED:          0 ISSUED:          0 USEFUL:          0 USELESS:          0
cpu3_L1I AVERAGE MISS LATENCY: 7.522 cycles
cpu3_L2C TOTAL        ACCESS:          0 HIT:          0 MISS:          0
cpu3_L2C LOAD         ACCESS:          0 HIT:          0 MISS:          0
cpu3_L2C RFO          ACCESS:          0 HIT:          0 MISS:          0
cpu3_L2C PREFETCH     ACCESS:          0 HIT:          0 MISS:          0
cpu3_L2C WRITE        ACCESS:          0 HIT:          0 MISS:          0
cpu3_L2C TRANSLATION  ACCESS:          0 HIT:          0 MISS:          0
cpu3_L2C PREFETCH REQUESTED:       5147 ISSUED:       5147 USEFUL:       1146 USELESS:          8
cpu3_L2C AVERAGE MISS LATENCY: 1587 cycles
cpu3_L2C TOTAL        ACCESS:          0 HIT:          0 MISS:          0
cpu3_L2C LOAD         ACCESS:          0 HIT:          0 MISS:          0
cpu3_L2C RFO          ACCESS:          0 HIT:          0 MISS:          0
cpu3_L2C PREFETCH     ACCESS:          0 HIT:          0 MISS:          0
cpu3_L2C WRITE        ACCESS:          0 HIT:          0 MISS:          0
cpu3_L2C TRANSLATION  ACCESS:          0 HIT:          0 MISS:          0
cpu3_L2C PREFETCH REQUESTED:       5147 ISSUED:       5147 USEFUL:       1146 USELESS:          8
cpu3_L2C AVERAGE MISS LATENCY: 1587 cycles
cpu3_L2C TOTAL        ACCESS:          0 HIT:          0 MISS:          0
cpu3_L2C LOAD         ACCESS:          0 HIT:          0 MISS:          0
cpu3_L2C RFO          ACCESS:          0 HIT:          0 MISS:          0
cpu3_L2C PREFETCH     ACCESS:          0 HIT:          0 MISS:          0
cpu3_L2C WRITE        ACCESS:          0 HIT:          0 MISS:          0
cpu3_L2C TRANSLATION  ACCESS:          0 HIT:          0 MISS:          0
cpu3_L2C PREFETCH REQUESTED:       5147 ISSUED:       5147 USEFUL:       1146 USELESS:          8
cpu3_L2C AVERAGE MISS LATENCY: 1587 cycles
cpu3_L2C TOTAL        ACCESS:      19232 HIT:       8873 MISS:      10359
cpu3_L2C LOAD         ACCESS:       4595 HIT:       3007 MISS:       1588
cpu3_L2C RFO          ACCESS:       4220 HIT:        179 MISS:       4041
cpu3_L2C PREFETCH     ACCESS:       5147 HIT:        586 MISS:       4561
cpu3_L2C WRITE        ACCESS:       5028 HIT:       5018 MISS:         10
cpu3_L2C TRANSLATION  ACCESS:        242 HIT:         83 MISS:        159
cpu3_L2C PREFETCH REQUESTED:       5147 ISSUED:       5147 USEFUL:       1146 USELESS:          8
cpu3_L2C AVERAGE MISS LATENCY: 1587 cycles
cpu3_STLB TOTAL        ACCESS:          0 HIT:          0 MISS:          0
cpu3_STLB LOAD         ACCESS:          0 HIT:          0 MISS:          0
cpu3_STLB RFO          ACCESS:          0 HIT:          0 MISS:          0
cpu3_STLB PREFETCH     ACCESS:          0 HIT:          0 MISS:          0
cpu3_STLB WRITE        ACCESS:          0 HIT:          0 MISS:          0
cpu3_STLB TRANSLATION  ACCESS:          0 HIT:          0 MISS:          0
cpu3_STLB PREFETCH REQUESTED:          0 ISSUED:          0 USEFUL:          0 USELESS:          0
cpu3_STLB AVERAGE MISS LATENCY: 1563 cycles
cpu3_STLB TOTAL        ACCESS:          0 HIT:          0 MISS:          0
cpu3_STLB LOAD         ACCESS:          0 HIT:          0 MISS:          0
cpu3_STLB RFO          ACCESS:          0 HIT:          0 MISS:          0
cpu3_STLB PREFETCH     ACCESS:          0 HIT:          0 MISS:          0
cpu3_STLB WRITE        ACCESS:          0 HIT:          0 MISS:          0
cpu3_STLB TRANSLATION  ACCESS:          0 HIT:          0 MISS:          0
cpu3_STLB PREFETCH REQUESTED:          0 ISSUED:          0 USEFUL:          0 USELESS:          0
cpu3_STLB AVERAGE MISS LATENCY: 1563 cycles
cpu3_STLB TOTAL        ACCESS:          0 HIT:          0 MISS:          0
cpu3_STLB LOAD         ACCESS:          0 HIT:          0 MISS:          0
cpu3_STLB RFO          ACCESS:          0 HIT:          0 MISS:          0
cpu3_STLB PREFETCH     ACCESS:          0 HIT:          0 MISS:          0
cpu3_STLB WRITE        ACCESS:          0 HIT:          0 MISS:          0
cpu3_STLB TRANSLATION  ACCESS:          0 HIT:          0 MISS:          0
cpu3_STLB PREFETCH REQUESTED:          0 ISSUED:          0 USEFUL:          0 USELESS:          0
cpu3_STLB AVERAGE MISS LATENCY: 1563 cycles
cpu3_STLB TOTAL        ACCESS:      12764 HIT:      12494 MISS:        270
cpu3_STLB LOAD         ACCESS:      12764 HIT:      12494 MISS:        270
cpu3_STLB RFO          ACCESS:          0 HIT:          0 MISS:          0
cpu3_STLB PREFETCH     ACCESS:          0 HIT:          0 MISS:          0
cpu3_STLB WRITE        ACCESS:          0 HIT:          0 MISS:          0
cpu3_STLB TRANSLATION  ACCESS:          0 HIT:          0 MISS:          0
cpu3_STLB PREFETCH REQUESTED:          0 ISSUED:          0 USEFUL:          0 USELESS:          0
cpu3_STLB AVERAGE MISS LATENCY: 1563 cycles

Region of Interest Statistics

CPU 0 cumulative IPC: 2.713 instructions: 150000004 cycles: 55286224
CPU 0 Branch Prediction Accuracy: 95.09% MPKI: 8.053 Average ROB Occupancy at Mispredict: 91.41
Branch type MPKI
BRANCH_DIRECT_JUMP: 0.154
BRANCH_INDIRECT: 0
BRANCH_CONDITIONAL: 6.66
BRANCH_DIRECT_CALL: 0
BRANCH_INDIRECT_CALL: 0
BRANCH_RETURN: 1.24


CPU 1 cumulative IPC: 1.282 instructions: 150000004 cycles: 117043321
CPU 1 Branch Prediction Accuracy: 94.56% MPKI: 7.709 Average ROB Occupancy at Mispredict: 61.43
Branch type MPKI
BRANCH_DIRECT_JUMP: 0.00711
BRANCH_INDIRECT: 0.00237
BRANCH_CONDITIONAL: 7.05
BRANCH_DIRECT_CALL: 0.0271
BRANCH_INDIRECT_CALL: 0
BRANCH_RETURN: 0.627


CPU 2 cumulative IPC: 1.596 instructions: 150000002 cycles: 93984368
CPU 2 Branch Prediction Accuracy: 97.85% MPKI: 3.55 Average ROB Occupancy at Mispredict: 94.83
Branch type MPKI
BRANCH_DIRECT_JUMP: 0.0257
BRANCH_INDIRECT: 0.00066
BRANCH_CONDITIONAL: 3.48
BRANCH_DIRECT_CALL: 0.00185
BRANCH_INDIRECT_CALL: 0
BRANCH_RETURN: 0.0405


CPU 3 cumulative IPC: 2.112 instructions: 150000002 cycles: 71023695
CPU 3 Branch Prediction Accuracy: 94.81% MPKI: 6.955 Average ROB Occupancy at Mispredict: 77.13
Branch type MPKI
BRANCH_DIRECT_JUMP: 0
BRANCH_INDIRECT: 0
BRANCH_CONDITIONAL: 6.94
BRANCH_DIRECT_CALL: 0
[...]
cpu2_L2C RFO          ACCESS:          0 HIT:          0 MISS:          0
cpu2_L2C PREFETCH     ACCESS:          0 HIT:          0 MISS:          0
cpu2_L2C WRITE        ACCESS:          0 HIT:          0 MISS:          0
cpu2_L2C TRANSLATION  ACCESS:          0 HIT:          0 MISS:          0
cpu2_L2C PREFETCH REQUESTED:    5597515 ISSUED:    4888763 USEFUL:     426998 USELESS:     121918
cpu2_L2C AVERAGE MISS LATENCY: 327.4 cycles
cpu2_L2C TOTAL        ACCESS:          0 HIT:          0 MISS:          0
cpu2_L2C LOAD         ACCESS:          0 HIT:          0 MISS:          0
cpu2_L2C RFO          ACCESS:          0 HIT:          0 MISS:          0
cpu2_L2C PREFETCH     ACCESS:          0 HIT:          0 MISS:          0
cpu2_L2C WRITE        ACCESS:          0 HIT:          0 MISS:          0
cpu2_L2C TRANSLATION  ACCESS:          0 HIT:          0 MISS:          0
cpu2_L2C PREFETCH REQUESTED:    5597515 ISSUED:    4888763 USEFUL:     426998 USELESS:     121918
cpu2_L2C AVERAGE MISS LATENCY: 327.4 cycles
cpu2_L2C TOTAL        ACCESS:    6367970 HIT:    4553639 MISS:    1814331
cpu2_L2C LOAD         ACCESS:    1288027 HIT:     991893 MISS:     296134
cpu2_L2C RFO          ACCESS:     718743 HIT:     403762 MISS:     314981
cpu2_L2C PREFETCH     ACCESS:    3419046 HIT:    2220106 MISS:    1198940
cpu2_L2C WRITE        ACCESS:     936262 HIT:     935639 MISS:        623
cpu2_L2C TRANSLATION  ACCESS:       5892 HIT:       2239 MISS:       3653
cpu2_L2C PREFETCH REQUESTED:    5597515 ISSUED:    4888763 USEFUL:     426998 USELESS:     121918
cpu2_L2C AVERAGE MISS LATENCY: 327.4 cycles
cpu2_L2C TOTAL        ACCESS:          0 HIT:          0 MISS:          0
cpu2_L2C LOAD         ACCESS:          0 HIT:          0 MISS:          0
cpu2_L2C RFO          ACCESS:          0 HIT:          0 MISS:          0
cpu2_L2C PREFETCH     ACCESS:          0 HIT:          0 MISS:          0
cpu2_L2C WRITE        ACCESS:          0 HIT:          0 MISS:          0
cpu2_L2C TRANSLATION  ACCESS:          0 HIT:          0 MISS:          0
cpu2_L2C PREFETCH REQUESTED:    5597515 ISSUED:    4888763 USEFUL:     426998 USELESS:     121918
cpu2_L2C AVERAGE MISS LATENCY: 327.4 cycles
cpu2_STLB TOTAL        ACCESS:          0 HIT:          0 MISS:          0
cpu2_STLB LOAD         ACCESS:          0 HIT:          0 MISS:          0
cpu2_STLB RFO          ACCESS:          0 HIT:          0 MISS:          0
cpu2_STLB PREFETCH     ACCESS:          0 HIT:          0 MISS:          0
cpu2_STLB WRITE        ACCESS:          0 HIT:          0 MISS:          0
cpu2_STLB TRANSLATION  ACCESS:          0 HIT:          0 MISS:          0
cpu2_STLB PREFETCH REQUESTED:          0 ISSUED:          0 USEFUL:          0 USELESS:          0
cpu2_STLB AVERAGE MISS LATENCY: 511.7 cycles
cpu2_STLB TOTAL        ACCESS:          0 HIT:          0 MISS:          0
cpu2_STLB LOAD         ACCESS:          0 HIT:          0 MISS:          0
cpu2_STLB RFO          ACCESS:          0 HIT:          0 MISS:          0
cpu2_STLB PREFETCH     ACCESS:          0 HIT:          0 MISS:          0
cpu2_STLB WRITE        ACCESS:          0 HIT:          0 MISS:          0
cpu2_STLB TRANSLATION  ACCESS:          0 HIT:          0 MISS:          0
cpu2_STLB PREFETCH REQUESTED:          0 ISSUED:          0 USEFUL:          0 USELESS:          0
cpu2_STLB AVERAGE MISS LATENCY: 511.7 cycles
cpu2_STLB TOTAL        ACCESS:      62774 HIT:      55565 MISS:       7209
cpu2_STLB LOAD         ACCESS:      62774 HIT:      55565 MISS:       7209
cpu2_STLB RFO          ACCESS:          0 HIT:          0 MISS:          0
cpu2_STLB PREFETCH     ACCESS:          0 HIT:          0 MISS:          0
cpu2_STLB WRITE        ACCESS:          0 HIT:          0 MISS:          0
cpu2_STLB TRANSLATION  ACCESS:          0 HIT:          0 MISS:          0
cpu2_STLB PREFETCH REQUESTED:          0 ISSUED:          0 USEFUL:          0 USELESS:          0
cpu2_STLB AVERAGE MISS LATENCY: 511.7 cycles
cpu2_STLB TOTAL        ACCESS:          0 HIT:          0 MISS:          0
cpu2_STLB LOAD         ACCESS:          0 HIT:          0 MISS:          0
cpu2_STLB RFO          ACCESS:          0 HIT:          0 MISS:          0
cpu2_STLB PREFETCH     ACCESS:          0 HIT:          0 MISS:          0
cpu2_STLB WRITE        ACCESS:          0 HIT:          0 MISS:          0
cpu2_STLB TRANSLATION  ACCESS:          0 HIT:          0 MISS:          0
cpu2_STLB PREFETCH REQUESTED:          0 ISSUED:          0 USEFUL:          0 USELESS:          0
cpu2_STLB AVERAGE MISS LATENCY: 511.7 cycles
cpu3_DTLB TOTAL        ACCESS:          0 HIT:          0 MISS:          0
cpu3_DTLB LOAD         ACCESS:          0 HIT:          0 MISS:          0
cpu3_DTLB RFO          ACCESS:          0 HIT:          0 MISS:          0
cpu3_DTLB PREFETCH     ACCESS:          0 HIT:          0 MISS:          0
cpu3_DTLB WRITE        ACCESS:          0 HIT:          0 MISS:          0
cpu3_DTLB TRANSLATION  ACCESS:          0 HIT:          0 MISS:          0
cpu3_DTLB PREFETCH REQUESTED:          0 ISSUED:          0 USEFUL:          0 USELESS:          0
cpu3_DTLB AVERAGE MISS LATENCY: 28.66 cycles
cpu3_DTLB TOTAL        ACCESS:          0 HIT:          0 MISS:          0
cpu3_DTLB LOAD         ACCESS:          0 HIT:          0 MISS:          0
cpu3_DTLB RFO          ACCESS:          0 HIT:          0 MISS:          0
cpu3_DTLB PREFETCH     ACCESS:          0 HIT:          0 MISS:          0
cpu3_DTLB WRITE        ACCESS:          0 HIT:          0 MISS:          0
cpu3_DTLB TRANSLATION  ACCESS:          0 HIT:          0 MISS:          0
cpu3_DTLB PREFETCH REQUESTED:          0 ISSUED:          0 USEFUL:          0 USELESS:          0
cpu3_DTLB AVERAGE MISS LATENCY: 28.66 cycles
cpu3_DTLB TOTAL        ACCESS:          0 HIT:          0 MISS:          0
cpu3_DTLB LOAD         ACCESS:          0 HIT:          0 MISS:          0
cpu3_DTLB RFO          ACCESS:          0 HIT:          0 MISS:          0
cpu3_DTLB PREFETCH     ACCESS:          0 HIT:          0 MISS:          0
cpu3_DTLB WRITE        ACCESS:          0 HIT:          0 MISS:          0
cpu3_DTLB TRANSLATION  ACCESS:          0 HIT:          0 MISS:          0
cpu3_DTLB PREFETCH REQUESTED:          0 ISSUED:          0 USEFUL:          0 USELESS:          0
cpu3_DTLB AVERAGE MISS LATENCY: 28.66 cycles
cpu3_DTLB TOTAL        ACCESS:   18129598 HIT:   18117796 MISS:      11802
cpu3_DTLB LOAD         ACCESS:   18129598 HIT:   18117796 MISS:      11802
cpu3_DTLB RFO          ACCESS:          0 HIT:          0 MISS:          0
cpu3_DTLB PREFETCH     ACCESS:          0 HIT:          0 MISS:          0
cpu3_DTLB WRITE        ACCESS:          0 HIT:          0 MISS:          0
cpu3_DTLB TRANSLATION  ACCESS:          0 HIT:          0 MISS:          0
cpu3_DTLB PREFETCH REQUESTED:          0 ISSUED:          0 USEFUL:          0 USELESS:          0
cpu3_DTLB AVERAGE MISS LATENCY: 28.66 cycles
cpu3_ITLB TOTAL        ACCESS:          0 HIT:          0 MISS:          0
cpu3_ITLB LOAD         ACCESS:          0 HIT:          0 MISS:          0
cpu3_ITLB RFO          ACCESS:          0 HIT:          0 MISS:          0
cpu3_ITLB PREFETCH     ACCESS:          0 HIT:          0 MISS:          0
cpu3_ITLB WRITE        ACCESS:          0 HIT:          0 MISS:          0
cpu3_ITLB TRANSLATION  ACCESS:          0 HIT:          0 MISS:          0
cpu3_ITLB PREFETCH REQUESTED:          0 ISSUED:          0 USEFUL:          0 USELESS:          0
cpu3_ITLB AVERAGE MISS LATENCY: -nan cycles
cpu3_ITLB TOTAL        ACCESS:          0 HIT:          0 MISS:          0
cpu3_ITLB LOAD         ACCESS:          0 HIT:          0 MISS:          0
cpu3_ITLB RFO          ACCESS:          0 HIT:          0 MISS:          0
cpu3_ITLB PREFETCH     ACCESS:          0 HIT:          0 MISS:          0
cpu3_ITLB WRITE        ACCESS:          0 HIT:          0 MISS:          0
cpu3_ITLB TRANSLATION  ACCESS:          0 HIT:          0 MISS:          0
cpu3_ITLB PREFETCH REQUESTED:          0 ISSUED:          0 USEFUL:          0 USELESS:          0
cpu3_ITLB AVERAGE MISS LATENCY: -nan cycles
cpu3_ITLB TOTAL        ACCESS:          0 HIT:          0 MISS:          0
cpu3_ITLB LOAD         ACCESS:          0 HIT:          0 MISS:          0
cpu3_ITLB RFO          ACCESS:          0 HIT:          0 MISS:          0
cpu3_ITLB PREFETCH     ACCESS:          0 HIT:          0 MISS:          0
cpu3_ITLB WRITE        ACCESS:          0 HIT:          0 MISS:          0
cpu3_ITLB TRANSLATION  ACCESS:          0 HIT:          0 MISS:          0
cpu3_ITLB PREFETCH REQUESTED:          0 ISSUED:          0 USEFUL:          0 USELESS:          0
cpu3_ITLB AVERAGE MISS LATENCY: -nan cycles
cpu3_ITLB TOTAL        ACCESS:     552347 HIT:     552347 MISS:          0
cpu3_ITLB LOAD         ACCESS:     552347 HIT:     552347 MISS:          0
cpu3_ITLB RFO          ACCESS:          0 HIT:          0 MISS:          0
cpu3_ITLB PREFETCH     ACCESS:          0 HIT:          0 MISS:          0
cpu3_ITLB WRITE        ACCESS:          0 HIT:          0 MISS:          0
cpu3_ITLB TRANSLATION  ACCESS:          0 HIT:          0 MISS:          0
cpu3_ITLB PREFETCH REQUESTED:          0 ISSUED:          0 USEFUL:          0 USELESS:          0
cpu3_ITLB AVERAGE MISS LATENCY: -nan cycles
cpu3_L1D TOTAL        ACCESS:          0 HIT:          0 MISS:          0
cpu3_L1D LOAD         ACCESS:          0 HIT:          0 MISS:          0
cpu3_L1D RFO          ACCESS:          0 HIT:          0 MISS:          0
cpu3_L1D PREFETCH     ACCESS:          0 HIT:          0 MISS:          0
cpu3_L1D WRITE        ACCESS:          0 HIT:          0 MISS:          0
cpu3_L1D TRANSLATION  ACCESS:          0 HIT:          0 MISS:          0
cpu3_L1D PREFETCH REQUESTED:          0 ISSUED:          0 USEFUL:          0 USELESS:          0
cpu3_L1D AVERAGE MISS LATENCY: 372.7 cycles
cpu3_L1D TOTAL        ACCESS:          0 HIT:          0 MISS:          0
cpu3_L1D LOAD         ACCESS:          0 HIT:          0 MISS:          0
cpu3_L1D RFO          ACCESS:          0 HIT:          0 MISS:          0
cpu3_L1D PREFETCH     ACCESS:          0 HIT:          0 MISS:          0
cpu3_L1D WRITE        ACCESS:          0 HIT:          0 MISS:          0
cpu3_L1D TRANSLATION  ACCESS:          0 HIT:          0 MISS:          0
cpu3_L1D PREFETCH REQUESTED:          0 ISSUED:          0 USEFUL:          0 USELESS:          0
cpu3_L1D AVERAGE MISS LATENCY: 372.7 cycles
cpu3_L1D TOTAL        ACCESS:          0 HIT:          0 MISS:          0
cpu3_L1D LOAD         ACCESS:          0 HIT:          0 MISS:          0
cpu3_L1D RFO          ACCESS:          0 HIT:          0 MISS:          0
cpu3_L1D PREFETCH     ACCESS:          0 HIT:          0 MISS:          0
cpu3_L1D WRITE        ACCESS:          0 HIT:          0 MISS:          0
cpu3_L1D TRANSLATION  ACCESS:          0 HIT:          0 MISS:          0
cpu3_L1D PREFETCH REQUESTED:          0 ISSUED:          0 USEFUL:          0 USELESS:          0
cpu3_L1D AVERAGE MISS LATENCY: 372.7 cycles
cpu3_L1D TOTAL        ACCESS:   22240400 HIT:   22221784 MISS:      18616
cpu3_L1D LOAD         ACCESS:   16605580 HIT:   16602919 MISS:       2661
cpu3_L1D RFO          ACCESS:          0 HIT:          0 MISS:          0
cpu3_L1D PREFETCH     ACCESS:          0 HIT:          0 MISS:          0
cpu3_L1D WRITE        ACCESS:    5634655 HIT:    5618846 MISS:      15809
cpu3_L1D TRANSLATION  ACCESS:        165 HIT:         19 MISS:        146
cpu3_L1D PREFETCH REQUESTED:          0 ISSUED:          0 USEFUL:          0 USELESS:          0
cpu3_L1D AVERAGE MISS LATENCY: 372.7 cycles
cpu3_L1I TOTAL        ACCESS:          0 HIT:          0 MISS:          0
cpu3_L1I LOAD         ACCESS:          0 HIT:          0 MISS:          0
cpu3_L1I RFO          ACCESS:          0 HIT:          0 MISS:          0
cpu3_L1I PREFETCH     ACCESS:          0 HIT:          0 MISS:          0
cpu3_L1I WRITE        ACCESS:          0 HIT:          0 MISS:          0
cpu3_L1I TRANSLATION  ACCESS:          0 HIT:          0 MISS:          0
cpu3_L1I PREFETCH REQUESTED:          0 ISSUED:          0 USEFUL:          0 USELESS:          0
cpu3_L1I AVERAGE MISS LATENCY: 7.522 cycles
cpu3_L1I TOTAL        ACCESS:          0 HIT:          0 MISS:          0
cpu3_L1I LOAD         ACCESS:          0 HIT:          0 MISS:          0
cpu3_L1I RFO          ACCESS:          0 HIT:          0 MISS:          0
cpu3_L1I PREFETCH     ACCESS:          0 HIT:          0 MISS:          0
cpu3_L1I WRITE        ACCESS:          0 HIT:          0 MISS:          0
cpu3_L1I TRANSLATION  ACCESS:          0 HIT:          0 MISS:          0
cpu3_L1I PREFETCH REQUESTED:          0 ISSUED:          0 USEFUL:          0 USELESS:          0
cpu3_L1I AVERAGE MISS LATENCY: 7.522 cycles
cpu3_L1I TOTAL        ACCESS:          0 HIT:          0 MISS:          0
cpu3_L1I LOAD         ACCESS:          0 HIT:          0 MISS:          0
cpu3_L1I RFO          ACCESS:          0 HIT:          0 MISS:          0
cpu3_L1I PREFETCH     ACCESS:          0 HIT:          0 MISS:          0
cpu3_L1I WRITE        ACCESS:          0 HIT:          0 MISS:          0
cpu3_L1I TRANSLATION  ACCESS:          0 HIT:          0 MISS:          0
cpu3_L1I PREFETCH REQUESTED:          0 ISSUED:          0 USEFUL:          0 USELESS:          0
cpu3_L1I AVERAGE MISS LATENCY: 7.522 cycles
cpu3_L1I TOTAL        ACCESS:     614779 HIT:     613374 MISS:       1405
cpu3_L1I LOAD         ACCESS:     614779 HIT:     613374 MISS:       1405
cpu3_L1I RFO          ACCESS:          0 HIT:          0 MISS:          0
cpu3_L1I PREFETCH     ACCESS:          0 HIT:          0 MISS:          0
cpu3_L1I WRITE        ACCESS:          0 HIT:          0 MISS:          0
cpu3_L1I TRANSLATION  ACCESS:          0 HIT:          0 MISS:          0
cpu3_L1I PREFETCH REQUESTED:          0 ISSUED:          0 USEFUL:          0 USELESS:          0
cpu3_L1I AVERAGE MISS LATENCY: 7.522 cycles
cpu3_L2C TOTAL        ACCESS:          0 HIT:          0 MISS:          0
cpu3_L2C LOAD         ACCESS:          0 HIT:          0 MISS:          0
cpu3_L2C RFO          ACCESS:          0 HIT:          0 MISS:          0
cpu3_L2C PREFETCH     ACCESS:          0 HIT:          0 MISS:          0
cpu3_L2C WRITE        ACCESS:          0 HIT:          0 MISS:          0
cpu3_L2C TRANSLATION  ACCESS:          0 HIT:          0 MISS:          0
cpu3_L2C PREFETCH REQUESTED:       5147 ISSUED:       5147 USEFUL:       1146 USELESS:          8
cpu3_L2C AVERAGE MISS LATENCY: 1587 cycles
cpu3_L2C TOTAL        ACCESS:          0 HIT:          0 MISS:          0
cpu3_L2C LOAD         ACCESS:          0 HIT:          0 MISS:          0
cpu3_L2C RFO          ACCESS:          0 HIT:          0 MISS:          0
cpu3_L2C PREFETCH     ACCESS:          0 HIT:          0 MISS:          0
cpu3_L2C WRITE        ACCESS:          0 HIT:          0 MISS:          0
cpu3_L2C TRANSLATION  ACCESS:          0 HIT:          0 MISS:          0
cpu3_L2C PREFETCH REQUESTED:       5147 ISSUED:       5147 USEFUL:       1146 USELESS:          8
cpu3_L2C AVERAGE MISS LATENCY: 1587 cycles
cpu3_L2C TOTAL        ACCESS:          0 HIT:          0 MISS:          0
cpu3_L2C LOAD         ACCESS:          0 HIT:          0 MISS:          0
cpu3_L2C RFO          ACCESS:          0 HIT:          0 MISS:          0
cpu3_L2C PREFETCH     ACCESS:          0 HIT:          0 MISS:          0
cpu3_L2C WRITE        ACCESS:          0 HIT:          0 MISS:          0
cpu3_L2C TRANSLATION  ACCESS:          0 HIT:          0 MISS:          0
cpu3_L2C PREFETCH REQUESTED:       5147 ISSUED:       5147 USEFUL:       1146 USELESS:          8
cpu3_L2C AVERAGE MISS LATENCY: 1587 cycles
cpu3_L2C TOTAL        ACCESS:      11509 HIT:       5233 MISS:       6276
cpu3_L2C LOAD         ACCESS:       2769 HIT:       1764 MISS:       1005
cpu3_L2C RFO          ACCESS:       2552 HIT:        100 MISS:       2452
cpu3_L2C PREFETCH     ACCESS:       3016 HIT:        293 MISS:       2723
cpu3_L2C WRITE        ACCESS:       3026 HIT:       3023 MISS:          3
cpu3_L2C TRANSLATION  ACCESS:        146 HIT:         53 MISS:         93
cpu3_L2C PREFETCH REQUESTED:       5147 ISSUED:       5147 USEFUL:       1146 USELESS:          8
cpu3_L2C AVERAGE MISS LATENCY: 1587 cycles
cpu3_STLB TOTAL        ACCESS:          0 HIT:          0 MISS:          0
cpu3_STLB LOAD         ACCESS:          0 HIT:          0 MISS:          0
cpu3_STLB RFO          ACCESS:          0 HIT:          0 MISS:          0
cpu3_STLB PREFETCH     ACCESS:          0 HIT:          0 MISS:          0
cpu3_STLB WRITE        ACCESS:          0 HIT:          0 MISS:          0
cpu3_STLB TRANSLATION  ACCESS:          0 HIT:          0 MISS:          0
cpu3_STLB PREFETCH REQUESTED:          0 ISSUED:          0 USEFUL:          0 USELESS:          0
cpu3_STLB AVERAGE MISS LATENCY: 1563 cycles
cpu3_STLB TOTAL        ACCESS:          0 HIT:          0 MISS:          0
cpu3_STLB LOAD         ACCESS:          0 HIT:          0 MISS:          0
cpu3_STLB RFO          ACCESS:          0 HIT:          0 MISS:          0
cpu3_STLB PREFETCH     ACCESS:          0 HIT:          0 MISS:          0
cpu3_STLB WRITE        ACCESS:          0 HIT:          0 MISS:          0
cpu3_STLB TRANSLATION  ACCESS:          0 HIT:          0 MISS:          0
cpu3_STLB PREFETCH REQUESTED:          0 ISSUED:          0 USEFUL:          0 USELESS:          0
cpu3_STLB AVERAGE MISS LATENCY: 1563 cycles
cpu3_STLB TOTAL        ACCESS:          0 HIT:          0 MISS:          0
cpu3_STLB LOAD         ACCESS:          0 HIT:          0 MISS:          0
cpu3_STLB RFO          ACCESS:          0 HIT:          0 MISS:          0
cpu3_STLB PREFETCH     ACCESS:          0 HIT:          0 MISS:          0
cpu3_STLB WRITE        ACCESS:          0 HIT:          0 MISS:          0
cpu3_STLB TRANSLATION  ACCESS:          0 HIT:          0 MISS:          0
cpu3_STLB PREFETCH REQUESTED:          0 ISSUED:          0 USEFUL:          0 USELESS:          0
cpu3_STLB AVERAGE MISS LATENCY: 1563 cycles
cpu3_STLB TOTAL        ACCESS:      10597 HIT:      10432 MISS:        165
cpu3_STLB LOAD         ACCESS:      10597 HIT:      10432 MISS:        165
cpu3_STLB RFO          ACCESS:          0 HIT:          0 MISS:          0
cpu3_STLB PREFETCH     ACCESS:          0 HIT:          0 MISS:          0
cpu3_STLB WRITE        ACCESS:          0 HIT:          0 MISS:          0
cpu3_STLB TRANSLATION  ACCESS:          0 HIT:          0 MISS:          0
cpu3_STLB PREFETCH REQUESTED:          0 ISSUED:          0 USEFUL:          0 USELESS:          0
cpu3_STLB AVERAGE MISS LATENCY: 1563 cycles

DRAM Statistics

Channel 0 RQ ROW_BUFFER_HIT:     488467
  ROW_BUFFER_MISS:     806222
 AVG DBUS CONGESTED CYCLE: 3.976
WQ ROW_BUFFER_HIT: Channel 0 
  ROW_BUFFER_MISS:      73146
  FULL:     761834
BERTI TO_L1: 5288232 TO_L2: 3768110 TO_L2_BC_MSHR: 22006
BERTI AVG_LAT: 203.232 NUM_TRACK_LATENCY: 1627593 NUM_CANT_TRACK_LATENCY: 15239
BERTI CROSS_PAGE 1632074 NO_CROSS_PAGE: 7424268
BERTI FOUND_BERTI: 1860120 NO_FOUND_BERTI: 1804285
BERTI AVERAGE_ISSUED: 6.87717
BERTI TO_L1: 5288232 TO_L2: 3768110 TO_L2_BC_MSHR: 22006
BERTI AVG_LAT: 203.232 NUM_TRACK_LATENCY: 1627593 NUM_CANT_TRACK_LATENCY: 15239
BERTI CROSS_PAGE 1632074 NO_CROSS_PAGE: 7424268
BERTI FOUND_BERTI: 1860120 NO_FOUND_BERTI: 1804285
BERTI AVERAGE_ISSUED: 6.87717
BERTI TO_L1: 5288232 TO_L2: 3768110 TO_L2_BC_MSHR: 22006
BERTI AVG_LAT: 203.232 NUM_TRACK_LATENCY: 1627593 NUM_CANT_TRACK_LATENCY: 15239
BERTI CROSS_PAGE 1632074 NO_CROSS_PAGE: 7424268
BERTI FOUND_BERTI: 1860120 NO_FOUND_BERTI: 1804285
BERTI AVERAGE_ISSUED: 6.87717
BERTI TO_L1: 5288232 TO_L2: 3768110 TO_L2_BC_MSHR: 22006
BERTI AVG_LAT: 203.232 NUM_TRACK_LATENCY: 1627593 NUM_CANT_TRACK_LATENCY: 15239
BERTI CROSS_PAGE 1632074 NO_CROSS_PAGE: 7424268
BERTI FOUND_BERTI: 1860120 NO_FOUND_BERTI: 1804285
BERTI AVERAGE_ISSUED: 6.87717
