WARNING: physical memory size is smaller than virtual memory size.
WARNING: option --warmup_instructions is deprecated. Use --warmup-instructions instead.
WARNING: option --simulation_instructions is deprecated. Use --simulation-instructions instead.

*** ChampSim Multicore Out-of-Order Simulator ***
Warmup Instructions: 50000000
Simulation Instructions: 150000000
Number of CPUs: 4
Page size: 4096

Berti Prefetcher
BERTI HASH ORIGINAL
BERTI IP MASK ffff
Berti Prefetcher
BERTI HASH ORIGINAL
BERTI IP MASK ffff
Berti Prefetcher
BERTI HASH ORIGINAL
BERTI IP MASK ffff
Berti Prefetcher
BERTI HASH ORIGINAL
BERTI IP MASK ffff
Off-chip DRAM Size: 4 GiB Channels: 1 Width: 64-bit Data Race: 3200 MT/s
Heartbeat CPU 1 instructions: 10000002 cycles: 2500044 heartbeat IPC: 4 cumulative IPC: 4 (Simulation time: 00 hr 03 min 24 sec)
Heartbeat CPU 3 instructions: 10000001 cycles: 2502764 heartbeat IPC: 3.996 cumulative IPC: 3.996 (Simulation time: 00 hr 03 min 24 sec)
Heartbeat CPU 2 instructions: 10000000 cycles: 3063784 heartbeat IPC: 3.264 cumulative IPC: 3.264 (Simulation time: 00 hr 04 min 06 sec)
Heartbeat CPU 0 instructions: 10000003 cycles: 3457162 heartbeat IPC: 2.893 cumulative IPC: 2.893 (Simulation time: 00 hr 04 min 46 sec)
Heartbeat CPU 1 instructions: 20000002 cycles: 5000044 heartbeat IPC: 4 cumulative IPC: 4 (Simulation time: 00 hr 07 min 02 sec)
Heartbeat CPU 3 instructions: 20000000 cycles: 5005381 heartbeat IPC: 3.996 cumulative IPC: 3.996 (Simulation time: 00 hr 07 min 02 sec)
Heartbeat CPU 2 instructions: 20000002 cycles: 5748346 heartbeat IPC: 3.725 cumulative IPC: 3.479 (Simulation time: 00 hr 07 min 59 sec)
Heartbeat CPU 0 instructions: 20000001 cycles: 6909087 heartbeat IPC: 2.897 cumulative IPC: 2.895 (Simulation time: 00 hr 09 min 31 sec)
Heartbeat CPU 1 instructions: 30000002 cycles: 7500044 heartbeat IPC: 4 cumulative IPC: 4 (Simulation time: 00 hr 10 min 13 sec)
Heartbeat CPU 3 instructions: 30000003 cycles: 7507709 heartbeat IPC: 3.996 cumulative IPC: 3.996 (Simulation time: 00 hr 10 min 14 sec)
Heartbeat CPU 2 instructions: 30000001 cycles: 8967804 heartbeat IPC: 3.106 cumulative IPC: 3.345 (Simulation time: 00 hr 12 min 01 sec)
Heartbeat CPU 1 instructions: 40000002 cycles: 10000044 heartbeat IPC: 4 cumulative IPC: 4 (Simulation time: 00 hr 13 min 35 sec)
Heartbeat CPU 3 instructions: 40000001 cycles: 10010356 heartbeat IPC: 3.996 cumulative IPC: 3.996 (Simulation time: 00 hr 13 min 36 sec)
Heartbeat CPU 0 instructions: 30000001 cycles: 10365792 heartbeat IPC: 2.893 cumulative IPC: 2.894 (Simulation time: 00 hr 14 min 03 sec)
Heartbeat CPU 2 instructions: 40000004 cycles: 12221752 heartbeat IPC: 3.073 cumulative IPC: 3.273 (Simulation time: 00 hr 16 min 44 sec)
Heartbeat CPU 1 instructions: 50000002 cycles: 12500044 heartbeat IPC: 4 cumulative IPC: 4 (Simulation time: 00 hr 17 min 02 sec)
Warmup finished CPU 1 instructions: 50000002 cycles: 12500045 cumulative IPC: 4 (Simulation time: 00 hr 17 min 02 sec)
Heartbeat CPU 3 instructions: 50000003 cycles: 12513015 heartbeat IPC: 3.996 cumulative IPC: 3.996 (Simulation time: 00 hr 17 min 03 sec)
Warmup finished CPU 3 instructions: 50000003 cycles: 12513016 cumulative IPC: 3.996 (Simulation time: 00 hr 17 min 03 sec)
Heartbeat CPU 0 instructions: 40000004 cycles: 13788718 heartbeat IPC: 2.921 cumulative IPC: 2.901 (Simulation time: 00 hr 18 min 45 sec)
Heartbeat CPU 1 instructions: 60000002 cycles: 15000044 heartbeat IPC: 4 cumulative IPC: 4 (Simulation time: 00 hr 20 min 33 sec)
Heartbeat CPU 3 instructions: 60000001 cycles: 15015634 heartbeat IPC: 3.996 cumulative IPC: 3.996 (Simulation time: 00 hr 20 min 35 sec)
Heartbeat CPU 2 instructions: 50000002 cycles: 15376231 heartbeat IPC: 3.17 cumulative IPC: 3.252 (Simulation time: 00 hr 21 min 10 sec)
Warmup finished CPU 2 instructions: 50000002 cycles: 15376232 cumulative IPC: 3.252 (Simulation time: 00 hr 21 min 10 sec)
Heartbeat CPU 0 instructions: 50000001 cycles: 17211740 heartbeat IPC: 2.921 cumulative IPC: 2.905 (Simulation time: 00 hr 24 min 07 sec)
Warmup finished CPU 0 instructions: 50000001 cycles: 17211741 cumulative IPC: 2.905 (Simulation time: 00 hr 24 min 07 sec)
Warmup complete CPU 0 instructions: 50000001 cycles: 17211741 cumulative IPC: 2.905 (Simulation time: 00 hr 24 min 07 sec)
Warmup complete CPU 1 instructions: 68846786 cycles: 17211741 cumulative IPC: 4 (Simulation time: 00 hr 24 min 07 sec)
Warmup complete CPU 2 instructions: 56702209 cycles: 17211741 cumulative IPC: 3.294 (Simulation time: 00 hr 24 min 07 sec)
Warmup complete CPU 3 instructions: 68774073 cycles: 17211741 cumulative IPC: 3.996 (Simulation time: 00 hr 24 min 07 sec)
Heartbeat CPU 3 instructions: 70000000 cycles: 17815569 heartbeat IPC: 3.572 cumulative IPC: 2.03 (Simulation time: 00 hr 24 min 42 sec)
Heartbeat CPU 1 instructions: 70000004 cycles: 18162083 heartbeat IPC: 3.163 cumulative IPC: 1.213 (Simulation time: 00 hr 25 min 05 sec)
Heartbeat CPU 2 instructions: 60000003 cycles: 19594056 heartbeat IPC: 2.371 cumulative IPC: 1.384 (Simulation time: 00 hr 26 min 40 sec)
Heartbeat CPU 0 instructions: 60000001 cycles: 20918815 heartbeat IPC: 2.698 cumulative IPC: 2.698 (Simulation time: 00 hr 28 min 19 sec)
Heartbeat CPU 3 instructions: 80000000 cycles: 22533296 heartbeat IPC: 2.12 cumulative IPC: 2.11 (Simulation time: 00 hr 30 min 04 sec)
Heartbeat CPU 0 instructions: 70000000 cycles: 24728183 heartbeat IPC: 2.625 cumulative IPC: 2.661 (Simulation time: 00 hr 31 min 49 sec)
Heartbeat CPU 1 instructions: 80000003 cycles: 26280371 heartbeat IPC: 1.232 cumulative IPC: 1.23 (Simulation time: 00 hr 32 min 58 sec)
Heartbeat CPU 3 instructions: 90000004 cycles: 27261343 heartbeat IPC: 2.115 cumulative IPC: 2.112 (Simulation time: 00 hr 33 min 45 sec)
Heartbeat CPU 2 instructions: 70000001 cycles: 28348919 heartbeat IPC: 1.142 cumulative IPC: 1.194 (Simulation time: 00 hr 34 min 40 sec)
Heartbeat CPU 0 instructions: 80000003 cycles: 29323126 heartbeat IPC: 2.176 cumulative IPC: 2.477 (Simulation time: 00 hr 35 min 35 sec)
Heartbeat CPU 3 instructions: 100000000 cycles: 32002409 heartbeat IPC: 2.109 cumulative IPC: 2.111 (Simulation time: 00 hr 37 min 58 sec)
Heartbeat CPU 0 instructions: 90000002 cycles: 34266088 heartbeat IPC: 2.023 cumulative IPC: 2.345 (Simulation time: 00 hr 40 min 13 sec)
Heartbeat CPU 1 instructions: 90000004 cycles: 34492574 heartbeat IPC: 1.218 cumulative IPC: 1.224 (Simulation time: 00 hr 40 min 26 sec)
Heartbeat CPU 3 instructions: 110000001 cycles: 36709633 heartbeat IPC: 2.124 cumulative IPC: 2.114 (Simulation time: 00 hr 42 min 01 sec)
Heartbeat CPU 2 instructions: 80000001 cycles: 39454211 heartbeat IPC: 0.9005 cumulative IPC: 1.047 (Simulation time: 00 hr 43 min 53 sec)
Heartbeat CPU 0 instructions: 100000000 cycles: 39632496 heartbeat IPC: 1.863 cumulative IPC: 2.23 (Simulation time: 00 hr 44 min 00 sec)
Heartbeat CPU 3 instructions: 120000000 cycles: 41343642 heartbeat IPC: 2.158 cumulative IPC: 2.123 (Simulation time: 00 hr 45 min 25 sec)
Heartbeat CPU 1 instructions: 100000002 cycles: 42328532 heartbeat IPC: 1.276 cumulative IPC: 1.24 (Simulation time: 00 hr 46 min 13 sec)
Heartbeat CPU 0 instructions: 110000004 cycles: 44781530 heartbeat IPC: 1.942 cumulative IPC: 2.176 (Simulation time: 00 hr 48 min 00 sec)
Heartbeat CPU 3 instructions: 130000002 cycles: 46007815 heartbeat IPC: 2.144 cumulative IPC: 2.126 (Simulation time: 00 hr 49 min 04 sec)
Heartbeat CPU 2 instructions: 90000001 cycles: 47343622 heartbeat IPC: 1.268 cumulative IPC: 1.105 (Simulation time: 00 hr 50 min 31 sec)
Heartbeat CPU 0 instructions: 120000000 cycles: 49528330 heartbeat IPC: 2.107 cumulative IPC: 2.166 (Simulation time: 00 hr 52 min 18 sec)
Heartbeat CPU 1 instructions: 110000000 cycles: 50243147 heartbeat IPC: 1.263 cumulative IPC: 1.246 (Simulation time: 00 hr 52 min 52 sec)
Heartbeat CPU 3 instructions: 140000000 cycles: 50707572 heartbeat IPC: 2.128 cumulative IPC: 2.126 (Simulation time: 00 hr 53 min 10 sec)
Heartbeat CPU 0 instructions: 130000001 cycles: 54283024 heartbeat IPC: 2.103 cumulative IPC: 2.158 (Simulation time: 00 hr 55 min 54 sec)
Heartbeat CPU 3 instructions: 150000004 cycles: 55327599 heartbeat IPC: 2.164 cumulative IPC: 2.131 (Simulation time: 00 hr 56 min 41 sec)
Heartbeat CPU 2 instructions: 100000002 cycles: 57571392 heartbeat IPC: 0.9777 cumulative IPC: 1.073 (Simulation time: 00 hr 58 min 20 sec)
Heartbeat CPU 1 instructions: 120000004 cycles: 58468701 heartbeat IPC: 1.216 cumulative IPC: 1.24 (Simulation time: 00 hr 58 min 57 sec)
Heartbeat CPU 0 instructions: 140000000 cycles: 59129220 heartbeat IPC: 2.063 cumulative IPC: 2.147 (Simulation time: 00 hr 59 min 23 sec)
Heartbeat CPU 3 instructions: 160000003 cycles: 59951785 heartbeat IPC: 2.163 cumulative IPC: 2.134 (Simulation time: 00 hr 59 min 55 sec)
Heartbeat CPU 0 instructions: 150000003 cycles: 63979072 heartbeat IPC: 2.062 cumulative IPC: 2.138 (Simulation time: 01 hr 03 min 03 sec)
Heartbeat CPU 3 instructions: 170000003 cycles: 64558017 heartbeat IPC: 2.171 cumulative IPC: 2.138 (Simulation time: 01 hr 03 min 26 sec)
Heartbeat CPU 2 instructions: 110000004 cycles: 66552243 heartbeat IPC: 1.113 cumulative IPC: 1.08 (Simulation time: 01 hr 04 min 58 sec)
Heartbeat CPU 1 instructions: 130000002 cycles: 67418022 heartbeat IPC: 1.117 cumulative IPC: 1.218 (Simulation time: 01 hr 05 min 32 sec)
Heartbeat CPU 0 instructions: 160000004 cycles: 68911800 heartbeat IPC: 2.027 cumulative IPC: 2.128 (Simulation time: 01 hr 06 min 43 sec)
Heartbeat CPU 3 instructions: 180000004 cycles: 69168449 heartbeat IPC: 2.169 cumulative IPC: 2.141 (Simulation time: 01 hr 06 min 55 sec)
Heartbeat CPU 3 instructions: 190000002 cycles: 73805047 heartbeat IPC: 2.157 cumulative IPC: 2.142 (Simulation time: 01 hr 09 min 58 sec)
Heartbeat CPU 0 instructions: 170000003 cycles: 73889941 heartbeat IPC: 2.009 cumulative IPC: 2.117 (Simulation time: 01 hr 10 min 01 sec)
Heartbeat CPU 2 instructions: 120000000 cycles: 75316148 heartbeat IPC: 1.141 cumulative IPC: 1.089 (Simulation time: 01 hr 11 min 14 sec)
Heartbeat CPU 1 instructions: 140000004 cycles: 76228173 heartbeat IPC: 1.135 cumulative IPC: 1.206 (Simulation time: 01 hr 12 min 02 sec)
Heartbeat CPU 3 instructions: 200000000 cycles: 78463235 heartbeat IPC: 2.147 cumulative IPC: 2.142 (Simulation time: 01 hr 13 min 56 sec)
Heartbeat CPU 0 instructions: 180000002 cycles: 78786810 heartbeat IPC: 2.042 cumulative IPC: 2.111 (Simulation time: 01 hr 14 min 08 sec)
Heartbeat CPU 2 instructions: 130000001 cycles: 82666232 heartbeat IPC: 1.361 cumulative IPC: 1.12 (Simulation time: 01 hr 17 min 15 sec)
Heartbeat CPU 3 instructions: 210000000 cycles: 83055473 heartbeat IPC: 2.178 cumulative IPC: 2.145 (Simulation time: 01 hr 17 min 34 sec)
Heartbeat CPU 0 instructions: 190000000 cycles: 83726645 heartbeat IPC: 2.024 cumulative IPC: 2.105 (Simulation time: 01 hr 18 min 06 sec)
Heartbeat CPU 1 instructions: 150000001 cycles: 84316156 heartbeat IPC: 1.236 cumulative IPC: 1.209 (Simulation time: 01 hr 18 min 36 sec)
Simulation finished CPU 3 instructions: 150000004 cycles: 69875670 cumulative IPC: 2.147 (Simulation time: 01 hr 20 min 46 sec)
Heartbeat CPU 3 instructions: 220000000 cycles: 87634278 heartbeat IPC: 2.184 cumulative IPC: 2.147 (Simulation time: 01 hr 21 min 11 sec)
Heartbeat CPU 0 instructions: 200000004 cycles: 88565876 heartbeat IPC: 2.066 cumulative IPC: 2.102 (Simulation time: 01 hr 21 min 54 sec)
Simulation finished CPU 0 instructions: 150000003 cycles: 71354136 cumulative IPC: 2.102 (Simulation time: 01 hr 21 min 54 sec)
Heartbeat CPU 2 instructions: 140000000 cycles: 91144370 heartbeat IPC: 1.18 cumulative IPC: 1.127 (Simulation time: 01 hr 23 min 53 sec)
Heartbeat CPU 1 instructions: 160000004 cycles: 91996276 heartbeat IPC: 1.302 cumulative IPC: 1.219 (Simulation time: 01 hr 24 min 37 sec)
Heartbeat CPU 3 instructions: 230000001 cycles: 92235830 heartbeat IPC: 2.173 cumulative IPC: 2.149 (Simulation time: 01 hr 24 min 48 sec)
Heartbeat CPU 0 instructions: 210000003 cycles: 93445239 heartbeat IPC: 2.049 cumulative IPC: 2.099 (Simulation time: 01 hr 25 min 40 sec)
Heartbeat CPU 3 instructions: 240000000 cycles: 96863849 heartbeat IPC: 2.161 cumulative IPC: 2.15 (Simulation time: 01 hr 28 min 11 sec)
Heartbeat CPU 0 instructions: 220000000 cycles: 98353876 heartbeat IPC: 2.037 cumulative IPC: 2.095 (Simulation time: 01 hr 29 min 43 sec)
Heartbeat CPU 1 instructions: 170000003 cycles: 100702774 heartbeat IPC: 1.149 cumulative IPC: 1.212 (Simulation time: 01 hr 32 min 07 sec)
Heartbeat CPU 3 instructions: 250000002 cycles: 101497775 heartbeat IPC: 2.158 cumulative IPC: 2.15 (Simulation time: 01 hr 32 min 54 sec)
Heartbeat CPU 2 instructions: 150000004 cycles: 102919544 heartbeat IPC: 0.8492 cumulative IPC: 1.089 (Simulation time: 01 hr 34 min 23 sec)
Heartbeat CPU 0 instructions: 230000002 cycles: 103082703 heartbeat IPC: 2.115 cumulative IPC: 2.096 (Simulation time: 01 hr 34 min 34 sec)
Heartbeat CPU 3 instructions: 260000000 cycles: 106172477 heartbeat IPC: 2.139 cumulative IPC: 2.15 (Simulation time: 01 hr 37 min 52 sec)
Heartbeat CPU 0 instructions: 240000002 cycles: 107930579 heartbeat IPC: 2.063 cumulative IPC: 2.094 (Simulation time: 01 hr 39 min 43 sec)
Heartbeat CPU 1 instructions: 180000001 cycles: 108517860 heartbeat IPC: 1.28 cumulative IPC: 1.217 (Simulation time: 01 hr 40 min 23 sec)
Heartbeat CPU 3 instructions: 270000000 cycles: 110808173 heartbeat IPC: 2.157 cumulative IPC: 2.15 (Simulation time: 01 hr 42 min 22 sec)
Heartbeat CPU 0 instructions: 250000003 cycles: 112600212 heartbeat IPC: 2.141 cumulative IPC: 2.097 (Simulation time: 01 hr 43 min 38 sec)
Heartbeat CPU 2 instructions: 160000002 cycles: 113662598 heartbeat IPC: 0.9308 cumulative IPC: 1.071 (Simulation time: 01 hr 44 min 21 sec)
Heartbeat CPU 3 instructions: 280000001 cycles: 115447531 heartbeat IPC: 2.155 cumulative IPC: 2.15 (Simulation time: 01 hr 45 min 43 sec)
Heartbeat CPU 1 instructions: 190000000 cycles: 116756313 heartbeat IPC: 1.214 cumulative IPC: 1.217 (Simulation time: 01 hr 46 min 40 sec)
Heartbeat CPU 0 instructions: 260000003 cycles: 117330142 heartbeat IPC: 2.114 cumulative IPC: 2.098 (Simulation time: 01 hr 47 min 03 sec)
Heartbeat CPU 3 instructions: 290000004 cycles: 120092126 heartbeat IPC: 2.153 cumulative IPC: 2.15 (Simulation time: 01 hr 49 min 02 sec)
Heartbeat CPU 2 instructions: 170000004 cycles: 121294280 heartbeat IPC: 1.31 cumulative IPC: 1.089 (Simulation time: 01 hr 49 min 53 sec)
Heartbeat CPU 0 instructions: 270000001 cycles: 122090970 heartbeat IPC: 2.1 cumulative IPC: 2.098 (Simulation time: 01 hr 50 min 26 sec)
Heartbeat CPU 3 instructions: 300000000 cycles: 124733479 heartbeat IPC: 2.155 cumulative IPC: 2.151 (Simulation time: 01 hr 52 min 18 sec)
Heartbeat CPU 1 instructions: 200000000 cycles: 125060337 heartbeat IPC: 1.204 cumulative IPC: 1.216 (Simulation time: 01 hr 52 min 32 sec)
Heartbeat CPU 0 instructions: 280000001 cycles: 126774818 heartbeat IPC: 2.135 cumulative IPC: 2.099 (Simulation time: 01 hr 53 min 47 sec)
Heartbeat CPU 3 instructions: 310000001 cycles: 129364888 heartbeat IPC: 2.159 cumulative IPC: 2.151 (Simulation time: 01 hr 55 min 37 sec)
Heartbeat CPU 2 instructions: 180000002 cycles: 129894289 heartbeat IPC: 1.163 cumulative IPC: 1.094 (Simulation time: 01 hr 56 min 11 sec)
Heartbeat CPU 0 instructions: 290000000 cycles: 131437287 heartbeat IPC: 2.145 cumulative IPC: 2.101 (Simulation time: 01 hr 57 min 32 sec)
Heartbeat CPU 3 instructions: 320000001 cycles: 133989394 heartbeat IPC: 2.162 cumulative IPC: 2.151 (Simulation time: 01 hr 59 min 28 sec)
Heartbeat CPU 1 instructions: 210000001 cycles: 134305410 heartbeat IPC: 1.082 cumulative IPC: 1.205 (Simulation time: 01 hr 59 min 42 sec)
Heartbeat CPU 0 instructions: 300000004 cycles: 135171452 heartbeat IPC: 2.678 cumulative IPC: 2.119 (Simulation time: 02 hr 00 min 20 sec)
Heartbeat CPU 3 instructions: 330000001 cycles: 138613656 heartbeat IPC: 2.163 cumulative IPC: 2.152 (Simulation time: 02 hr 03 min 02 sec)
Heartbeat CPU 2 instructions: 190000001 cycles: 138973135 heartbeat IPC: 1.101 cumulative IPC: 1.095 (Simulation time: 02 hr 03 min 16 sec)
Heartbeat CPU 0 instructions: 310000004 cycles: 139092695 heartbeat IPC: 2.55 cumulative IPC: 2.133 (Simulation time: 02 hr 03 min 20 sec)
Heartbeat CPU 0 instructions: 320000000 cycles: 144348967 heartbeat IPC: 1.902 cumulative IPC: 2.124 (Simulation time: 02 hr 06 min 45 sec)
Simulation finished CPU 1 instructions: 150000001 cycles: 127608791 cumulative IPC: 1.175 (Simulation time: 02 hr 07 min 04 sec)
Heartbeat CPU 3 instructions: 340000000 cycles: 146026521 heartbeat IPC: 1.349 cumulative IPC: 2.106 (Simulation time: 02 hr 07 min 51 sec)
Heartbeat CPU 1 instructions: 220000004 cycles: 146222781 heartbeat IPC: 0.8391 cumulative IPC: 1.172 (Simulation time: 02 hr 07 min 58 sec)
Heartbeat CPU 2 instructions: 200000002 cycles: 147654672 heartbeat IPC: 1.152 cumulative IPC: 1.099 (Simulation time: 02 hr 09 min 10 sec)
Heartbeat CPU 0 instructions: 330000001 cycles: 150101915 heartbeat IPC: 1.738 cumulative IPC: 2.107 (Simulation time: 02 hr 11 min 19 sec)
Heartbeat CPU 3 instructions: 350000002 cycles: 151547263 heartbeat IPC: 1.811 cumulative IPC: 2.093 (Simulation time: 02 hr 12 min 58 sec)
Simulation finished CPU 2 instructions: 150000000 cycles: 135148842 cumulative IPC: 1.11 (Simulation time: 02 hr 13 min 43 sec)
Simulation complete CPU 0 instructions: 284547985 cycles: 135148842 cumulative IPC: 2.105 (Simulation time: 02 hr 13 min 43 sec)
Simulation complete CPU 1 instructions: 158249699 cycles: 135148842 cumulative IPC: 1.171 (Simulation time: 02 hr 13 min 43 sec)
Simulation complete CPU 2 instructions: 150000000 cycles: 135148842 cumulative IPC: 1.11 (Simulation time: 02 hr 13 min 43 sec)
Simulation complete CPU 3 instructions: 282678019 cycles: 135148842 cumulative IPC: 2.092 (Simulation time: 02 hr 13 min 43 sec)

ChampSim completed all CPUs

=== Simulation ===
CPU 0 runs /home/das/dpc3_traces/644.nab_s-5853B.champsimtrace.xzCPU 1 runs /home/das/dpc3_traces/649.fotonik3d_s-1176B.champsimtrace.xzCPU 2 runs /home/das/dpc3_traces/623.xalancbmk_s-700B.champsimtrace.xzCPU 3 runs /home/das/dpc3_traces/621.wrf_s-575B.champsimtrace.xz
Total Simulation Statistics (not including warmup)

CPU 0 cumulative IPC: 2.105 instructions: 284547985 cycles: 135148842
CPU 0 Branch Prediction Accuracy: 86.04% MPKI: 13.52 Average ROB Occupancy at Mispredict: 105.2
Branch type MPKI
BRANCH_DIRECT_JUMP: 0.000109
BRANCH_INDIRECT: 3.51e-06
BRANCH_CONDITIONAL: 7.99
BRANCH_DIRECT_CALL: 0
BRANCH_INDIRECT_CALL: 0
BRANCH_RETURN: 5.53


CPU 1 cumulative IPC: 1.171 instructions: 158249699 cycles: 135148842
CPU 1 Branch Prediction Accuracy: 99.98% MPKI: 0.004379 Average ROB Occupancy at Mispredict: 352
Branch type MPKI
BRANCH_DIRECT_JUMP: 0
BRANCH_INDIRECT: 0
BRANCH_CONDITIONAL: 0.00438
BRANCH_DIRECT_CALL: 0
BRANCH_INDIRECT_CALL: 0
BRANCH_RETURN: 0


CPU 2 cumulative IPC: 1.11 instructions: 150000000 cycles: 135148842
CPU 2 Branch Prediction Accuracy: 96.96% MPKI: 8.474 Average ROB Occupancy at Mispredict: 39.92
Branch type MPKI
BRANCH_DIRECT_JUMP: 0.12
BRANCH_INDIRECT: 0.36
BRANCH_CONDITIONAL: 6.02
BRANCH_DIRECT_CALL: 0.000787
BRANCH_INDIRECT_CALL: 0.409
BRANCH_RETURN: 1.56


CPU 3 cumulative IPC: 2.092 instructions: 282678019 cycles: 135148842
CPU 3 Branch Prediction Accuracy: 95.04% MPKI: 6.651 Average ROB Occupancy at Mispredict: 79.88
Branch type MPKI
BRANCH_DIRECT_JUMP: 0.00029
BRANCH_INDIRECT: 3.54e-06
BRANCH_CONDITIONAL: 6.6
BRANCH_DIRECT_CALL: 0.000608
BRANCH_INDIRECT_CALL: 0
BRANCH_RETURN: 0.0449

LLC TOTAL        ACCESS:     276032 HIT:     195784 MISS:      80248
LLC LOAD         ACCESS:       8221 HIT:       2142 MISS:       6079
LLC RFO          ACCESS:         95 HIT:         16 MISS:         79
LLC PREFETCH     ACCESS:     264651 HIT:     193354 MISS:      71297
LLC WRITE        ACCESS:       2106 HIT:        202 MISS:       1904
LLC TRANSLATION  ACCESS:        959 HIT:         70 MISS:        889
LLC PREFETCH REQUESTED:          0 ISSUED:          0 USEFUL:          0 USELESS:          0
LLC AVERAGE MISS LATENCY: 1030 cycles
LLC TOTAL        ACCESS:    4027562 HIT:    2090828 MISS:    1936734
LLC LOAD         ACCESS:     125068 HIT:      63701 MISS:      61367
LLC RFO          ACCESS:       1223 HIT:       1223 MISS:          0
LLC PREFETCH     ACCESS:    2512362 HIT:     637092 MISS:    1875270
LLC WRITE        ACCESS:    1388331 HIT:    1388327 MISS:          4
LLC TRANSLATION  ACCESS:        578 HIT:        485 MISS:         93
LLC PREFETCH REQUESTED:          0 ISSUED:          0 USEFUL:          0 USELESS:          0
LLC AVERAGE MISS LATENCY: 1030 cycles
LLC TOTAL        ACCESS:     861463 HIT:     653514 MISS:     207949
LLC LOAD         ACCESS:     424135 HIT:     372825 MISS:      51310
LLC RFO          ACCESS:     149367 HIT:      18633 MISS:     130734
LLC PREFETCH     ACCESS:      54450 HIT:      42381 MISS:      12069
LLC WRITE        ACCESS:     198352 HIT:     195114 MISS:       3238
LLC TRANSLATION  ACCESS:      35159 HIT:      24561 MISS:      10598
LLC PREFETCH REQUESTED:          0 ISSUED:          0 USEFUL:          0 USELESS:          0
LLC AVERAGE MISS LATENCY: 1030 cycles
LLC TOTAL        ACCESS:      43278 HIT:      14323 MISS:      28955
LLC LOAD         ACCESS:       6857 HIT:       2079 MISS:       4778
LLC RFO          ACCESS:       8809 HIT:       1442 MISS:       7367
LLC PREFETCH     ACCESS:      17618 HIT:       8081 MISS:       9537
LLC WRITE        ACCESS:       9550 HIT:       2718 MISS:       6832
LLC TRANSLATION  ACCESS:        444 HIT:          3 MISS:        441
LLC PREFETCH REQUESTED:          0 ISSUED:          0 USEFUL:          0 USELESS:          0
LLC AVERAGE MISS LATENCY: 1030 cycles
cpu0_DTLB TOTAL        ACCESS:   57409865 HIT:   57311146 MISS:      98719
cpu0_DTLB LOAD         ACCESS:   57409865 HIT:   57311146 MISS:      98719
cpu0_DTLB RFO          ACCESS:          0 HIT:          0 MISS:          0
cpu0_DTLB PREFETCH     ACCESS:          0 HIT:          0 MISS:          0
cpu0_DTLB WRITE        ACCESS:          0 HIT:          0 MISS:          0
cpu0_DTLB TRANSLATION  ACCESS:          0 HIT:          0 MISS:          0
cpu0_DTLB PREFETCH REQUESTED:          0 ISSUED:          0 USEFUL:          0 USELESS:          0
cpu0_DTLB AVERAGE MISS LATENCY: 26.55 cycles
cpu0_DTLB TOTAL        ACCESS:          0 HIT:          0 MISS:          0
cpu0_DTLB LOAD         ACCESS:          0 HIT:          0 MISS:          0
cpu0_DTLB RFO          ACCESS:          0 HIT:          0 MISS:          0
cpu0_DTLB PREFETCH     ACCESS:          0 HIT:          0 MISS:          0
cpu0_DTLB WRITE        ACCESS:          0 HIT:          0 MISS:          0
cpu0_DTLB TRANSLATION  ACCESS:          0 HIT:          0 MISS:          0
cpu0_DTLB PREFETCH REQUESTED:          0 ISSUED:          0 USEFUL:          0 USELESS:          0
cpu0_DTLB AVERAGE MISS LATENCY: 26.55 cycles
cpu0_DTLB TOTAL        ACCESS:          0 HIT:          0 MISS:          0
cpu0_DTLB LOAD         ACCESS:          0 HIT:          0 MISS:          0
cpu0_DTLB RFO          ACCESS:          0 HIT:          0 MISS:          0
cpu0_DTLB PREFETCH     ACCESS:          0 HIT:          0 MISS:          0
cpu0_DTLB WRITE        ACCESS:          0 HIT:          0 MISS:          0
cpu0_DTLB TRANSLATION  ACCESS:          0 HIT:          0 MISS:          0
cpu0_DTLB PREFETCH REQUESTED:          0 ISSUED:          0 USEFUL:          0 USELESS:          0
cpu0_DTLB AVERAGE MISS LATENCY: 26.55 cycles
cpu0_DTLB TOTAL        ACCESS:          0 HIT:          0 MISS:          0
cpu0_DTLB LOAD         ACCESS:          0 HIT:          0 MISS:          0
cpu0_DTLB RFO          ACCESS:          0 HIT:          0 MISS:          0
cpu0_DTLB PREFETCH     ACCESS:          0 HIT:          0 MISS:          0
cpu0_DTLB WRITE        ACCESS:          0 HIT:          0 MISS:          0
cpu0_DTLB TRANSLATION  ACCESS:          0 HIT:          0 MISS:          0
cpu0_DTLB PREFETCH REQUESTED:          0 ISSUED:          0 USEFUL:          0 USELESS:          0
cpu0_DTLB AVERAGE MISS LATENCY: 26.55 cycles
cpu0_ITLB TOTAL        ACCESS:       2391 HIT:       2391 MISS:          0
cpu0_ITLB LOAD         ACCESS:       2391 HIT:       2391 MISS:          0
cpu0_ITLB RFO          ACCESS:          0 HIT:          0 MISS:          0
cpu0_ITLB PREFETCH     ACCESS:          0 HIT:          0 MISS:          0
cpu0_ITLB WRITE        ACCESS:          0 HIT:          0 MISS:          0
cpu0_ITLB TRANSLATION  ACCESS:          0 HIT:          0 MISS:          0
cpu0_ITLB PREFETCH REQUESTED:          0 ISSUED:          0 USEFUL:          0 USELESS:          0
cpu0_ITLB AVERAGE MISS LATENCY: -nan cycles
cpu0_ITLB TOTAL        ACCESS:          0 HIT:          0 MISS:          0
cpu0_ITLB LOAD         ACCESS:          0 HIT:          0 MISS:          0
cpu0_ITLB RFO          ACCESS:          0 HIT:          0 MISS:          0
cpu0_ITLB PREFETCH     ACCESS:          0 HIT:          0 MISS:          0
cpu0_ITLB WRITE        ACCESS:          0 HIT:          0 MISS:          0
cpu0_ITLB TRANSLATION  ACCESS:          0 HIT:          0 MISS:          0
cpu0_ITLB PREFETCH REQUESTED:          0 ISSUED:          0 USEFUL:          0 USELESS:          0
cpu0_ITLB AVERAGE MISS LATENCY: -nan cycles
cpu0_ITLB TOTAL        ACCESS:          0 HIT:          0 MISS:          0
cpu0_ITLB LOAD         ACCESS:          0 HIT:          0 MISS:          0
cpu0_ITLB RFO          ACCESS:          0 HIT:          0 MISS:          0
cpu0_ITLB PREFETCH     ACCESS:          0 HIT:          0 MISS:          0
cpu0_ITLB WRITE        ACCESS:          0 HIT:          0 MISS:          0
cpu0_ITLB TRANSLATION  ACCESS:          0 HIT:          0 MISS:          0
cpu0_ITLB PREFETCH REQUESTED:          0 ISSUED:          0 USEFUL:          0 USELESS:          0
cpu0_ITLB AVERAGE MISS LATENCY: -nan cycles
cpu0_ITLB TOTAL        ACCESS:          0 HIT:          0 MISS:          0
cpu0_ITLB LOAD         ACCESS:          0 HIT:          0 MISS:          0
cpu0_ITLB RFO          ACCESS:          0 HIT:          0 MISS:          0
cpu0_ITLB PREFETCH     ACCESS:          0 HIT:          0 MISS:          0
cpu0_ITLB WRITE        ACCESS:          0 HIT:          0 MISS:          0
cpu0_ITLB TRANSLATION  ACCESS:          0 HIT:          0 MISS:          0
cpu0_ITLB PREFETCH REQUESTED:          0 ISSUED:          0 USEFUL:          0 USELESS:          0
cpu0_ITLB AVERAGE MISS LATENCY: -nan cycles
cpu0_L1D TOTAL        ACCESS:   74857661 HIT:   73761488 MISS:    1096173
cpu0_L1D LOAD         ACCESS:   43717183 HIT:   42630412 MISS:    1086771
cpu0_L1D RFO          ACCESS:          0 HIT:          0 MISS:          0
cpu0_L1D PREFETCH     ACCESS:          0 HIT:          0 MISS:          0
cpu0_L1D WRITE        ACCESS:   31138062 HIT:   31131024 MISS:       7038
cpu0_L1D TRANSLATION  ACCESS:       2416 HIT:         52 MISS:       2364
cpu0_L1D PREFETCH REQUESTED:          0 ISSUED:          0 USEFUL:          0 USELESS:          0
cpu0_L1D AVERAGE MISS LATENCY: 19.71 cycles
cpu0_L1D TOTAL        ACCESS:          0 HIT:          0 MISS:          0
cpu0_L1D LOAD         ACCESS:          0 HIT:          0 MISS:          0
cpu0_L1D RFO          ACCESS:          0 HIT:          0 MISS:          0
cpu0_L1D PREFETCH     ACCESS:          0 HIT:          0 MISS:          0
cpu0_L1D WRITE        ACCESS:          0 HIT:          0 MISS:          0
cpu0_L1D TRANSLATION  ACCESS:          0 HIT:          0 MISS:          0
cpu0_L1D PREFETCH REQUESTED:          0 ISSUED:          0 USEFUL:          0 USELESS:          0
cpu0_L1D AVERAGE MISS LATENCY: 19.71 cycles
cpu0_L1D TOTAL        ACCESS:          0 HIT:          0 MISS:          0
cpu0_L1D LOAD         ACCESS:          0 HIT:          0 MISS:          0
cpu0_L1D RFO          ACCESS:          0 HIT:          0 MISS:          0
cpu0_L1D PREFETCH     ACCESS:          0 HIT:          0 MISS:          0
cpu0_L1D WRITE        ACCESS:          0 HIT:          0 MISS:          0
cpu0_L1D TRANSLATION  ACCESS:          0 HIT:          0 MISS:          0
cpu0_L1D PREFETCH REQUESTED:          0 ISSUED:          0 USEFUL:          0 USELESS:          0
cpu0_L1D AVERAGE MISS LATENCY: 19.71 cycles
cpu0_L1D TOTAL        ACCESS:          0 HIT:          0 MISS:          0
cpu0_L1D LOAD         ACCESS:          0 HIT:          0 MISS:          0
cpu0_L1D RFO          ACCESS:          0 HIT:          0 MISS:          0
cpu0_L1D PREFETCH     ACCESS:          0 HIT:          0 MISS:          0
cpu0_L1D WRITE        ACCESS:          0 HIT:          0 MISS:          0
cpu0_L1D TRANSLATION  ACCESS:          0 HIT:          0 MISS:          0
cpu0_L1D PREFETCH REQUESTED:          0 ISSUED:          0 USEFUL:          0 USELESS:          0
cpu0_L1D AVERAGE MISS LATENCY: 19.71 cycles
cpu0_L1I TOTAL        ACCESS:       2916 HIT:       2915 MISS:          1
cpu0_L1I LOAD         ACCESS:       2916 HIT:       2915 MISS:          1
cpu0_L1I RFO          ACCESS:          0 HIT:          0 MISS:          0
cpu0_L1I PREFETCH     ACCESS:          0 HIT:          0 MISS:          0
cpu0_L1I WRITE        ACCESS:          0 HIT:          0 MISS:          0
cpu0_L1I TRANSLATION  ACCESS:          0 HIT:          0 MISS:          0
cpu0_L1I PREFETCH REQUESTED:          0 ISSUED:          0 USEFUL:          0 USELESS:          0
cpu0_L1I AVERAGE MISS LATENCY: 730 cycles
cpu0_L1I TOTAL        ACCESS:          0 HIT:          0 MISS:          0
cpu0_L1I LOAD         ACCESS:          0 HIT:          0 MISS:          0
cpu0_L1I RFO          ACCESS:          0 HIT:          0 MISS:          0
cpu0_L1I PREFETCH     ACCESS:          0 HIT:          0 MISS:          0
cpu0_L1I WRITE        ACCESS:          0 HIT:          0 MISS:          0
cpu0_L1I TRANSLATION  ACCESS:          0 HIT:          0 MISS:          0
cpu0_L1I PREFETCH REQUESTED:          0 ISSUED:          0 USEFUL:          0 USELESS:          0
cpu0_L1I AVERAGE MISS LATENCY: 730 cycles
cpu0_L1I TOTAL        ACCESS:          0 HIT:          0 MISS:          0
cpu0_L1I LOAD         ACCESS:          0 HIT:          0 MISS:          0
cpu0_L1I RFO          ACCESS:          0 HIT:          0 MISS:          0
cpu0_L1I PREFETCH     ACCESS:          0 HIT:          0 MISS:          0
cpu0_L1I WRITE        ACCESS:          0 HIT:          0 MISS:          0
cpu0_L1I TRANSLATION  ACCESS:          0 HIT:          0 MISS:          0
cpu0_L1I PREFETCH REQUESTED:          0 ISSUED:          0 USEFUL:          0 USELESS:          0
cpu0_L1I AVERAGE MISS LATENCY: 730 cycles
cpu0_L1I TOTAL        ACCESS:          0 HIT:          0 MISS:          0
cpu0_L1I LOAD         ACCESS:          0 HIT:          0 MISS:          0
cpu0_L1I RFO          ACCESS:          0 HIT:          0 MISS:          0
cpu0_L1I PREFETCH     ACCESS:          0 HIT:          0 MISS:          0
cpu0_L1I WRITE        ACCESS:          0 HIT:          0 MISS:          0
cpu0_L1I TRANSLATION  ACCESS:          0 HIT:          0 MISS:          0
cpu0_L1I PREFETCH REQUESTED:          0 ISSUED:          0 USEFUL:          0 USELESS:          0
cpu0_L1I AVERAGE MISS LATENCY: 730 cycles
cpu0_L2C TOTAL        ACCESS:    2087222 HIT:    1813079 MISS:     274143
cpu0_L2C LOAD         ACCESS:    1077940 HIT:    1069586 MISS:       8354
cpu0_L2C RFO          ACCESS:       1984 HIT:       1889 MISS:         95
cpu0_L2C PREFETCH     ACCESS:     636793 HIT:     372079 MISS:     264714
cpu0_L2C WRITE        ACCESS:     368141 HIT:     368120 MISS:         21
cpu0_L2C TRANSLATION  ACCESS:       2364 HIT:       1405 MISS:        959
cpu0_L2C PREFETCH REQUESTED:     636793 ISSUED:     636793 USEFUL:      50013 USELESS:      13787
cpu0_L2C AVERAGE MISS LATENCY: 145 cycles
cpu0_L2C TOTAL        ACCESS:          0 HIT:          0 MISS:          0
cpu0_L2C LOAD         ACCESS:          0 HIT:          0 MISS:          0
cpu0_L2C RFO          ACCESS:          0 HIT:          0 MISS:          0
cpu0_L2C PREFETCH     ACCESS:          0 HIT:          0 MISS:          0
cpu0_L2C WRITE        ACCESS:          0 HIT:          0 MISS:          0
cpu0_L2C TRANSLATION  ACCESS:          0 HIT:          0 MISS:          0
cpu0_L2C PREFETCH REQUESTED:     636793 ISSUED:     636793 USEFUL:      50013 USELESS:      13787
cpu0_L2C AVERAGE MISS LATENCY: 145 cycles
cpu0_L2C TOTAL        ACCESS:          0 HIT:          0 MISS:          0
cpu0_L2C LOAD         ACCESS:          0 HIT:          0 MISS:          0
cpu0_L2C RFO          ACCESS:          0 HIT:          0 MISS:          0
cpu0_L2C PREFETCH     ACCESS:          0 HIT:          0 MISS:          0
cpu0_L2C WRITE        ACCESS:          0 HIT:          0 MISS:          0
cpu0_L2C TRANSLATION  ACCESS:          0 HIT:          0 MISS:          0
cpu0_L2C PREFETCH REQUESTED:     636793 ISSUED:     636793 USEFUL:      50013 USELESS:      13787
cpu0_L2C AVERAGE MISS LATENCY: 145 cycles
cpu0_L2C TOTAL        ACCESS:          0 HIT:          0 MISS:          0
cpu0_L2C LOAD         ACCESS:          0 HIT:          0 MISS:          0
cpu0_L2C RFO          ACCESS:          0 HIT:          0 MISS:          0
cpu0_L2C PREFETCH     ACCESS:          0 HIT:          0 MISS:          0
cpu0_L2C WRITE        ACCESS:          0 HIT:          0 MISS:          0
cpu0_L2C TRANSLATION  ACCESS:          0 HIT:          0 MISS:          0
cpu0_L2C PREFETCH REQUESTED:     636793 ISSUED:     636793 USEFUL:      50013 USELESS:      13787
cpu0_L2C AVERAGE MISS LATENCY: 145 cycles
cpu0_STLB TOTAL        ACCESS:      90981 HIT:      88603 MISS:       2378
cpu0_STLB LOAD         ACCESS:      90981 HIT:      88603 MISS:       2378
cpu0_STLB RFO          ACCESS:          0 HIT:          0 MISS:          0
cpu0_STLB PREFETCH     ACCESS:          0 HIT:          0 MISS:          0
cpu0_STLB WRITE        ACCESS:          0 HIT:          0 MISS:          0
cpu0_STLB TRANSLATION  ACCESS:          0 HIT:          0 MISS:          0
cpu0_STLB PREFETCH REQUESTED:          0 ISSUED:          0 USEFUL:          0 USELESS:          0
cpu0_STLB AVERAGE MISS LATENCY: 817.3 cycles
cpu0_STLB TOTAL        ACCESS:          0 HIT:          0 MISS:          0
cpu0_STLB LOAD         ACCESS:          0 HIT:          0 MISS:          0
cpu0_STLB RFO          ACCESS:          0 HIT:          0 MISS:          0
cpu0_STLB PREFETCH     ACCESS:          0 HIT:          0 MISS:          0
cpu0_STLB WRITE        ACCESS:          0 HIT:          0 MISS:          0
cpu0_STLB TRANSLATION  ACCESS:          0 HIT:          0 MISS:          0
cpu0_STLB PREFETCH REQUESTED:          0 ISSUED:          0 USEFUL:          0 USELESS:          0
cpu0_STLB AVERAGE MISS LATENCY: 817.3 cycles
cpu0_STLB TOTAL        ACCESS:          0 HIT:          0 MISS:          0
cpu0_STLB LOAD         ACCESS:          0 HIT:          0 MISS:          0
cpu0_STLB RFO          ACCESS:          0 HIT:          0 MISS:          0
cpu0_STLB PREFETCH     ACCESS:          0 HIT:          0 MISS:          0
cpu0_STLB WRITE        ACCESS:          0 HIT:          0 MISS:          0
cpu0_STLB TRANSLATION  ACCESS:          0 HIT:          0 MISS:          0
cpu0_STLB PREFETCH REQUESTED:          0 ISSUED:          0 USEFUL:          0 USELESS:          0
cpu0_STLB AVERAGE MISS LATENCY: 817.3 cycles
cpu0_STLB TOTAL        ACCESS:          0 HIT:          0 MISS:          0
cpu0_STLB LOAD         ACCESS:          0 HIT:          0 MISS:          0
cpu0_STLB RFO          ACCESS:          0 HIT:          0 MISS:          0
cpu0_STLB PREFETCH     ACCESS:          0 HIT:          0 MISS:          0
cpu0_STLB WRITE        ACCESS:          0 HIT:          0 MISS:          0
cpu0_STLB TRANSLATION  ACCESS:          0 HIT:          0 MISS:          0
cpu0_STLB PREFETCH REQUESTED:          0 ISSUED:          0 USEFUL:          0 USELESS:          0
cpu0_STLB AVERAGE MISS LATENCY: 817.3 cycles
cpu1_DTLB TOTAL        ACCESS:          0 HIT:          0 MISS:          0
cpu1_DTLB LOAD         ACCESS:          0 HIT:          0 MISS:          0
cpu1_DTLB RFO          ACCESS:          0 HIT:          0 MISS:          0
cpu1_DTLB PREFETCH     ACCESS:          0 HIT:          0 MISS:          0
cpu1_DTLB WRITE        ACCESS:          0 HIT:          0 MISS:          0
cpu1_DTLB TRANSLATION  ACCESS:          0 HIT:          0 MISS:          0
cpu1_DTLB PREFETCH REQUESTED:          0 ISSUED:          0 USEFUL:          0 USELESS:          0
cpu1_DTLB AVERAGE MISS LATENCY: 23.68 cycles
cpu1_DTLB TOTAL        ACCESS:   17231505 HIT:   17080954 MISS:     150551
cpu1_DTLB LOAD         ACCESS:   17231505 HIT:   17080954 MISS:     150551
cpu1_DTLB RFO          ACCESS:          0 HIT:          0 MISS:          0
cpu1_DTLB PREFETCH     ACCESS:          0 HIT:          0 MISS:          0
cpu1_DTLB WRITE        ACCESS:          0 HIT:          0 MISS:          0
cpu1_DTLB TRANSLATION  ACCESS:          0 HIT:          0 MISS:          0
cpu1_DTLB PREFETCH REQUESTED:          0 ISSUED:          0 USEFUL:          0 USELESS:          0
cpu1_DTLB AVERAGE MISS LATENCY: 23.68 cycles
cpu1_DTLB TOTAL        ACCESS:          0 HIT:          0 MISS:          0
cpu1_DTLB LOAD         ACCESS:          0 HIT:          0 MISS:          0
cpu1_DTLB RFO          ACCESS:          0 HIT:          0 MISS:          0
cpu1_DTLB PREFETCH     ACCESS:          0 HIT:          0 MISS:          0
cpu1_DTLB WRITE        ACCESS:          0 HIT:          0 MISS:          0
cpu1_DTLB TRANSLATION  ACCESS:          0 HIT:          0 MISS:          0
cpu1_DTLB PREFETCH REQUESTED:          0 ISSUED:          0 USEFUL:          0 USELESS:          0
cpu1_DTLB AVERAGE MISS LATENCY: 23.68 cycles
cpu1_DTLB TOTAL        ACCESS:          0 HIT:          0 MISS:          0
cpu1_DTLB LOAD         ACCESS:          0 HIT:          0 MISS:          0
cpu1_DTLB RFO          ACCESS:          0 HIT:          0 MISS:          0
cpu1_DTLB PREFETCH     ACCESS:          0 HIT:          0 MISS:          0
cpu1_DTLB WRITE        ACCESS:          0 HIT:          0 MISS:          0
cpu1_DTLB TRANSLATION  ACCESS:          0 HIT:          0 MISS:          0
cpu1_DTLB PREFETCH REQUESTED:          0 ISSUED:          0 USEFUL:          0 USELESS:          0
cpu1_DTLB AVERAGE MISS LATENCY: 23.68 cycles
cpu1_ITLB TOTAL        ACCESS:          0 HIT:          0 MISS:          0
cpu1_ITLB LOAD         ACCESS:          0 HIT:          0 MISS:          0
cpu1_ITLB RFO          ACCESS:          0 HIT:          0 MISS:          0
cpu1_ITLB PREFETCH     ACCESS:          0 HIT:          0 MISS:          0
cpu1_ITLB WRITE        ACCESS:          0 HIT:          0 MISS:          0
cpu1_ITLB TRANSLATION  ACCESS:          0 HIT:          0 MISS:          0
cpu1_ITLB PREFETCH REQUESTED:          0 ISSUED:          0 USEFUL:          0 USELESS:          0
cpu1_ITLB AVERAGE MISS LATENCY: -nan cycles
cpu1_ITLB TOTAL        ACCESS:          0 HIT:          0 MISS:          0
cpu1_ITLB LOAD         ACCESS:          0 HIT:          0 MISS:          0
cpu1_ITLB RFO          ACCESS:          0 HIT:          0 MISS:          0
cpu1_ITLB PREFETCH     ACCESS:          0 HIT:          0 MISS:          0
cpu1_ITLB WRITE        ACCESS:          0 HIT:          0 MISS:          0
cpu1_ITLB TRANSLATION  ACCESS:          0 HIT:          0 MISS:          0
cpu1_ITLB PREFETCH REQUESTED:          0 ISSUED:          0 USEFUL:          0 USELESS:          0
cpu1_ITLB AVERAGE MISS LATENCY: -nan cycles
cpu1_ITLB TOTAL        ACCESS:          0 HIT:          0 MISS:          0
cpu1_ITLB LOAD         ACCESS:          0 HIT:          0 MISS:          0
cpu1_ITLB RFO          ACCESS:          0 HIT:          0 MISS:          0
cpu1_ITLB PREFETCH     ACCESS:          0 HIT:          0 MISS:          0
cpu1_ITLB WRITE        ACCESS:          0 HIT:          0 MISS:          0
cpu1_ITLB TRANSLATION  ACCESS:          0 HIT:          0 MISS:          0
cpu1_ITLB PREFETCH REQUESTED:          0 ISSUED:          0 USEFUL:          0 USELESS:          0
cpu1_ITLB AVERAGE MISS LATENCY: -nan cycles
cpu1_ITLB TOTAL        ACCESS:          0 HIT:          0 MISS:          0
cpu1_ITLB LOAD         ACCESS:          0 HIT:          0 MISS:          0
cpu1_ITLB RFO          ACCESS:          0 HIT:          0 MISS:          0
cpu1_ITLB PREFETCH     ACCESS:          0 HIT:          0 MISS:          0
cpu1_ITLB WRITE        ACCESS:          0 HIT:          0 MISS:          0
cpu1_ITLB TRANSLATION  ACCESS:          0 HIT:          0 MISS:          0
cpu1_ITLB PREFETCH REQUESTED:          0 ISSUED:          0 USEFUL:          0 USELESS:          0
cpu1_ITLB AVERAGE MISS LATENCY: -nan cycles
cpu1_L1D TOTAL        ACCESS:          0 HIT:          0 MISS:          0
cpu1_L1D LOAD         ACCESS:          0 HIT:          0 MISS:          0
cpu1_L1D RFO          ACCESS:          0 HIT:          0 MISS:          0
cpu1_L1D PREFETCH     ACCESS:          0 HIT:          0 MISS:          0
cpu1_L1D WRITE        ACCESS:          0 HIT:          0 MISS:          0
cpu1_L1D TRANSLATION  ACCESS:          0 HIT:          0 MISS:          0
cpu1_L1D PREFETCH REQUESTED:          0 ISSUED:          0 USEFUL:          0 USELESS:          0
cpu1_L1D AVERAGE MISS LATENCY: 89.29 cycles
cpu1_L1D TOTAL        ACCESS:   25738288 HIT:   22733995 MISS:    3004293
cpu1_L1D LOAD         ACCESS:   14606489 HIT:   11611966 MISS:    2994523
cpu1_L1D RFO          ACCESS:          0 HIT:          0 MISS:          0
cpu1_L1D PREFETCH     ACCESS:          0 HIT:          0 MISS:          0
cpu1_L1D WRITE        ACCESS:   11109988 HIT:   11101089 MISS:       8899
cpu1_L1D TRANSLATION  ACCESS:      21811 HIT:      20940 MISS:        871
cpu1_L1D PREFETCH REQUESTED:          0 ISSUED:          0 USEFUL:          0 USELESS:          0
cpu1_L1D AVERAGE MISS LATENCY: 89.29 cycles
cpu1_L1D TOTAL        ACCESS:          0 HIT:          0 MISS:          0
cpu1_L1D LOAD         ACCESS:          0 HIT:          0 MISS:          0
cpu1_L1D RFO          ACCESS:          0 HIT:          0 MISS:          0
cpu1_L1D PREFETCH     ACCESS:          0 HIT:          0 MISS:          0
cpu1_L1D WRITE        ACCESS:          0 HIT:          0 MISS:          0
cpu1_L1D TRANSLATION  ACCESS:          0 HIT:          0 MISS:          0
cpu1_L1D PREFETCH REQUESTED:          0 ISSUED:          0 USEFUL:          0 USELESS:          0
cpu1_L1D AVERAGE MISS LATENCY: 89.29 cycles
cpu1_L1D TOTAL        ACCESS:          0 HIT:          0 MISS:          0
cpu1_L1D LOAD         ACCESS:          0 HIT:          0 MISS:          0
cpu1_L1D RFO          ACCESS:          0 HIT:          0 MISS:          0
cpu1_L1D PREFETCH     ACCESS:          0 HIT:          0 MISS:          0
cpu1_L1D WRITE        ACCESS:          0 HIT:          0 MISS:          0
cpu1_L1D TRANSLATION  ACCESS:          0 HIT:          0 MISS:          0
cpu1_L1D PREFETCH REQUESTED:          0 ISSUED:          0 USEFUL:          0 USELESS:          0
cpu1_L1D AVERAGE MISS LATENCY: 89.29 cycles
cpu1_L1I TOTAL        ACCESS:          0 HIT:          0 MISS:          0
cpu1_L1I LOAD         ACCESS:          0 HIT:          0 MISS:          0
cpu1_L1I RFO          ACCESS:          0 HIT:          0 MISS:          0
cpu1_L1I PREFETCH     ACCESS:          0 HIT:          0 MISS:          0
cpu1_L1I WRITE        ACCESS:          0 HIT:          0 MISS:          0
cpu1_L1I TRANSLATION  ACCESS:          0 HIT:          0 MISS:          0
cpu1_L1I PREFETCH REQUESTED:          0 ISSUED:          0 USEFUL:          0 USELESS:          0
cpu1_L1I AVERAGE MISS LATENCY: -nan cycles
cpu1_L1I TOTAL        ACCESS:          0 HIT:          0 MISS:          0
cpu1_L1I LOAD         ACCESS:          0 HIT:          0 MISS:          0
cpu1_L1I RFO          ACCESS:          0 HIT:          0 MISS:          0
cpu1_L1I PREFETCH     ACCESS:          0 HIT:          0 MISS:          0
cpu1_L1I WRITE        ACCESS:          0 HIT:          0 MISS:          0
cpu1_L1I TRANSLATION  ACCESS:          0 HIT:          0 MISS:          0
cpu1_L1I PREFETCH REQUESTED:          0 ISSUED:          0 USEFUL:          0 USELESS:          0
cpu1_L1I AVERAGE MISS LATENCY: -nan cycles
cpu1_L1I TOTAL        ACCESS:          0 HIT:          0 MISS:          0
cpu1_L1I LOAD         ACCESS:          0 HIT:          0 MISS:          0
cpu1_L1I RFO          ACCESS:          0 HIT:          0 MISS:          0
cpu1_L1I PREFETCH     ACCESS:          0 HIT:          0 MISS:          0
cpu1_L1I WRITE        ACCESS:          0 HIT:          0 MISS:          0
cpu1_L1I TRANSLATION  ACCESS:          0 HIT:          0 MISS:          0
cpu1_L1I PREFETCH REQUESTED:          0 ISSUED:          0 USEFUL:          0 USELESS:          0
cpu1_L1I AVERAGE MISS LATENCY: -nan cycles
cpu1_L1I TOTAL        ACCESS:          0 HIT:          0 MISS:          0
cpu1_L1I LOAD         ACCESS:          0 HIT:          0 MISS:          0
cpu1_L1I RFO          ACCESS:          0 HIT:          0 MISS:          0
cpu1_L1I PREFETCH     ACCESS:          0 HIT:          0 MISS:          0
cpu1_L1I WRITE        ACCESS:          0 HIT:          0 MISS:          0
cpu1_L1I TRANSLATION  ACCESS:          0 HIT:          0 MISS:          0
cpu1_L1I PREFETCH REQUESTED:          0 ISSUED:          0 USEFUL:          0 USELESS:          0
cpu1_L1I AVERAGE MISS LATENCY: -nan cycles
cpu1_L2C TOTAL        ACCESS:          0 HIT:          0 MISS:          0
cpu1_L2C LOAD         ACCESS:          0 HIT:          0 MISS:          0
cpu1_L2C RFO          ACCESS:          0 HIT:          0 MISS:          0
cpu1_L2C PREFETCH     ACCESS:          0 HIT:          0 MISS:          0
cpu1_L2C WRITE        ACCESS:          0 HIT:          0 MISS:          0
cpu1_L2C TRANSLATION  ACCESS:          0 HIT:          0 MISS:          0
cpu1_L2C PREFETCH REQUESTED:    9606396 ISSUED:    9594951 USEFUL:    1388286 USELESS:      99282
cpu1_L2C AVERAGE MISS LATENCY: 428.9 cycles
cpu1_L2C TOTAL        ACCESS:   13080271 HIT:   10068712 MISS:    3011559
cpu1_L2C LOAD         ACCESS:    2091800 HIT:    1598623 MISS:     493177
cpu1_L2C RFO          ACCESS:       2422 HIT:       1199 MISS:       1223
cpu1_L2C PREFETCH     ACCESS:    9594966 HIT:    7078385 MISS:    2516581
cpu1_L2C WRITE        ACCESS:    1390216 HIT:    1390216 MISS:          0
cpu1_L2C TRANSLATION  ACCESS:        867 HIT:        289 MISS:        578
cpu1_L2C PREFETCH REQUESTED:    9606396 ISSUED:    9594951 USEFUL:    1388286 USELESS:      99282
cpu1_L2C AVERAGE MISS LATENCY: 428.9 cycles
cpu1_L2C TOTAL        ACCESS:          0 HIT:          0 MISS:          0
cpu1_L2C LOAD         ACCESS:          0 HIT:          0 MISS:          0
cpu1_L2C RFO          ACCESS:          0 HIT:          0 MISS:          0
cpu1_L2C PREFETCH     ACCESS:          0 HIT:          0 MISS:          0
cpu1_L2C WRITE        ACCESS:          0 HIT:          0 MISS:          0
cpu1_L2C TRANSLATION  ACCESS:          0 HIT:          0 MISS:          0
cpu1_L2C PREFETCH REQUESTED:    9606396 ISSUED:    9594951 USEFUL:    1388286 USELESS:      99282
cpu1_L2C AVERAGE MISS LATENCY: 428.9 cycles
cpu1_L2C TOTAL        ACCESS:          0 HIT:          0 MISS:          0
cpu1_L2C LOAD         ACCESS:          0 HIT:          0 MISS:          0
cpu1_L2C RFO          ACCESS:          0 HIT:          0 MISS:          0
cpu1_L2C PREFETCH     ACCESS:          0 HIT:          0 MISS:          0
cpu1_L2C WRITE        ACCESS:          0 HIT:          0 MISS:          0
cpu1_L2C TRANSLATION  ACCESS:          0 HIT:          0 MISS:          0
cpu1_L2C PREFETCH REQUESTED:    9606396 ISSUED:    9594951 USEFUL:    1388286 USELESS:      99282
cpu1_L2C AVERAGE MISS LATENCY: 428.9 cycles
cpu1_STLB TOTAL        ACCESS:          0 HIT:          0 MISS:          0
cpu1_STLB LOAD         ACCESS:          0 HIT:          0 MISS:          0
cpu1_STLB RFO          ACCESS:          0 HIT:          0 MISS:          0
cpu1_STLB PREFETCH     ACCESS:          0 HIT:          0 MISS:          0
cpu1_STLB WRITE        ACCESS:          0 HIT:          0 MISS:          0
cpu1_STLB TRANSLATION  ACCESS:          0 HIT:          0 MISS:          0
cpu1_STLB PREFETCH REQUESTED:          0 ISSUED:          0 USEFUL:          0 USELESS:          0
cpu1_STLB AVERAGE MISS LATENCY: 212.9 cycles
cpu1_STLB TOTAL        ACCESS:      36922 HIT:      15197 MISS:      21725
cpu1_STLB LOAD         ACCESS:      36922 HIT:      15197 MISS:      21725
cpu1_STLB RFO          ACCESS:          0 HIT:          0 MISS:          0
cpu1_STLB PREFETCH     ACCESS:          0 HIT:          0 MISS:          0
cpu1_STLB WRITE        ACCESS:          0 HIT:          0 MISS:          0
cpu1_STLB TRANSLATION  ACCESS:          0 HIT:          0 MISS:          0
cpu1_STLB PREFETCH REQUESTED:          0 ISSUED:          0 USEFUL:          0 USELESS:          0
cpu1_STLB AVERAGE MISS LATENCY: 212.9 cycles
cpu1_STLB TOTAL        ACCESS:          0 HIT:          0 MISS:          0
cpu1_STLB LOAD         ACCESS:          0 HIT:          0 MISS:          0
cpu1_STLB RFO          ACCESS:          0 HIT:          0 MISS:          0
cpu1_STLB PREFETCH     ACCESS:          0 HIT:          0 MISS:          0
cpu1_STLB WRITE        ACCESS:          0 HIT:          0 MISS:          0
cpu1_STLB TRANSLATION  ACCESS:          0 HIT:          0 MISS:          0
cpu1_STLB PREFETCH REQUESTED:          0 ISSUED:          0 USEFUL:          0 USELESS:          0
cpu1_STLB AVERAGE MISS LATENCY: 212.9 cycles
cpu1_STLB TOTAL        ACCESS:          0 HIT:          0 MISS:          0
cpu1_STLB LOAD         ACCESS:          0 HIT:          0 MISS:          0
cpu1_STLB RFO          ACCESS:          0 HIT:          0 MISS:          0
cpu1_STLB PREFETCH     ACCESS:          0 HIT:          0 MISS:          0
cpu1_STLB WRITE        ACCESS:          0 HIT:          0 MISS:          0
cpu1_STLB TRANSLATION  ACCESS:          0 HIT:          0 MISS:          0
cpu1_STLB PREFETCH REQUESTED:          0 ISSUED:          0 USEFUL:          0 USELESS:          0
cpu1_STLB AVERAGE MISS LATENCY: 212.9 cycles
cpu2_DTLB TOTAL        ACCESS:          0 HIT:          0 MISS:          0
cpu2_DTLB LOAD         ACCESS:          0 HIT:          0 MISS:          0
cpu2_DTLB RFO          ACCESS:          0 HIT:          0 MISS:          0
cpu2_DTLB PREFETCH     ACCESS:          0 HIT:          0 MISS:          0
cpu2_DTLB WRITE        ACCESS:          0 HIT:          0 MISS:          0
cpu2_DTLB TRANSLATION  ACCESS:          0 HIT:          0 MISS:          0
cpu2_DTLB PREFETCH REQUESTED:          0 ISSUED:          0 USEFUL:          0 USELESS:          0
cpu2_DTLB AVERAGE MISS LATENCY: 8.351 cycles
cpu2_DTLB TOTAL        ACCESS:          0 HIT:          0 MISS:          0
cpu2_DTLB LOAD         ACCESS:          0 HIT:          0 MISS:          0
cpu2_DTLB RFO          ACCESS:          0 HIT:          0 MISS:          0
cpu2_DTLB PREFETCH     ACCESS:          0 HIT:          0 MISS:          0
cpu2_DTLB WRITE        ACCESS:          0 HIT:          0 MISS:          0
cpu2_DTLB TRANSLATION  ACCESS:          0 HIT:          0 MISS:          0
cpu2_DTLB PREFETCH REQUESTED:          0 ISSUED:          0 USEFUL:          0 USELESS:          0
cpu2_DTLB AVERAGE MISS LATENCY: 8.351 cycles
cpu2_DTLB TOTAL        ACCESS:   30072565 HIT:   24076157 MISS:    5996408
cpu2_DTLB LOAD         ACCESS:   30072565 HIT:   24076157 MISS:    5996408
cpu2_DTLB RFO          ACCESS:          0 HIT:          0 MISS:          0
cpu2_DTLB PREFETCH     ACCESS:          0 HIT:          0 MISS:          0
cpu2_DTLB WRITE        ACCESS:          0 HIT:          0 MISS:          0
cpu2_DTLB TRANSLATION  ACCESS:          0 HIT:          0 MISS:          0
cpu2_DTLB PREFETCH REQUESTED:          0 ISSUED:          0 USEFUL:          0 USELESS:          0
cpu2_DTLB AVERAGE MISS LATENCY: 8.351 cycles
cpu2_DTLB TOTAL        ACCESS:          0 HIT:          0 MISS:          0
cpu2_DTLB LOAD         ACCESS:          0 HIT:          0 MISS:          0
cpu2_DTLB RFO          ACCESS:          0 HIT:          0 MISS:          0
cpu2_DTLB PREFETCH     ACCESS:          0 HIT:          0 MISS:          0
cpu2_DTLB WRITE        ACCESS:          0 HIT:          0 MISS:          0
cpu2_DTLB TRANSLATION  ACCESS:          0 HIT:          0 MISS:          0
cpu2_DTLB PREFETCH REQUESTED:          0 ISSUED:          0 USEFUL:          0 USELESS:          0
cpu2_DTLB AVERAGE MISS LATENCY: 8.351 cycles
cpu2_ITLB TOTAL        ACCESS:          0 HIT:          0 MISS:          0
cpu2_ITLB LOAD         ACCESS:          0 HIT:          0 MISS:          0
cpu2_ITLB RFO          ACCESS:          0 HIT:          0 MISS:          0
cpu2_ITLB PREFETCH     ACCESS:          0 HIT:          0 MISS:          0
cpu2_ITLB WRITE        ACCESS:          0 HIT:          0 MISS:          0
cpu2_ITLB TRANSLATION  ACCESS:          0 HIT:          0 MISS:          0
cpu2_ITLB PREFETCH REQUESTED:          0 ISSUED:          0 USEFUL:          0 USELESS:          0
cpu2_ITLB AVERAGE MISS LATENCY: 6.921 cycles
cpu2_ITLB TOTAL        ACCESS:          0 HIT:          0 MISS:          0
cpu2_ITLB LOAD         ACCESS:          0 HIT:          0 MISS:          0
cpu2_ITLB RFO          ACCESS:          0 HIT:          0 MISS:          0
cpu2_ITLB PREFETCH     ACCESS:          0 HIT:          0 MISS:          0
cpu2_ITLB WRITE        ACCESS:          0 HIT:          0 MISS:          0
cpu2_ITLB TRANSLATION  ACCESS:          0 HIT:          0 MISS:          0
cpu2_ITLB PREFETCH REQUESTED:          0 ISSUED:          0 USEFUL:          0 USELESS:          0
cpu2_ITLB AVERAGE MISS LATENCY: 6.921 cycles
cpu2_ITLB TOTAL        ACCESS:    5148654 HIT:    5030181 MISS:     118473
cpu2_ITLB LOAD         ACCESS:    5148654 HIT:    5030181 MISS:     118473
cpu2_ITLB RFO          ACCESS:          0 HIT:          0 MISS:          0
cpu2_ITLB PREFETCH     ACCESS:          0 HIT:          0 MISS:          0
cpu2_ITLB WRITE        ACCESS:          0 HIT:          0 MISS:          0
cpu2_ITLB TRANSLATION  ACCESS:          0 HIT:          0 MISS:          0
cpu2_ITLB PREFETCH REQUESTED:          0 ISSUED:          0 USEFUL:          0 USELESS:          0
cpu2_ITLB AVERAGE MISS LATENCY: 6.921 cycles
cpu2_ITLB TOTAL        ACCESS:          0 HIT:          0 MISS:          0
cpu2_ITLB LOAD         ACCESS:          0 HIT:          0 MISS:          0
cpu2_ITLB RFO          ACCESS:          0 HIT:          0 MISS:          0
cpu2_ITLB PREFETCH     ACCESS:          0 HIT:          0 MISS:          0
cpu2_ITLB WRITE        ACCESS:          0 HIT:          0 MISS:          0
cpu2_ITLB TRANSLATION  ACCESS:          0 HIT:          0 MISS:          0
cpu2_ITLB PREFETCH REQUESTED:          0 ISSUED:          0 USEFUL:          0 USELESS:          0
cpu2_ITLB AVERAGE MISS LATENCY: 6.921 cycles
cpu2_L1D TOTAL        ACCESS:          0 HIT:          0 MISS:          0
cpu2_L1D LOAD         ACCESS:          0 HIT:          0 MISS:          0
cpu2_L1D RFO          ACCESS:          0 HIT:          0 MISS:          0
cpu2_L1D PREFETCH     ACCESS:          0 HIT:          0 MISS:          0
cpu2_L1D WRITE        ACCESS:          0 HIT:          0 MISS:          0
cpu2_L1D TRANSLATION  ACCESS:          0 HIT:          0 MISS:          0
cpu2_L1D PREFETCH REQUESTED:          0 ISSUED:          0 USEFUL:          0 USELESS:          0
cpu2_L1D AVERAGE MISS LATENCY: 46.7 cycles
cpu2_L1D TOTAL        ACCESS:          0 HIT:          0 MISS:          0
cpu2_L1D LOAD         ACCESS:          0 HIT:          0 MISS:          0
cpu2_L1D RFO          ACCESS:          0 HIT:          0 MISS:          0
cpu2_L1D PREFETCH     ACCESS:          0 HIT:          0 MISS:          0
cpu2_L1D WRITE        ACCESS:          0 HIT:          0 MISS:          0
cpu2_L1D TRANSLATION  ACCESS:          0 HIT:          0 MISS:          0
cpu2_L1D PREFETCH REQUESTED:          0 ISSUED:          0 USEFUL:          0 USELESS:          0
cpu2_L1D AVERAGE MISS LATENCY: 46.7 cycles
cpu2_L1D TOTAL        ACCESS:   37947038 HIT:   28429434 MISS:    9517604
cpu2_L1D LOAD         ACCESS:   26668891 HIT:   18141080 MISS:    8527811
cpu2_L1D RFO          ACCESS:          0 HIT:          0 MISS:          0
cpu2_L1D PREFETCH     ACCESS:          0 HIT:          0 MISS:          0
cpu2_L1D WRITE        ACCESS:   11013674 HIT:   10275897 MISS:     737777
cpu2_L1D TRANSLATION  ACCESS:     264473 HIT:      12457 MISS:     252016
cpu2_L1D PREFETCH REQUESTED:          0 ISSUED:          0 USEFUL:          0 USELESS:          0
cpu2_L1D AVERAGE MISS LATENCY: 46.7 cycles
cpu2_L1D TOTAL        ACCESS:          0 HIT:          0 MISS:          0
cpu2_L1D LOAD         ACCESS:          0 HIT:          0 MISS:          0
cpu2_L1D RFO          ACCESS:          0 HIT:          0 MISS:          0
cpu2_L1D PREFETCH     ACCESS:          0 HIT:          0 MISS:          0
cpu2_L1D WRITE        ACCESS:          0 HIT:          0 MISS:          0
cpu2_L1D TRANSLATION  ACCESS:          0 HIT:          0 MISS:          0
cpu2_L1D PREFETCH REQUESTED:          0 ISSUED:          0 USEFUL:          0 USELESS:          0
cpu2_L1D AVERAGE MISS LATENCY: 46.7 cycles
cpu2_L1I TOTAL        ACCESS:          0 HIT:          0 MISS:          0
cpu2_L1I LOAD         ACCESS:          0 HIT:          0 MISS:          0
cpu2_L1I RFO          ACCESS:          0 HIT:          0 MISS:          0
cpu2_L1I PREFETCH     ACCESS:          0 HIT:          0 MISS:          0
cpu2_L1I WRITE        ACCESS:          0 HIT:          0 MISS:          0
cpu2_L1I TRANSLATION  ACCESS:          0 HIT:          0 MISS:          0
cpu2_L1I PREFETCH REQUESTED:          0 ISSUED:          0 USEFUL:          0 USELESS:          0
cpu2_L1I AVERAGE MISS LATENCY: 18.93 cycles
cpu2_L1I TOTAL        ACCESS:          0 HIT:          0 MISS:          0
cpu2_L1I LOAD         ACCESS:          0 HIT:          0 MISS:          0
cpu2_L1I RFO          ACCESS:          0 HIT:          0 MISS:          0
cpu2_L1I PREFETCH     ACCESS:          0 HIT:          0 MISS:          0
cpu2_L1I WRITE        ACCESS:          0 HIT:          0 MISS:          0
cpu2_L1I TRANSLATION  ACCESS:          0 HIT:          0 MISS:          0
cpu2_L1I PREFETCH REQUESTED:          0 ISSUED:          0 USEFUL:          0 USELESS:          0
cpu2_L1I AVERAGE MISS LATENCY: 18.93 cycles
cpu2_L1I TOTAL        ACCESS:    6130799 HIT:    5600795 MISS:     530004
cpu2_L1I LOAD         ACCESS:    6130799 HIT:    5600795 MISS:     530004
cpu2_L1I RFO          ACCESS:          0 HIT:          0 MISS:          0
cpu2_L1I PREFETCH     ACCESS:          0 HIT:          0 MISS:          0
cpu2_L1I WRITE        ACCESS:          0 HIT:          0 MISS:          0
cpu2_L1I TRANSLATION  ACCESS:          0 HIT:          0 MISS:          0
cpu2_L1I PREFETCH REQUESTED:          0 ISSUED:          0 USEFUL:          0 USELESS:          0
cpu2_L1I AVERAGE MISS LATENCY: 18.93 cycles
cpu2_L1I TOTAL        ACCESS:          0 HIT:          0 MISS:          0
cpu2_L1I LOAD         ACCESS:          0 HIT:          0 MISS:          0
cpu2_L1I RFO          ACCESS:          0 HIT:          0 MISS:          0
cpu2_L1I PREFETCH     ACCESS:          0 HIT:          0 MISS:          0
cpu2_L1I WRITE        ACCESS:          0 HIT:          0 MISS:          0
cpu2_L1I TRANSLATION  ACCESS:          0 HIT:          0 MISS:          0
cpu2_L1I PREFETCH REQUESTED:          0 ISSUED:          0 USEFUL:          0 USELESS:          0
cpu2_L1I AVERAGE MISS LATENCY: 18.93 cycles
cpu2_L2C TOTAL        ACCESS:          0 HIT:          0 MISS:          0
cpu2_L2C LOAD         ACCESS:          0 HIT:          0 MISS:          0
cpu2_L2C RFO          ACCESS:          0 HIT:          0 MISS:          0
cpu2_L2C PREFETCH     ACCESS:          0 HIT:          0 MISS:          0
cpu2_L2C WRITE        ACCESS:          0 HIT:          0 MISS:          0
cpu2_L2C TRANSLATION  ACCESS:          0 HIT:          0 MISS:          0
cpu2_L2C PREFETCH REQUESTED:     103546 ISSUED:     103546 USEFUL:       8485 USELESS:       1428
cpu2_L2C AVERAGE MISS LATENCY: 574.6 cycles
cpu2_L2C TOTAL        ACCESS:          0 HIT:          0 MISS:          0
cpu2_L2C LOAD         ACCESS:          0 HIT:          0 MISS:          0
cpu2_L2C RFO          ACCESS:          0 HIT:          0 MISS:          0
cpu2_L2C PREFETCH     ACCESS:          0 HIT:          0 MISS:          0
cpu2_L2C WRITE        ACCESS:          0 HIT:          0 MISS:          0
cpu2_L2C TRANSLATION  ACCESS:          0 HIT:          0 MISS:          0
cpu2_L2C PREFETCH REQUESTED:     103546 ISSUED:     103546 USEFUL:       8485 USELESS:       1428
cpu2_L2C AVERAGE MISS LATENCY: 574.6 cycles
cpu2_L2C TOTAL        ACCESS:    8578032 HIT:    7914778 MISS:     663254
cpu2_L2C LOAD         ACCESS:    7718586 HIT:    7294403 MISS:     424183
cpu2_L2C RFO          ACCESS:     187489 HIT:      38122 MISS:     149367
cpu2_L2C PREFETCH     ACCESS:     103546 HIT:      49014 MISS:      54532
cpu2_L2C WRITE        ACCESS:     316496 HIT:     316483 MISS:         13
cpu2_L2C TRANSLATION  ACCESS:     251915 HIT:     216756 MISS:      35159
cpu2_L2C PREFETCH REQUESTED:     103546 ISSUED:     103546 USEFUL:       8485 USELESS:       1428
cpu2_L2C AVERAGE MISS LATENCY: 574.6 cycles
cpu2_L2C TOTAL        ACCESS:          0 HIT:          0 MISS:          0
cpu2_L2C LOAD         ACCESS:          0 HIT:          0 MISS:          0
cpu2_L2C RFO          ACCESS:          0 HIT:          0 MISS:          0
cpu2_L2C PREFETCH     ACCESS:          0 HIT:          0 MISS:          0
cpu2_L2C WRITE        ACCESS:          0 HIT:          0 MISS:          0
cpu2_L2C TRANSLATION  ACCESS:          0 HIT:          0 MISS:          0
cpu2_L2C PREFETCH REQUESTED:     103546 ISSUED:     103546 USEFUL:       8485 USELESS:       1428
cpu2_L2C AVERAGE MISS LATENCY: 574.6 cycles
cpu2_STLB TOTAL        ACCESS:          0 HIT:          0 MISS:          0
cpu2_STLB LOAD         ACCESS:          0 HIT:          0 MISS:          0
cpu2_STLB RFO          ACCESS:          0 HIT:          0 MISS:          0
cpu2_STLB PREFETCH     ACCESS:          0 HIT:          0 MISS:          0
cpu2_STLB WRITE        ACCESS:          0 HIT:          0 MISS:          0
cpu2_STLB TRANSLATION  ACCESS:          0 HIT:          0 MISS:          0
cpu2_STLB PREFETCH REQUESTED:          0 ISSUED:          0 USEFUL:          0 USELESS:          0
cpu2_STLB AVERAGE MISS LATENCY: 87.76 cycles
cpu2_STLB TOTAL        ACCESS:          0 HIT:          0 MISS:          0
cpu2_STLB LOAD         ACCESS:          0 HIT:          0 MISS:          0
cpu2_STLB RFO          ACCESS:          0 HIT:          0 MISS:          0
cpu2_STLB PREFETCH     ACCESS:          0 HIT:          0 MISS:          0
cpu2_STLB WRITE        ACCESS:          0 HIT:          0 MISS:          0
cpu2_STLB TRANSLATION  ACCESS:          0 HIT:          0 MISS:          0
cpu2_STLB PREFETCH REQUESTED:          0 ISSUED:          0 USEFUL:          0 USELESS:          0
cpu2_STLB AVERAGE MISS LATENCY: 87.76 cycles
cpu2_STLB TOTAL        ACCESS:    4469713 HIT:    4206092 MISS:     263621
cpu2_STLB LOAD         ACCESS:    4469713 HIT:    4206092 MISS:     263621
cpu2_STLB RFO          ACCESS:          0 HIT:          0 MISS:          0
cpu2_STLB PREFETCH     ACCESS:          0 HIT:          0 MISS:          0
cpu2_STLB WRITE        ACCESS:          0 HIT:          0 MISS:          0
cpu2_STLB TRANSLATION  ACCESS:          0 HIT:          0 MISS:          0
cpu2_STLB PREFETCH REQUESTED:          0 ISSUED:          0 USEFUL:          0 USELESS:          0
cpu2_STLB AVERAGE MISS LATENCY: 87.76 cycles
cpu2_STLB TOTAL        ACCESS:          0 HIT:          0 MISS:          0
cpu2_STLB LOAD         ACCESS:          0 HIT:          0 MISS:          0
cpu2_STLB RFO          ACCESS:          0 HIT:          0 MISS:          0
cpu2_STLB PREFETCH     ACCESS:          0 HIT:          0 MISS:          0
cpu2_STLB WRITE        ACCESS:          0 HIT:          0 MISS:          0
cpu2_STLB TRANSLATION  ACCESS:          0 HIT:          0 MISS:          0
cpu2_STLB PREFETCH REQUESTED:          0 ISSUED:          0 USEFUL:          0 USELESS:          0
cpu2_STLB AVERAGE MISS LATENCY: 87.76 cycles
cpu3_DTLB TOTAL        ACCESS:          0 HIT:          0 MISS:          0
cpu3_DTLB LOAD         ACCESS:          0 HIT:          0 MISS:          0
cpu3_DTLB RFO          ACCESS:          0 HIT:          0 MISS:          0
cpu3_DTLB PREFETCH     ACCESS:          0 HIT:          0 MISS:          0
cpu3_DTLB WRITE        ACCESS:          0 HIT:          0 MISS:          0
cpu3_DTLB TRANSLATION  ACCESS:          0 HIT:          0 MISS:          0
cpu3_DTLB PREFETCH REQUESTED:          0 ISSUED:          0 USEFUL:          0 USELESS:          0
cpu3_DTLB AVERAGE MISS LATENCY: 13.73 cycles
cpu3_DTLB TOTAL        ACCESS:          0 HIT:          0 MISS:          0
cpu3_DTLB LOAD         ACCESS:          0 HIT:          0 MISS:          0
cpu3_DTLB RFO          ACCESS:          0 HIT:          0 MISS:          0
cpu3_DTLB PREFETCH     ACCESS:          0 HIT:          0 MISS:          0
cpu3_DTLB WRITE        ACCESS:          0 HIT:          0 MISS:          0
cpu3_DTLB TRANSLATION  ACCESS:          0 HIT:          0 MISS:          0
cpu3_DTLB PREFETCH REQUESTED:          0 ISSUED:          0 USEFUL:          0 USELESS:          0
cpu3_DTLB AVERAGE MISS LATENCY: 13.73 cycles
cpu3_DTLB TOTAL        ACCESS:          0 HIT:          0 MISS:          0
cpu3_DTLB LOAD         ACCESS:          0 HIT:          0 MISS:          0
cpu3_DTLB RFO          ACCESS:          0 HIT:          0 MISS:          0
cpu3_DTLB PREFETCH     ACCESS:          0 HIT:          0 MISS:          0
cpu3_DTLB WRITE        ACCESS:          0 HIT:          0 MISS:          0
cpu3_DTLB TRANSLATION  ACCESS:          0 HIT:          0 MISS:          0
cpu3_DTLB PREFETCH REQUESTED:          0 ISSUED:          0 USEFUL:          0 USELESS:          0
cpu3_DTLB AVERAGE MISS LATENCY: 13.73 cycles
cpu3_DTLB TOTAL        ACCESS:   34758965 HIT:   34613940 MISS:     145025
cpu3_DTLB LOAD         ACCESS:   34758965 HIT:   34613940 MISS:     145025
cpu3_DTLB RFO          ACCESS:          0 HIT:          0 MISS:          0
cpu3_DTLB PREFETCH     ACCESS:          0 HIT:          0 MISS:          0
cpu3_DTLB WRITE        ACCESS:          0 HIT:          0 MISS:          0
cpu3_DTLB TRANSLATION  ACCESS:          0 HIT:          0 MISS:          0
cpu3_DTLB PREFETCH REQUESTED:          0 ISSUED:          0 USEFUL:          0 USELESS:          0
cpu3_DTLB AVERAGE MISS LATENCY: 13.73 cycles
cpu3_ITLB TOTAL        ACCESS:          0 HIT:          0 MISS:          0
cpu3_ITLB LOAD         ACCESS:          0 HIT:          0 MISS:          0
cpu3_ITLB RFO          ACCESS:          0 HIT:          0 MISS:          0
cpu3_ITLB PREFETCH     ACCESS:          0 HIT:          0 MISS:          0
cpu3_ITLB WRITE        ACCESS:          0 HIT:          0 MISS:          0
cpu3_ITLB TRANSLATION  ACCESS:          0 HIT:          0 MISS:          0
cpu3_ITLB PREFETCH REQUESTED:          0 ISSUED:          0 USEFUL:          0 USELESS:          0
cpu3_ITLB AVERAGE MISS LATENCY: 872.9 cycles
cpu3_ITLB TOTAL        ACCESS:          0 HIT:          0 MISS:          0
cpu3_ITLB LOAD         ACCESS:          0 HIT:          0 MISS:          0
cpu3_ITLB RFO          ACCESS:          0 HIT:          0 MISS:          0
cpu3_ITLB PREFETCH     ACCESS:          0 HIT:          0 MISS:          0
cpu3_ITLB WRITE        ACCESS:          0 HIT:          0 MISS:          0
cpu3_ITLB TRANSLATION  ACCESS:          0 HIT:          0 MISS:          0
cpu3_ITLB PREFETCH REQUESTED:          0 ISSUED:          0 USEFUL:          0 USELESS:          0
cpu3_ITLB AVERAGE MISS LATENCY: 872.9 cycles
cpu3_ITLB TOTAL        ACCESS:          0 HIT:          0 MISS:          0
cpu3_ITLB LOAD         ACCESS:          0 HIT:          0 MISS:          0
cpu3_ITLB RFO          ACCESS:          0 HIT:          0 MISS:          0
cpu3_ITLB PREFETCH     ACCESS:          0 HIT:          0 MISS:          0
cpu3_ITLB WRITE        ACCESS:          0 HIT:          0 MISS:          0
cpu3_ITLB TRANSLATION  ACCESS:          0 HIT:          0 MISS:          0
cpu3_ITLB PREFETCH REQUESTED:          0 ISSUED:          0 USEFUL:          0 USELESS:          0
cpu3_ITLB AVERAGE MISS LATENCY: 872.9 cycles
cpu3_ITLB TOTAL        ACCESS:    1777801 HIT:    1777757 MISS:         44
cpu3_ITLB LOAD         ACCESS:    1777801 HIT:    1777757 MISS:         44
cpu3_ITLB RFO          ACCESS:          0 HIT:          0 MISS:          0
cpu3_ITLB PREFETCH     ACCESS:          0 HIT:          0 MISS:          0
cpu3_ITLB WRITE        ACCESS:          0 HIT:          0 MISS:          0
cpu3_ITLB TRANSLATION  ACCESS:          0 HIT:          0 MISS:          0
cpu3_ITLB PREFETCH REQUESTED:          0 ISSUED:          0 USEFUL:          0 USELESS:          0
cpu3_ITLB AVERAGE MISS LATENCY: 872.9 cycles
cpu3_L1D TOTAL        ACCESS:          0 HIT:          0 MISS:          0
cpu3_L1D LOAD         ACCESS:          0 HIT:          0 MISS:          0
cpu3_L1D RFO          ACCESS:          0 HIT:          0 MISS:          0
cpu3_L1D PREFETCH     ACCESS:          0 HIT:          0 MISS:          0
cpu3_L1D WRITE        ACCESS:          0 HIT:          0 MISS:          0
cpu3_L1D TRANSLATION  ACCESS:          0 HIT:          0 MISS:          0
cpu3_L1D PREFETCH REQUESTED:          0 ISSUED:          0 USEFUL:          0 USELESS:          0
cpu3_L1D AVERAGE MISS LATENCY: 414 cycles
cpu3_L1D TOTAL        ACCESS:          0 HIT:          0 MISS:          0
cpu3_L1D LOAD         ACCESS:          0 HIT:          0 MISS:          0
cpu3_L1D RFO          ACCESS:          0 HIT:          0 MISS:          0
cpu3_L1D PREFETCH     ACCESS:          0 HIT:          0 MISS:          0
cpu3_L1D WRITE        ACCESS:          0 HIT:          0 MISS:          0
cpu3_L1D TRANSLATION  ACCESS:          0 HIT:          0 MISS:          0
cpu3_L1D PREFETCH REQUESTED:          0 ISSUED:          0 USEFUL:          0 USELESS:          0
cpu3_L1D AVERAGE MISS LATENCY: 414 cycles
cpu3_L1D TOTAL        ACCESS:          0 HIT:          0 MISS:          0
cpu3_L1D LOAD         ACCESS:          0 HIT:          0 MISS:          0
cpu3_L1D RFO          ACCESS:          0 HIT:          0 MISS:          0
cpu3_L1D PREFETCH     ACCESS:          0 HIT:          0 MISS:          0
cpu3_L1D WRITE        ACCESS:          0 HIT:          0 MISS:          0
cpu3_L1D TRANSLATION  ACCESS:          0 HIT:          0 MISS:          0
cpu3_L1D PREFETCH REQUESTED:          0 ISSUED:          0 USEFUL:          0 USELESS:          0
cpu3_L1D AVERAGE MISS LATENCY: 414 cycles
cpu3_L1D TOTAL        ACCESS:   43026541 HIT:   42970884 MISS:      55657
cpu3_L1D LOAD         ACCESS:   31285433 HIT:   31270530 MISS:      14903
cpu3_L1D RFO          ACCESS:          0 HIT:          0 MISS:          0
cpu3_L1D PREFETCH     ACCESS:          0 HIT:          0 MISS:          0
cpu3_L1D WRITE        ACCESS:   11740326 HIT:   11700213 MISS:      40113
cpu3_L1D TRANSLATION  ACCESS:        782 HIT:        141 MISS:        641
cpu3_L1D PREFETCH REQUESTED:          0 ISSUED:          0 USEFUL:          0 USELESS:          0
cpu3_L1D AVERAGE MISS LATENCY: 414 cycles
cpu3_L1I TOTAL        ACCESS:          0 HIT:          0 MISS:          0
cpu3_L1I LOAD         ACCESS:          0 HIT:          0 MISS:          0
cpu3_L1I RFO          ACCESS:          0 HIT:          0 MISS:          0
cpu3_L1I PREFETCH     ACCESS:          0 HIT:          0 MISS:          0
cpu3_L1I WRITE        ACCESS:          0 HIT:          0 MISS:          0
cpu3_L1I TRANSLATION  ACCESS:          0 HIT:          0 MISS:          0
cpu3_L1I PREFETCH REQUESTED:          0 ISSUED:          0 USEFUL:          0 USELESS:          0
cpu3_L1I AVERAGE MISS LATENCY: 11.84 cycles
cpu3_L1I TOTAL        ACCESS:          0 HIT:          0 MISS:          0
cpu3_L1I LOAD         ACCESS:          0 HIT:          0 MISS:          0
cpu3_L1I RFO          ACCESS:          0 HIT:          0 MISS:          0
cpu3_L1I PREFETCH     ACCESS:          0 HIT:          0 MISS:          0
cpu3_L1I WRITE        ACCESS:          0 HIT:          0 MISS:          0
cpu3_L1I TRANSLATION  ACCESS:          0 HIT:          0 MISS:          0
cpu3_L1I PREFETCH REQUESTED:          0 ISSUED:          0 USEFUL:          0 USELESS:          0
cpu3_L1I AVERAGE MISS LATENCY: 11.84 cycles
cpu3_L1I TOTAL        ACCESS:          0 HIT:          0 MISS:          0
cpu3_L1I LOAD         ACCESS:          0 HIT:          0 MISS:          0
cpu3_L1I RFO          ACCESS:          0 HIT:          0 MISS:          0
cpu3_L1I PREFETCH     ACCESS:          0 HIT:          0 MISS:          0
cpu3_L1I WRITE        ACCESS:          0 HIT:          0 MISS:          0
cpu3_L1I TRANSLATION  ACCESS:          0 HIT:          0 MISS:          0
cpu3_L1I PREFETCH REQUESTED:          0 ISSUED:          0 USEFUL:          0 USELESS:          0
cpu3_L1I AVERAGE MISS LATENCY: 11.84 cycles
cpu3_L1I TOTAL        ACCESS:    2139872 HIT:    1881764 MISS:     258108
cpu3_L1I LOAD         ACCESS:    2139872 HIT:    1881764 MISS:     258108
cpu3_L1I RFO          ACCESS:          0 HIT:          0 MISS:          0
cpu3_L1I PREFETCH     ACCESS:          0 HIT:          0 MISS:          0
cpu3_L1I WRITE        ACCESS:          0 HIT:          0 MISS:          0
cpu3_L1I TRANSLATION  ACCESS:          0 HIT:          0 MISS:          0
cpu3_L1I PREFETCH REQUESTED:          0 ISSUED:          0 USEFUL:          0 USELESS:          0
cpu3_L1I AVERAGE MISS LATENCY: 11.84 cycles
cpu3_L2C TOTAL        ACCESS:          0 HIT:          0 MISS:          0
cpu3_L2C LOAD         ACCESS:          0 HIT:          0 MISS:          0
cpu3_L2C RFO          ACCESS:          0 HIT:          0 MISS:          0
cpu3_L2C PREFETCH     ACCESS:          0 HIT:          0 MISS:          0
cpu3_L2C WRITE        ACCESS:          0 HIT:          0 MISS:          0
cpu3_L2C TRANSLATION  ACCESS:          0 HIT:          0 MISS:          0
cpu3_L2C PREFETCH REQUESTED:      27752 ISSUED:      27752 USEFUL:       5605 USELESS:        466
cpu3_L2C AVERAGE MISS LATENCY: 1041 cycles
cpu3_L2C TOTAL        ACCESS:          0 HIT:          0 MISS:          0
cpu3_L2C LOAD         ACCESS:          0 HIT:          0 MISS:          0
cpu3_L2C RFO          ACCESS:          0 HIT:          0 MISS:          0
cpu3_L2C PREFETCH     ACCESS:          0 HIT:          0 MISS:          0
cpu3_L2C WRITE        ACCESS:          0 HIT:          0 MISS:          0
cpu3_L2C TRANSLATION  ACCESS:          0 HIT:          0 MISS:          0
cpu3_L2C PREFETCH REQUESTED:      27752 ISSUED:      27752 USEFUL:       5605 USELESS:        466
cpu3_L2C AVERAGE MISS LATENCY: 1041 cycles
cpu3_L2C TOTAL        ACCESS:          0 HIT:          0 MISS:          0
cpu3_L2C LOAD         ACCESS:          0 HIT:          0 MISS:          0
cpu3_L2C RFO          ACCESS:          0 HIT:          0 MISS:          0
cpu3_L2C PREFETCH     ACCESS:          0 HIT:          0 MISS:          0
cpu3_L2C WRITE        ACCESS:          0 HIT:          0 MISS:          0
cpu3_L2C TRANSLATION  ACCESS:          0 HIT:          0 MISS:          0
cpu3_L2C PREFETCH REQUESTED:      27752 ISSUED:      27752 USEFUL:       5605 USELESS:        466
cpu3_L2C AVERAGE MISS LATENCY: 1041 cycles
cpu3_L2C TOTAL        ACCESS:     241423 HIT:     207096 MISS:      34327
cpu3_L2C LOAD         ACCESS:     191078 HIT:     184106 MISS:       6972
cpu3_L2C RFO          ACCESS:       9184 HIT:        373 MISS:       8811
cpu3_L2C PREFETCH     ACCESS:      27752 HIT:       9757 MISS:      17995
cpu3_L2C WRITE        ACCESS:      12769 HIT:      12664 MISS:        105
cpu3_L2C TRANSLATION  ACCESS:        640 HIT:        196 MISS:        444
cpu3_L2C PREFETCH REQUESTED:      27752 ISSUED:      27752 USEFUL:       5605 USELESS:        466
cpu3_L2C AVERAGE MISS LATENCY: 1041 cycles
cpu3_STLB TOTAL        ACCESS:          0 HIT:          0 MISS:          0
cpu3_STLB LOAD         ACCESS:          0 HIT:          0 MISS:          0
cpu3_STLB RFO          ACCESS:          0 HIT:          0 MISS:          0
cpu3_STLB PREFETCH     ACCESS:          0 HIT:          0 MISS:          0
cpu3_STLB WRITE        ACCESS:          0 HIT:          0 MISS:          0
cpu3_STLB TRANSLATION  ACCESS:          0 HIT:          0 MISS:          0
cpu3_STLB PREFETCH REQUESTED:          0 ISSUED:          0 USEFUL:          0 USELESS:          0
cpu3_STLB AVERAGE MISS LATENCY: 1655 cycles
cpu3_STLB TOTAL        ACCESS:          0 HIT:          0 MISS:          0
cpu3_STLB LOAD         ACCESS:          0 HIT:          0 MISS:          0
cpu3_STLB RFO          ACCESS:          0 HIT:          0 MISS:          0
cpu3_STLB PREFETCH     ACCESS:          0 HIT:          0 MISS:          0
cpu3_STLB WRITE        ACCESS:          0 HIT:          0 MISS:          0
cpu3_STLB TRANSLATION  ACCESS:          0 HIT:          0 MISS:          0
cpu3_STLB PREFETCH REQUESTED:          0 ISSUED:          0 USEFUL:          0 USELESS:          0
cpu3_STLB AVERAGE MISS LATENCY: 1655 cycles
cpu3_STLB TOTAL        ACCESS:          0 HIT:          0 MISS:          0
cpu3_STLB LOAD         ACCESS:          0 HIT:          0 MISS:          0
cpu3_STLB RFO          ACCESS:          0 HIT:          0 MISS:          0
cpu3_STLB PREFETCH     ACCESS:          0 HIT:          0 MISS:          0
cpu3_STLB WRITE        ACCESS:          0 HIT:          0 MISS:          0
cpu3_STLB TRANSLATION  ACCESS:          0 HIT:          0 MISS:          0
cpu3_STLB PREFETCH REQUESTED:          0 ISSUED:          0 USEFUL:          0 USELESS:          0
cpu3_STLB AVERAGE MISS LATENCY: 1655 cycles
cpu3_STLB TOTAL        ACCESS:     129274 HIT:     128503 MISS:        771
cpu3_STLB LOAD         ACCESS:     129274 HIT:     128503 MISS:        771
cpu3_STLB RFO          ACCESS:          0 HIT:          0 MISS:          0
cpu3_STLB PREFETCH     ACCESS:          0 HIT:          0 MISS:          0
cpu3_STLB WRITE        ACCESS:          0 HIT:          0 MISS:          0
cpu3_STLB TRANSLATION  ACCESS:          0 HIT:          0 MISS:          0
cpu3_STLB PREFETCH REQUESTED:          0 ISSUED:          0 USEFUL:          0 USELESS:          0
cpu3_STLB AVERAGE MISS LATENCY: 1655 cycles

Region of Interest Statistics

CPU 0 cumulative IPC: 2.102 instructions: 150000003 cycles: 71354136
CPU 0 Branch Prediction Accuracy: 85.81% MPKI: 13.74 Average ROB Occupancy at Mispredict: 103
Branch type MPKI
BRANCH_DIRECT_JUMP: 0.00012
BRANCH_INDIRECT: 6.67e-06
BRANCH_CONDITIONAL: 8.21
BRANCH_DIRECT_CALL: 0
BRANCH_INDIRECT_CALL: 0
BRANCH_RETURN: 5.53


CPU 1 cumulative IPC: 1.175 instructions: 150000001 cycles: 127608791
CPU 1 Branch Prediction Accuracy: 99.98% MPKI: 0.00438 Average ROB Occupancy at Mispredict: 352
Branch type MPKI
BRANCH_DIRECT_JUMP: 0
BRANCH_INDIRECT: 0
BRANCH_CONDITIONAL: 0.00438
BRANCH_DIRECT_CALL: 0
BRANCH_INDIRECT_CALL: 0
BRANCH_RETURN: 0


CPU 2 cumulative IPC: 1.11 instructions: 150000000 cycles: 135148842
CPU 2 Branch Prediction Accuracy: 96.96% MPKI: 8.474 Average ROB Occupancy at Mispredict: 39.92
Branch type MPKI
BRANCH_DIRECT_JUMP: 0.12
BRANCH_INDIRECT: 0.36
BRANCH_CONDITIONAL: 6.02
BRANCH_DIRECT_CALL: 0.000787
BRANCH_INDIRECT_CALL: 0.409
BRANCH_RETURN: 1.56


CPU 3 cumulative IPC: 2.147 instructions: 150000004 cycles: 69875670
CPU 3 Branch Prediction Accuracy: 94.91% MPKI: 6.828 Average ROB Occupancy at Mispredict: 78.54
Branch type MPKI
BRANCH_DIRECT_JUMP: 0
BRANCH_INDIRECT: 0
BRANCH_CONDITIONAL: 6.81
BRANCH_DIRECT_CALL: 0
BRANCH_INDIRECT_CALL: 0
BRANCH_RETURN: 0.0175

LLC TOTAL        ACCESS:     142471 HIT:     103689 MISS:      38782
LLC LOAD         ACCESS:       4105 HIT:        960 MISS:       3145
LLC RFO          ACCESS:         20 HIT:         16 MISS:          4
LLC PREFETCH     ACCESS:     137226 HIT:     102609 MISS:      34617
[...]
cpu2_L2C RFO          ACCESS:          0 HIT:          0 MISS:          0
cpu2_L2C PREFETCH     ACCESS:          0 HIT:          0 MISS:          0
cpu2_L2C WRITE        ACCESS:          0 HIT:          0 MISS:          0
cpu2_L2C TRANSLATION  ACCESS:          0 HIT:          0 MISS:          0
cpu2_L2C PREFETCH REQUESTED:     103546 ISSUED:     103546 USEFUL:       8485 USELESS:       1428
cpu2_L2C AVERAGE MISS LATENCY: 574.6 cycles
cpu2_L2C TOTAL        ACCESS:          0 HIT:          0 MISS:          0
cpu2_L2C LOAD         ACCESS:          0 HIT:          0 MISS:          0
cpu2_L2C RFO          ACCESS:          0 HIT:          0 MISS:          0
cpu2_L2C PREFETCH     ACCESS:          0 HIT:          0 MISS:          0
cpu2_L2C WRITE        ACCESS:          0 HIT:          0 MISS:          0
cpu2_L2C TRANSLATION  ACCESS:          0 HIT:          0 MISS:          0
cpu2_L2C PREFETCH REQUESTED:     103546 ISSUED:     103546 USEFUL:       8485 USELESS:       1428
cpu2_L2C AVERAGE MISS LATENCY: 574.6 cycles
cpu2_L2C TOTAL        ACCESS:    8578032 HIT:    7914778 MISS:     663254
cpu2_L2C LOAD         ACCESS:    7718586 HIT:    7294403 MISS:     424183
cpu2_L2C RFO          ACCESS:     187489 HIT:      38122 MISS:     149367
cpu2_L2C PREFETCH     ACCESS:     103546 HIT:      49014 MISS:      54532
cpu2_L2C WRITE        ACCESS:     316496 HIT:     316483 MISS:         13
cpu2_L2C TRANSLATION  ACCESS:     251915 HIT:     216756 MISS:      35159
cpu2_L2C PREFETCH REQUESTED:     103546 ISSUED:     103546 USEFUL:       8485 USELESS:       1428
cpu2_L2C AVERAGE MISS LATENCY: 574.6 cycles
cpu2_L2C TOTAL        ACCESS:          0 HIT:          0 MISS:          0
cpu2_L2C LOAD         ACCESS:          0 HIT:          0 MISS:          0
cpu2_L2C RFO          ACCESS:          0 HIT:          0 MISS:          0
cpu2_L2C PREFETCH     ACCESS:          0 HIT:          0 MISS:          0
cpu2_L2C WRITE        ACCESS:          0 HIT:          0 MISS:          0
cpu2_L2C TRANSLATION  ACCESS:          0 HIT:          0 MISS:          0
cpu2_L2C PREFETCH REQUESTED:     103546 ISSUED:     103546 USEFUL:       8485 USELESS:       1428
cpu2_L2C AVERAGE MISS LATENCY: 574.6 cycles
cpu2_STLB TOTAL        ACCESS:          0 HIT:          0 MISS:          0
cpu2_STLB LOAD         ACCESS:          0 HIT:          0 MISS:          0
cpu2_STLB RFO          ACCESS:          0 HIT:          0 MISS:          0
cpu2_STLB PREFETCH     ACCESS:          0 HIT:          0 MISS:          0
cpu2_STLB WRITE        ACCESS:          0 HIT:          0 MISS:          0
cpu2_STLB TRANSLATION  ACCESS:          0 HIT:          0 MISS:          0
cpu2_STLB PREFETCH REQUESTED:          0 ISSUED:          0 USEFUL:          0 USELESS:          0
cpu2_STLB AVERAGE MISS LATENCY: 87.76 cycles
cpu2_STLB TOTAL        ACCESS:          0 HIT:          0 MISS:          0
cpu2_STLB LOAD         ACCESS:          0 HIT:          0 MISS:          0
cpu2_STLB RFO          ACCESS:          0 HIT:          0 MISS:          0
cpu2_STLB PREFETCH     ACCESS:          0 HIT:          0 MISS:          0
cpu2_STLB WRITE        ACCESS:          0 HIT:          0 MISS:          0
cpu2_STLB TRANSLATION  ACCESS:          0 HIT:          0 MISS:          0
cpu2_STLB PREFETCH REQUESTED:          0 ISSUED:          0 USEFUL:          0 USELESS:          0
cpu2_STLB AVERAGE MISS LATENCY: 87.76 cycles
cpu2_STLB TOTAL        ACCESS:    4469713 HIT:    4206092 MISS:     263621
cpu2_STLB LOAD         ACCESS:    4469713 HIT:    4206092 MISS:     263621
cpu2_STLB RFO          ACCESS:          0 HIT:          0 MISS:          0
cpu2_STLB PREFETCH     ACCESS:          0 HIT:          0 MISS:          0
cpu2_STLB WRITE        ACCESS:          0 HIT:          0 MISS:          0
cpu2_STLB TRANSLATION  ACCESS:          0 HIT:          0 MISS:          0
cpu2_STLB PREFETCH REQUESTED:          0 ISSUED:          0 USEFUL:          0 USELESS:          0
cpu2_STLB AVERAGE MISS LATENCY: 87.76 cycles
cpu2_STLB TOTAL        ACCESS:          0 HIT:          0 MISS:          0
cpu2_STLB LOAD         ACCESS:          0 HIT:          0 MISS:          0
cpu2_STLB RFO          ACCESS:          0 HIT:          0 MISS:          0
cpu2_STLB PREFETCH     ACCESS:          0 HIT:          0 MISS:          0
cpu2_STLB WRITE        ACCESS:          0 HIT:          0 MISS:          0
cpu2_STLB TRANSLATION  ACCESS:          0 HIT:          0 MISS:          0
cpu2_STLB PREFETCH REQUESTED:          0 ISSUED:          0 USEFUL:          0 USELESS:          0
cpu2_STLB AVERAGE MISS LATENCY: 87.76 cycles
cpu3_DTLB TOTAL        ACCESS:          0 HIT:          0 MISS:          0
cpu3_DTLB LOAD         ACCESS:          0 HIT:          0 MISS:          0
cpu3_DTLB RFO          ACCESS:          0 HIT:          0 MISS:          0
cpu3_DTLB PREFETCH     ACCESS:          0 HIT:          0 MISS:          0
cpu3_DTLB WRITE        ACCESS:          0 HIT:          0 MISS:          0
cpu3_DTLB TRANSLATION  ACCESS:          0 HIT:          0 MISS:          0
cpu3_DTLB PREFETCH REQUESTED:          0 ISSUED:          0 USEFUL:          0 USELESS:          0
cpu3_DTLB AVERAGE MISS LATENCY: 13.73 cycles
cpu3_DTLB TOTAL        ACCESS:          0 HIT:          0 MISS:          0
cpu3_DTLB LOAD         ACCESS:          0 HIT:          0 MISS:          0
cpu3_DTLB RFO          ACCESS:          0 HIT:          0 MISS:          0
cpu3_DTLB PREFETCH     ACCESS:          0 HIT:          0 MISS:          0
cpu3_DTLB WRITE        ACCESS:          0 HIT:          0 MISS:          0
cpu3_DTLB TRANSLATION  ACCESS:          0 HIT:          0 MISS:          0
cpu3_DTLB PREFETCH REQUESTED:          0 ISSUED:          0 USEFUL:          0 USELESS:          0
cpu3_DTLB AVERAGE MISS LATENCY: 13.73 cycles
cpu3_DTLB TOTAL        ACCESS:          0 HIT:          0 MISS:          0
cpu3_DTLB LOAD         ACCESS:          0 HIT:          0 MISS:          0
cpu3_DTLB RFO          ACCESS:          0 HIT:          0 MISS:          0
cpu3_DTLB PREFETCH     ACCESS:          0 HIT:          0 MISS:          0
cpu3_DTLB WRITE        ACCESS:          0 HIT:          0 MISS:          0
cpu3_DTLB TRANSLATION  ACCESS:          0 HIT:          0 MISS:          0
cpu3_DTLB PREFETCH REQUESTED:          0 ISSUED:          0 USEFUL:          0 USELESS:          0
cpu3_DTLB AVERAGE MISS LATENCY: 13.73 cycles
cpu3_DTLB TOTAL        ACCESS:   18015114 HIT:   18003200 MISS:      11914
cpu3_DTLB LOAD         ACCESS:   18015114 HIT:   18003200 MISS:      11914
cpu3_DTLB RFO          ACCESS:          0 HIT:          0 MISS:          0
cpu3_DTLB PREFETCH     ACCESS:          0 HIT:          0 MISS:          0
cpu3_DTLB WRITE        ACCESS:          0 HIT:          0 MISS:          0
cpu3_DTLB TRANSLATION  ACCESS:          0 HIT:          0 MISS:          0
cpu3_DTLB PREFETCH REQUESTED:          0 ISSUED:          0 USEFUL:          0 USELESS:          0
cpu3_DTLB AVERAGE MISS LATENCY: 13.73 cycles
cpu3_ITLB TOTAL        ACCESS:          0 HIT:          0 MISS:          0
cpu3_ITLB LOAD         ACCESS:          0 HIT:          0 MISS:          0
cpu3_ITLB RFO          ACCESS:          0 HIT:          0 MISS:          0
cpu3_ITLB PREFETCH     ACCESS:          0 HIT:          0 MISS:          0
cpu3_ITLB WRITE        ACCESS:          0 HIT:          0 MISS:          0
cpu3_ITLB TRANSLATION  ACCESS:          0 HIT:          0 MISS:          0
cpu3_ITLB PREFETCH REQUESTED:          0 ISSUED:          0 USEFUL:          0 USELESS:          0
cpu3_ITLB AVERAGE MISS LATENCY: 872.9 cycles
cpu3_ITLB TOTAL        ACCESS:          0 HIT:          0 MISS:          0
cpu3_ITLB LOAD         ACCESS:          0 HIT:          0 MISS:          0
cpu3_ITLB RFO          ACCESS:          0 HIT:          0 MISS:          0
cpu3_ITLB PREFETCH     ACCESS:          0 HIT:          0 MISS:          0
cpu3_ITLB WRITE        ACCESS:          0 HIT:          0 MISS:          0
cpu3_ITLB TRANSLATION  ACCESS:          0 HIT:          0 MISS:          0
cpu3_ITLB PREFETCH REQUESTED:          0 ISSUED:          0 USEFUL:          0 USELESS:          0
cpu3_ITLB AVERAGE MISS LATENCY: 872.9 cycles
cpu3_ITLB TOTAL        ACCESS:          0 HIT:          0 MISS:          0
cpu3_ITLB LOAD         ACCESS:          0 HIT:          0 MISS:          0
cpu3_ITLB RFO          ACCESS:          0 HIT:          0 MISS:          0
cpu3_ITLB PREFETCH     ACCESS:          0 HIT:          0 MISS:          0
cpu3_ITLB WRITE        ACCESS:          0 HIT:          0 MISS:          0
cpu3_ITLB TRANSLATION  ACCESS:          0 HIT:          0 MISS:          0
cpu3_ITLB PREFETCH REQUESTED:          0 ISSUED:          0 USEFUL:          0 USELESS:          0
cpu3_ITLB AVERAGE MISS LATENCY: 872.9 cycles
cpu3_ITLB TOTAL        ACCESS:     522949 HIT:     522949 MISS:          0
cpu3_ITLB LOAD         ACCESS:     522949 HIT:     522949 MISS:          0
cpu3_ITLB RFO          ACCESS:          0 HIT:          0 MISS:          0
cpu3_ITLB PREFETCH     ACCESS:          0 HIT:          0 MISS:          0
cpu3_ITLB WRITE        ACCESS:          0 HIT:          0 MISS:          0
cpu3_ITLB TRANSLATION  ACCESS:          0 HIT:          0 MISS:          0
cpu3_ITLB PREFETCH REQUESTED:          0 ISSUED:          0 USEFUL:          0 USELESS:          0
cpu3_ITLB AVERAGE MISS LATENCY: 872.9 cycles
cpu3_L1D TOTAL        ACCESS:          0 HIT:          0 MISS:          0
cpu3_L1D LOAD         ACCESS:          0 HIT:          0 MISS:          0
cpu3_L1D RFO          ACCESS:          0 HIT:          0 MISS:          0
cpu3_L1D PREFETCH     ACCESS:          0 HIT:          0 MISS:          0
cpu3_L1D WRITE        ACCESS:          0 HIT:          0 MISS:          0
cpu3_L1D TRANSLATION  ACCESS:          0 HIT:          0 MISS:          0
cpu3_L1D PREFETCH REQUESTED:          0 ISSUED:          0 USEFUL:          0 USELESS:          0
cpu3_L1D AVERAGE MISS LATENCY: 414 cycles
cpu3_L1D TOTAL        ACCESS:          0 HIT:          0 MISS:          0
cpu3_L1D LOAD         ACCESS:          0 HIT:          0 MISS:          0
cpu3_L1D RFO          ACCESS:          0 HIT:          0 MISS:          0
cpu3_L1D PREFETCH     ACCESS:          0 HIT:          0 MISS:          0
cpu3_L1D WRITE        ACCESS:          0 HIT:          0 MISS:          0
cpu3_L1D TRANSLATION  ACCESS:          0 HIT:          0 MISS:          0
cpu3_L1D PREFETCH REQUESTED:          0 ISSUED:          0 USEFUL:          0 USELESS:          0
cpu3_L1D AVERAGE MISS LATENCY: 414 cycles
cpu3_L1D TOTAL        ACCESS:          0 HIT:          0 MISS:          0
cpu3_L1D LOAD         ACCESS:          0 HIT:          0 MISS:          0
cpu3_L1D RFO          ACCESS:          0 HIT:          0 MISS:          0
cpu3_L1D PREFETCH     ACCESS:          0 HIT:          0 MISS:          0
cpu3_L1D WRITE        ACCESS:          0 HIT:          0 MISS:          0
cpu3_L1D TRANSLATION  ACCESS:          0 HIT:          0 MISS:          0
cpu3_L1D PREFETCH REQUESTED:          0 ISSUED:          0 USEFUL:          0 USELESS:          0
cpu3_L1D AVERAGE MISS LATENCY: 414 cycles
cpu3_L1D TOTAL        ACCESS:   22092806 HIT:   22076990 MISS:      15816
cpu3_L1D LOAD         ACCESS:   16490888 HIT:   16488092 MISS:       2796
cpu3_L1D RFO          ACCESS:          0 HIT:          0 MISS:          0
cpu3_L1D PREFETCH     ACCESS:          0 HIT:          0 MISS:          0
cpu3_L1D WRITE        ACCESS:    5601743 HIT:    5588880 MISS:      12863
cpu3_L1D TRANSLATION  ACCESS:        175 HIT:         18 MISS:        157
cpu3_L1D PREFETCH REQUESTED:          0 ISSUED:          0 USEFUL:          0 USELESS:          0
cpu3_L1D AVERAGE MISS LATENCY: 414 cycles
cpu3_L1I TOTAL        ACCESS:          0 HIT:          0 MISS:          0
cpu3_L1I LOAD         ACCESS:          0 HIT:          0 MISS:          0
cpu3_L1I RFO          ACCESS:          0 HIT:          0 MISS:          0
cpu3_L1I PREFETCH     ACCESS:          0 HIT:          0 MISS:          0
cpu3_L1I WRITE        ACCESS:          0 HIT:          0 MISS:          0
cpu3_L1I TRANSLATION  ACCESS:          0 HIT:          0 MISS:          0
cpu3_L1I PREFETCH REQUESTED:          0 ISSUED:          0 USEFUL:          0 USELESS:          0
cpu3_L1I AVERAGE MISS LATENCY: 11.84 cycles
cpu3_L1I TOTAL        ACCESS:          0 HIT:          0 MISS:          0
cpu3_L1I LOAD         ACCESS:          0 HIT:          0 MISS:          0
cpu3_L1I RFO          ACCESS:          0 HIT:          0 MISS:          0
cpu3_L1I PREFETCH     ACCESS:          0 HIT:          0 MISS:          0
cpu3_L1I WRITE        ACCESS:          0 HIT:          0 MISS:          0
cpu3_L1I TRANSLATION  ACCESS:          0 HIT:          0 MISS:          0
cpu3_L1I PREFETCH REQUESTED:          0 ISSUED:          0 USEFUL:          0 USELESS:          0
cpu3_L1I AVERAGE MISS LATENCY: 11.84 cycles
cpu3_L1I TOTAL        ACCESS:          0 HIT:          0 MISS:          0
cpu3_L1I LOAD         ACCESS:          0 HIT:          0 MISS:          0
cpu3_L1I RFO          ACCESS:          0 HIT:          0 MISS:          0
cpu3_L1I PREFETCH     ACCESS:          0 HIT:          0 MISS:          0
cpu3_L1I WRITE        ACCESS:          0 HIT:          0 MISS:          0
cpu3_L1I TRANSLATION  ACCESS:          0 HIT:          0 MISS:          0
cpu3_L1I PREFETCH REQUESTED:          0 ISSUED:          0 USEFUL:          0 USELESS:          0
cpu3_L1I AVERAGE MISS LATENCY: 11.84 cycles
cpu3_L1I TOTAL        ACCESS:     579108 HIT:     577602 MISS:       1506
cpu3_L1I LOAD         ACCESS:     579108 HIT:     577602 MISS:       1506
cpu3_L1I RFO          ACCESS:          0 HIT:          0 MISS:          0
cpu3_L1I PREFETCH     ACCESS:          0 HIT:          0 MISS:          0
cpu3_L1I WRITE        ACCESS:          0 HIT:          0 MISS:          0
cpu3_L1I TRANSLATION  ACCESS:          0 HIT:          0 MISS:          0
cpu3_L1I PREFETCH REQUESTED:          0 ISSUED:          0 USEFUL:          0 USELESS:          0
cpu3_L1I AVERAGE MISS LATENCY: 11.84 cycles
cpu3_L2C TOTAL        ACCESS:          0 HIT:          0 MISS:          0
cpu3_L2C LOAD         ACCESS:          0 HIT:          0 MISS:          0
cpu3_L2C RFO          ACCESS:          0 HIT:          0 MISS:          0
cpu3_L2C PREFETCH     ACCESS:          0 HIT:          0 MISS:          0
cpu3_L2C WRITE        ACCESS:          0 HIT:          0 MISS:          0
cpu3_L2C TRANSLATION  ACCESS:          0 HIT:          0 MISS:          0
cpu3_L2C PREFETCH REQUESTED:      27752 ISSUED:      27752 USEFUL:       5605 USELESS:        466
cpu3_L2C AVERAGE MISS LATENCY: 1041 cycles
cpu3_L2C TOTAL        ACCESS:          0 HIT:          0 MISS:          0
cpu3_L2C LOAD         ACCESS:          0 HIT:          0 MISS:          0
cpu3_L2C RFO          ACCESS:          0 HIT:          0 MISS:          0
cpu3_L2C PREFETCH     ACCESS:          0 HIT:          0 MISS:          0
cpu3_L2C WRITE        ACCESS:          0 HIT:          0 MISS:          0
cpu3_L2C TRANSLATION  ACCESS:          0 HIT:          0 MISS:          0
cpu3_L2C PREFETCH REQUESTED:      27752 ISSUED:      27752 USEFUL:       5605 USELESS:        466
cpu3_L2C AVERAGE MISS LATENCY: 1041 cycles
cpu3_L2C TOTAL        ACCESS:          0 HIT:          0 MISS:          0
cpu3_L2C LOAD         ACCESS:          0 HIT:          0 MISS:          0
cpu3_L2C RFO          ACCESS:          0 HIT:          0 MISS:          0
cpu3_L2C PREFETCH     ACCESS:          0 HIT:          0 MISS:          0
cpu3_L2C WRITE        ACCESS:          0 HIT:          0 MISS:          0
cpu3_L2C TRANSLATION  ACCESS:          0 HIT:          0 MISS:          0
cpu3_L2C PREFETCH REQUESTED:      27752 ISSUED:      27752 USEFUL:       5605 USELESS:        466
cpu3_L2C AVERAGE MISS LATENCY: 1041 cycles
cpu3_L2C TOTAL        ACCESS:      11874 HIT:       5824 MISS:       6050
cpu3_L2C LOAD         ACCESS:       2932 HIT:       1944 MISS:        988
cpu3_L2C RFO          ACCESS:       2689 HIT:        112 MISS:       2577
cpu3_L2C PREFETCH     ACCESS:       2888 HIT:        510 MISS:       2378
cpu3_L2C WRITE        ACCESS:       3208 HIT:       3201 MISS:          7
cpu3_L2C TRANSLATION  ACCESS:        157 HIT:         57 MISS:        100
cpu3_L2C PREFETCH REQUESTED:      27752 ISSUED:      27752 USEFUL:       5605 USELESS:        466
cpu3_L2C AVERAGE MISS LATENCY: 1041 cycles
cpu3_STLB TOTAL        ACCESS:          0 HIT:          0 MISS:          0
cpu3_STLB LOAD         ACCESS:          0 HIT:          0 MISS:          0
cpu3_STLB RFO          ACCESS:          0 HIT:          0 MISS:          0
cpu3_STLB PREFETCH     ACCESS:          0 HIT:          0 MISS:          0
cpu3_STLB WRITE        ACCESS:          0 HIT:          0 MISS:          0
cpu3_STLB TRANSLATION  ACCESS:          0 HIT:          0 MISS:          0
cpu3_STLB PREFETCH REQUESTED:          0 ISSUED:          0 USEFUL:          0 USELESS:          0
cpu3_STLB AVERAGE MISS LATENCY: 1655 cycles
cpu3_STLB TOTAL        ACCESS:          0 HIT:          0 MISS:          0
cpu3_STLB LOAD         ACCESS:          0 HIT:          0 MISS:          0
cpu3_STLB RFO          ACCESS:          0 HIT:          0 MISS:          0
cpu3_STLB PREFETCH     ACCESS:          0 HIT:          0 MISS:          0
cpu3_STLB WRITE        ACCESS:          0 HIT:          0 MISS:          0
cpu3_STLB TRANSLATION  ACCESS:          0 HIT:          0 MISS:          0
cpu3_STLB PREFETCH REQUESTED:          0 ISSUED:          0 USEFUL:          0 USELESS:          0
cpu3_STLB AVERAGE MISS LATENCY: 1655 cycles
cpu3_STLB TOTAL        ACCESS:          0 HIT:          0 MISS:          0
cpu3_STLB LOAD         ACCESS:          0 HIT:          0 MISS:          0
cpu3_STLB RFO          ACCESS:          0 HIT:          0 MISS:          0
cpu3_STLB PREFETCH     ACCESS:          0 HIT:          0 MISS:          0
cpu3_STLB WRITE        ACCESS:          0 HIT:          0 MISS:          0
cpu3_STLB TRANSLATION  ACCESS:          0 HIT:          0 MISS:          0
cpu3_STLB PREFETCH REQUESTED:          0 ISSUED:          0 USEFUL:          0 USELESS:          0
cpu3_STLB AVERAGE MISS LATENCY: 1655 cycles
cpu3_STLB TOTAL        ACCESS:      10596 HIT:      10421 MISS:        175
cpu3_STLB LOAD         ACCESS:      10596 HIT:      10421 MISS:        175
cpu3_STLB RFO          ACCESS:          0 HIT:          0 MISS:          0
cpu3_STLB PREFETCH     ACCESS:          0 HIT:          0 MISS:          0
cpu3_STLB WRITE        ACCESS:          0 HIT:          0 MISS:          0
cpu3_STLB TRANSLATION  ACCESS:          0 HIT:          0 MISS:          0
cpu3_STLB PREFETCH REQUESTED:          0 ISSUED:          0 USEFUL:          0 USELESS:          0
cpu3_STLB AVERAGE MISS LATENCY: 1655 cycles

DRAM Statistics

Channel 0 RQ ROW_BUFFER_HIT:     468886
  ROW_BUFFER_MISS:    1269530
 AVG DBUS CONGESTED CYCLE: 3.991
WQ ROW_BUFFER_HIT: Channel 0 
  ROW_BUFFER_MISS:     111430
  FULL:    1461726
BERTI TO_L1: 17939674 TO_L2: 5117422 TO_L2_BC_MSHR: 0
BERTI AVG_LAT: 591.631 NUM_TRACK_LATENCY: 3001644 NUM_CANT_TRACK_LATENCY: 13503
BERTI CROSS_PAGE 3185557 NO_CROSS_PAGE: 19871539
BERTI FOUND_BERTI: 13656735 NO_FOUND_BERTI: 1121017
BERTI AVERAGE_ISSUED: 7.36246
BERTI TO_L1: 17939674 TO_L2: 5117422 TO_L2_BC_MSHR: 0
BERTI AVG_LAT: 591.631 NUM_TRACK_LATENCY: 3001644 NUM_CANT_TRACK_LATENCY: 13503
BERTI CROSS_PAGE 3185557 NO_CROSS_PAGE: 19871539
BERTI FOUND_BERTI: 13656735 NO_FOUND_BERTI: 1121017
BERTI AVERAGE_ISSUED: 7.36246
BERTI TO_L1: 17939674 TO_L2: 5117422 TO_L2_BC_MSHR: 0
BERTI AVG_LAT: 591.631 NUM_TRACK_LATENCY: 3001644 NUM_CANT_TRACK_LATENCY: 13503
BERTI CROSS_PAGE 3185557 NO_CROSS_PAGE: 19871539
BERTI FOUND_BERTI: 13656735 NO_FOUND_BERTI: 1121017
BERTI AVERAGE_ISSUED: 7.36246
BERTI TO_L1: 17939674 TO_L2: 5117422 TO_L2_BC_MSHR: 0
BERTI AVG_LAT: 591.631 NUM_TRACK_LATENCY: 3001644 NUM_CANT_TRACK_LATENCY: 13503
BERTI CROSS_PAGE 3185557 NO_CROSS_PAGE: 19871539
BERTI FOUND_BERTI: 13656735 NO_FOUND_BERTI: 1121017
BERTI AVERAGE_ISSUED: 7.36246
