WARNING: physical memory size is smaller than virtual memory size.
WARNING: option --warmup_instructions is deprecated. Use --warmup-instructions instead.
WARNING: option --simulation_instructions is deprecated. Use --simulation-instructions instead.

*** ChampSim Multicore Out-of-Order Simulator ***
Warmup Instructions: 50000000
Simulation Instructions: 150000000
Number of CPUs: 4
Page size: 4096

Berti Prefetcher
BERTI HASH ORIGINAL
BERTI IP MASK ffff
Berti Prefetcher
BERTI HASH ORIGINAL
BERTI IP MASK ffff
Berti Prefetcher
BERTI HASH ORIGINAL
BERTI IP MASK ffff
Berti Prefetcher
BERTI HASH ORIGINAL
BERTI IP MASK ffff
Off-chip DRAM Size: 4 GiB Channels: 1 Width: 64-bit Data Race: 3200 MT/s
Heartbeat CPU 2 instructions: 10000003 cycles: 2500049 heartbeat IPC: 4 cumulative IPC: 4 (Simulation time: 00 hr 03 min 33 sec)
Heartbeat CPU 3 instructions: 10000003 cycles: 3099902 heartbeat IPC: 3.226 cumulative IPC: 3.226 (Simulation time: 00 hr 04 min 29 sec)
Heartbeat CPU 0 instructions: 10000001 cycles: 3451708 heartbeat IPC: 2.897 cumulative IPC: 2.897 (Simulation time: 00 hr 05 min 06 sec)
Heartbeat CPU 1 instructions: 10000000 cycles: 3913628 heartbeat IPC: 2.555 cumulative IPC: 2.555 (Simulation time: 00 hr 05 min 47 sec)
Heartbeat CPU 2 instructions: 20000003 cycles: 5000049 heartbeat IPC: 4 cumulative IPC: 4 (Simulation time: 00 hr 07 min 32 sec)
Heartbeat CPU 3 instructions: 20000000 cycles: 6207005 heartbeat IPC: 3.218 cumulative IPC: 3.222 (Simulation time: 00 hr 09 min 11 sec)
Heartbeat CPU 0 instructions: 20000001 cycles: 6907487 heartbeat IPC: 2.894 cumulative IPC: 2.895 (Simulation time: 00 hr 10 min 06 sec)
Heartbeat CPU 2 instructions: 30000003 cycles: 7500049 heartbeat IPC: 4 cumulative IPC: 4 (Simulation time: 00 hr 10 min 51 sec)
Heartbeat CPU 1 instructions: 20000004 cycles: 7827861 heartbeat IPC: 2.555 cumulative IPC: 2.555 (Simulation time: 00 hr 11 min 18 sec)
Heartbeat CPU 3 instructions: 30000000 cycles: 9306043 heartbeat IPC: 3.227 cumulative IPC: 3.224 (Simulation time: 00 hr 13 min 32 sec)
Heartbeat CPU 2 instructions: 40000003 cycles: 10000049 heartbeat IPC: 4 cumulative IPC: 4 (Simulation time: 00 hr 14 min 34 sec)
Heartbeat CPU 0 instructions: 30000001 cycles: 10361201 heartbeat IPC: 2.895 cumulative IPC: 2.895 (Simulation time: 00 hr 15 min 09 sec)
Heartbeat CPU 1 instructions: 30000001 cycles: 11744921 heartbeat IPC: 2.553 cumulative IPC: 2.554 (Simulation time: 00 hr 17 min 09 sec)
Heartbeat CPU 3 instructions: 40000004 cycles: 12402954 heartbeat IPC: 3.229 cumulative IPC: 3.225 (Simulation time: 00 hr 18 min 03 sec)
Heartbeat CPU 2 instructions: 50000003 cycles: 12500049 heartbeat IPC: 4 cumulative IPC: 4 (Simulation time: 00 hr 18 min 12 sec)
Warmup finished CPU 2 instructions: 50000003 cycles: 12500050 cumulative IPC: 4 (Simulation time: 00 hr 18 min 12 sec)
Heartbeat CPU 0 instructions: 40000001 cycles: 13781237 heartbeat IPC: 2.924 cumulative IPC: 2.902 (Simulation time: 00 hr 20 min 11 sec)
Heartbeat CPU 2 instructions: 60000003 cycles: 15000049 heartbeat IPC: 4 cumulative IPC: 4 (Simulation time: 00 hr 22 min 21 sec)
Heartbeat CPU 3 instructions: 50000001 cycles: 15489456 heartbeat IPC: 3.24 cumulative IPC: 3.228 (Simulation time: 00 hr 23 min 14 sec)
Warmup finished CPU 3 instructions: 50000001 cycles: 15489457 cumulative IPC: 3.228 (Simulation time: 00 hr 23 min 14 sec)
Heartbeat CPU 1 instructions: 40000004 cycles: 15671143 heartbeat IPC: 2.547 cumulative IPC: 2.552 (Simulation time: 00 hr 23 min 33 sec)
Heartbeat CPU 0 instructions: 50000002 cycles: 17206073 heartbeat IPC: 2.92 cumulative IPC: 2.906 (Simulation time: 00 hr 26 min 09 sec)
Warmup finished CPU 0 instructions: 50000002 cycles: 17206074 cumulative IPC: 2.906 (Simulation time: 00 hr 26 min 09 sec)
Heartbeat CPU 2 instructions: 70000003 cycles: 17500049 heartbeat IPC: 4 cumulative IPC: 4 (Simulation time: 00 hr 26 min 39 sec)
Heartbeat CPU 3 instructions: 60000002 cycles: 18587549 heartbeat IPC: 3.228 cumulative IPC: 3.228 (Simulation time: 00 hr 28 min 40 sec)
Heartbeat CPU 1 instructions: 50000000 cycles: 19578855 heartbeat IPC: 2.559 cumulative IPC: 2.554 (Simulation time: 00 hr 30 min 12 sec)
Warmup finished CPU 1 instructions: 50000000 cycles: 19578856 cumulative IPC: 2.554 (Simulation time: 00 hr 30 min 12 sec)
Warmup complete CPU 0 instructions: 56909517 cycles: 19578856 cumulative IPC: 2.907 (Simulation time: 00 hr 30 min 12 sec)
Warmup complete CPU 1 instructions: 50000000 cycles: 19578856 cumulative IPC: 2.554 (Simulation time: 00 hr 30 min 12 sec)
Warmup complete CPU 2 instructions: 78315227 cycles: 19578856 cumulative IPC: 4 (Simulation time: 00 hr 30 min 12 sec)
Warmup complete CPU 3 instructions: 63197850 cycles: 19578856 cumulative IPC: 3.228 (Simulation time: 00 hr 30 min 12 sec)
Heartbeat CPU 0 instructions: 60000001 cycles: 20727341 heartbeat IPC: 2.84 cumulative IPC: 2.691 (Simulation time: 00 hr 30 min 54 sec)
Heartbeat CPU 2 instructions: 80000003 cycles: 21028091 heartbeat IPC: 2.834 cumulative IPC: 1.163 (Simulation time: 00 hr 31 min 05 sec)
Heartbeat CPU 0 instructions: 70000000 cycles: 24551064 heartbeat IPC: 2.615 cumulative IPC: 2.633 (Simulation time: 00 hr 33 min 21 sec)
Heartbeat CPU 0 instructions: 80000003 cycles: 29167771 heartbeat IPC: 2.166 cumulative IPC: 2.408 (Simulation time: 00 hr 36 min 35 sec)
Heartbeat CPU 2 instructions: 90000004 cycles: 30383229 heartbeat IPC: 1.069 cumulative IPC: 1.081 (Simulation time: 00 hr 37 min 30 sec)
Heartbeat CPU 0 instructions: 90000002 cycles: 34058603 heartbeat IPC: 2.045 cumulative IPC: 2.285 (Simulation time: 00 hr 40 min 29 sec)
Heartbeat CPU 0 instructions: 100000000 cycles: 39510011 heartbeat IPC: 1.834 cumulative IPC: 2.162 (Simulation time: 00 hr 43 min 20 sec)
Heartbeat CPU 2 instructions: 100000002 cycles: 40705096 heartbeat IPC: 0.9688 cumulative IPC: 1.026 (Simulation time: 00 hr 43 min 59 sec)
Heartbeat CPU 0 instructions: 110000004 cycles: 44741745 heartbeat IPC: 1.911 cumulative IPC: 2.11 (Simulation time: 00 hr 46 min 30 sec)
Heartbeat CPU 0 instructions: 120000000 cycles: 49513445 heartbeat IPC: 2.096 cumulative IPC: 2.108 (Simulation time: 00 hr 49 min 29 sec)
Heartbeat CPU 2 instructions: 110000003 cycles: 51552400 heartbeat IPC: 0.9219 cumulative IPC: 0.991 (Simulation time: 00 hr 51 min 05 sec)
Heartbeat CPU 0 instructions: 130000001 cycles: 54308639 heartbeat IPC: 2.085 cumulative IPC: 2.105 (Simulation time: 00 hr 52 min 50 sec)
Heartbeat CPU 0 instructions: 140000000 cycles: 59163335 heartbeat IPC: 2.06 cumulative IPC: 2.099 (Simulation time: 00 hr 55 min 34 sec)
Heartbeat CPU 3 instructions: 70000000 cycles: 61955514 heartbeat IPC: 0.2306 cumulative IPC: 0.1605 (Simulation time: 00 hr 57 min 11 sec)
Heartbeat CPU 2 instructions: 120000000 cycles: 62008624 heartbeat IPC: 0.9564 cumulative IPC: 0.9824 (Simulation time: 00 hr 57 min 13 sec)
Heartbeat CPU 0 instructions: 150000003 cycles: 64034987 heartbeat IPC: 2.053 cumulative IPC: 2.094 (Simulation time: 00 hr 58 min 23 sec)
Heartbeat CPU 0 instructions: 160000004 cycles: 68963215 heartbeat IPC: 2.029 cumulative IPC: 2.088 (Simulation time: 01 hr 01 min 14 sec)
Heartbeat CPU 2 instructions: 130000001 cycles: 72267199 heartbeat IPC: 0.9748 cumulative IPC: 0.981 (Simulation time: 01 hr 03 min 08 sec)
Heartbeat CPU 0 instructions: 170000003 cycles: 73955573 heartbeat IPC: 2.003 cumulative IPC: 2.08 (Simulation time: 01 hr 04 min 10 sec)
Heartbeat CPU 0 instructions: 180000002 cycles: 78888525 heartbeat IPC: 2.027 cumulative IPC: 2.075 (Simulation time: 01 hr 06 min 58 sec)
Heartbeat CPU 2 instructions: 140000002 cycles: 82524634 heartbeat IPC: 0.9749 cumulative IPC: 0.98 (Simulation time: 01 hr 08 min 53 sec)
Heartbeat CPU 0 instructions: 190000000 cycles: 83870360 heartbeat IPC: 2.007 cumulative IPC: 2.07 (Simulation time: 01 hr 09 min 34 sec)
Heartbeat CPU 0 instructions: 200000004 cycles: 88781691 heartbeat IPC: 2.036 cumulative IPC: 2.068 (Simulation time: 01 hr 12 min 44 sec)
Simulation finished CPU 0 instructions: 150000001 cycles: 72650316 cumulative IPC: 2.065 (Simulation time: 01 hr 14 min 50 sec)
Heartbeat CPU 2 instructions: 150000000 cycles: 92731367 heartbeat IPC: 0.9797 cumulative IPC: 0.9799 (Simulation time: 01 hr 15 min 09 sec)
Heartbeat CPU 1 instructions: 60000003 cycles: 93136338 heartbeat IPC: 0.1359 cumulative IPC: 0.1359 (Simulation time: 01 hr 15 min 23 sec)
Heartbeat CPU 0 instructions: 210000003 cycles: 93737754 heartbeat IPC: 2.018 cumulative IPC: 2.064 (Simulation time: 01 hr 15 min 44 sec)
Heartbeat CPU 0 instructions: 220000000 cycles: 98677215 heartbeat IPC: 2.025 cumulative IPC: 2.062 (Simulation time: 01 hr 18 min 38 sec)
Heartbeat CPU 2 instructions: 160000004 cycles: 103081984 heartbeat IPC: 0.9661 cumulative IPC: 0.9782 (Simulation time: 01 hr 21 min 14 sec)
Heartbeat CPU 0 instructions: 230000002 cycles: 103473618 heartbeat IPC: 2.085 cumulative IPC: 2.063 (Simulation time: 01 hr 21 min 28 sec)
Heartbeat CPU 0 instructions: 240000002 cycles: 108415194 heartbeat IPC: 2.024 cumulative IPC: 2.061 (Simulation time: 01 hr 24 min 22 sec)
Heartbeat CPU 0 instructions: 250000003 cycles: 113104227 heartbeat IPC: 2.133 cumulative IPC: 2.065 (Simulation time: 01 hr 27 min 06 sec)
Heartbeat CPU 2 instructions: 170000003 cycles: 113378780 heartbeat IPC: 0.9712 cumulative IPC: 0.9775 (Simulation time: 01 hr 27 min 15 sec)
Heartbeat CPU 0 instructions: 260000003 cycles: 117892024 heartbeat IPC: 2.089 cumulative IPC: 2.066 (Simulation time: 01 hr 30 min 50 sec)
Heartbeat CPU 0 instructions: 270000001 cycles: 122676985 heartbeat IPC: 2.09 cumulative IPC: 2.067 (Simulation time: 01 hr 34 min 34 sec)
Heartbeat CPU 2 instructions: 180000004 cycles: 123641066 heartbeat IPC: 0.9744 cumulative IPC: 0.9772 (Simulation time: 01 hr 35 min 26 sec)
Heartbeat CPU 0 instructions: 280000001 cycles: 127351133 heartbeat IPC: 2.139 cumulative IPC: 2.07 (Simulation time: 01 hr 38 min 28 sec)
Heartbeat CPU 3 instructions: 80000000 cycles: 130245817 heartbeat IPC: 0.1464 cumulative IPC: 0.1518 (Simulation time: 01 hr 40 min 43 sec)
Heartbeat CPU 0 instructions: 290000000 cycles: 132002741 heartbeat IPC: 2.15 cumulative IPC: 2.073 (Simulation time: 01 hr 41 min 57 sec)
Heartbeat CPU 2 instructions: 190000002 cycles: 134323593 heartbeat IPC: 0.9361 cumulative IPC: 0.9733 (Simulation time: 01 hr 43 min 25 sec)
Heartbeat CPU 0 instructions: 300000004 cycles: 135669967 heartbeat IPC: 2.727 cumulative IPC: 2.094 (Simulation time: 01 hr 44 min 12 sec)
Heartbeat CPU 0 instructions: 310000000 cycles: 139543860 heartbeat IPC: 2.581 cumulative IPC: 2.11 (Simulation time: 01 hr 46 min 30 sec)
Heartbeat CPU 0 instructions: 320000000 cycles: 144577182 heartbeat IPC: 1.987 cumulative IPC: 2.105 (Simulation time: 01 hr 49 min 10 sec)
Heartbeat CPU 2 instructions: 200000000 cycles: 144887331 heartbeat IPC: 0.9466 cumulative IPC: 0.9711 (Simulation time: 01 hr 49 min 20 sec)
Heartbeat CPU 0 instructions: 330000001 cycles: 150374230 heartbeat IPC: 1.725 cumulative IPC: 2.088 (Simulation time: 01 hr 52 min 07 sec)
Heartbeat CPU 0 instructions: 340000002 cycles: 155285091 heartbeat IPC: 2.036 cumulative IPC: 2.086 (Simulation time: 01 hr 54 min 50 sec)
Heartbeat CPU 2 instructions: 210000001 cycles: 155548956 heartbeat IPC: 0.9379 cumulative IPC: 0.9685 (Simulation time: 01 hr 54 min 58 sec)
Heartbeat CPU 0 instructions: 350000000 cycles: 159206001 heartbeat IPC: 2.55 cumulative IPC: 2.099 (Simulation time: 01 hr 57 min 38 sec)
Heartbeat CPU 0 instructions: 360000002 cycles: 162769001 heartbeat IPC: 2.807 cumulative IPC: 2.117 (Simulation time: 01 hr 59 min 51 sec)
Heartbeat CPU 2 instructions: 220000004 cycles: 165861896 heartbeat IPC: 0.9697 cumulative IPC: 0.9686 (Simulation time: 02 hr 01 min 51 sec)
Heartbeat CPU 0 instructions: 370000000 cycles: 166533808 heartbeat IPC: 2.656 cumulative IPC: 2.131 (Simulation time: 02 hr 02 min 14 sec)
Heartbeat CPU 1 instructions: 70000004 cycles: 168105679 heartbeat IPC: 0.1334 cumulative IPC: 0.1347 (Simulation time: 02 hr 03 min 09 sec)
Heartbeat CPU 0 instructions: 380000004 cycles: 170159930 heartbeat IPC: 2.758 cumulative IPC: 2.146 (Simulation time: 02 hr 04 min 27 sec)
Heartbeat CPU 0 instructions: 390000000 cycles: 173853369 heartbeat IPC: 2.708 cumulative IPC: 2.159 (Simulation time: 02 hr 06 min 36 sec)
Simulation finished CPU 2 instructions: 150000004 cycles: 155092422 cumulative IPC: 0.9672 (Simulation time: 02 hr 07 min 04 sec)
Heartbeat CPU 2 instructions: 230000003 cycles: 176335159 heartbeat IPC: 0.9548 cumulative IPC: 0.9676 (Simulation time: 02 hr 08 min 02 sec)
Heartbeat CPU 0 instructions: 400000003 cycles: 177447869 heartbeat IPC: 2.782 cumulative IPC: 2.173 (Simulation time: 02 hr 08 min 48 sec)
Heartbeat CPU 0 instructions: 410000002 cycles: 181126801 heartbeat IPC: 2.718 cumulative IPC: 2.186 (Simulation time: 02 hr 11 min 24 sec)
Heartbeat CPU 0 instructions: 420000004 cycles: 184956031 heartbeat IPC: 2.611 cumulative IPC: 2.196 (Simulation time: 02 hr 14 min 25 sec)
Heartbeat CPU 2 instructions: 240000001 cycles: 186617805 heartbeat IPC: 0.9725 cumulative IPC: 0.9679 (Simulation time: 02 hr 15 min 29 sec)
Heartbeat CPU 0 instructions: 430000001 cycles: 188665599 heartbeat IPC: 2.696 cumulative IPC: 2.207 (Simulation time: 02 hr 16 min 51 sec)
Heartbeat CPU 0 instructions: 440000001 cycles: 192304761 heartbeat IPC: 2.748 cumulative IPC: 2.218 (Simulation time: 02 hr 19 min 19 sec)
Heartbeat CPU 0 instructions: 450000003 cycles: 196024146 heartbeat IPC: 2.689 cumulative IPC: 2.228 (Simulation time: 02 hr 21 min 50 sec)
Heartbeat CPU 2 instructions: 250000000 cycles: 197524357 heartbeat IPC: 0.9169 cumulative IPC: 0.9648 (Simulation time: 02 hr 22 min 47 sec)
Heartbeat CPU 3 instructions: 90000003 cycles: 198309154 heartbeat IPC: 0.1469 cumulative IPC: 0.15 (Simulation time: 02 hr 23 min 17 sec)
Heartbeat CPU 0 instructions: 460000000 cycles: 199797567 heartbeat IPC: 2.65 cumulative IPC: 2.237 (Simulation time: 02 hr 24 min 16 sec)
Heartbeat CPU 0 instructions: 470000002 cycles: 203409202 heartbeat IPC: 2.769 cumulative IPC: 2.247 (Simulation time: 02 hr 26 min 39 sec)
Heartbeat CPU 0 instructions: 480000001 cycles: 207082787 heartbeat IPC: 2.722 cumulative IPC: 2.256 (Simulation time: 02 hr 29 min 04 sec)
Heartbeat CPU 2 instructions: 260000004 cycles: 207856047 heartbeat IPC: 0.9679 cumulative IPC: 0.965 (Simulation time: 02 hr 29 min 34 sec)
Heartbeat CPU 0 instructions: 490000002 cycles: 210692610 heartbeat IPC: 2.77 cumulative IPC: 2.266 (Simulation time: 02 hr 31 min 27 sec)
Heartbeat CPU 0 instructions: 500000002 cycles: 214325048 heartbeat IPC: 2.753 cumulative IPC: 2.275 (Simulation time: 02 hr 33 min 40 sec)
Heartbeat CPU 2 instructions: 270000003 cycles: 217332054 heartbeat IPC: 1.055 cumulative IPC: 0.9693 (Simulation time: 02 hr 35 min 25 sec)
Heartbeat CPU 0 instructions: 510000004 cycles: 217959187 heartbeat IPC: 2.752 cumulative IPC: 2.284 (Simulation time: 02 hr 35 min 49 sec)
Heartbeat CPU 0 instructions: 520000004 cycles: 221767947 heartbeat IPC: 2.626 cumulative IPC: 2.29 (Simulation time: 02 hr 38 min 00 sec)
Heartbeat CPU 0 instructions: 530000002 cycles: 225436875 heartbeat IPC: 2.726 cumulative IPC: 2.298 (Simulation time: 02 hr 40 min 45 sec)
Heartbeat CPU 2 instructions: 280000000 cycles: 226282083 heartbeat IPC: 1.117 cumulative IPC: 0.9757 (Simulation time: 02 hr 41 min 23 sec)
Heartbeat CPU 0 instructions: 540000001 cycles: 229197496 heartbeat IPC: 2.659 cumulative IPC: 2.305 (Simulation time: 02 hr 43 min 33 sec)
Heartbeat CPU 0 instructions: 550000001 cycles: 232945602 heartbeat IPC: 2.668 cumulative IPC: 2.311 (Simulation time: 02 hr 46 min 17 sec)
Heartbeat CPU 2 instructions: 290000004 cycles: 236317291 heartbeat IPC: 0.9965 cumulative IPC: 0.9767 (Simulation time: 02 hr 48 min 44 sec)
Heartbeat CPU 0 instructions: 560000002 cycles: 236898414 heartbeat IPC: 2.53 cumulative IPC: 2.315 (Simulation time: 02 hr 49 min 09 sec)
Heartbeat CPU 0 instructions: 570000001 cycles: 240661723 heartbeat IPC: 2.657 cumulative IPC: 2.321 (Simulation time: 02 hr 51 min 28 sec)
Heartbeat CPU 1 instructions: 80000002 cycles: 242955233 heartbeat IPC: 0.1336 cumulative IPC: 0.1343 (Simulation time: 02 hr 52 min 50 sec)
Heartbeat CPU 0 instructions: 580000004 cycles: 244379396 heartbeat IPC: 2.69 cumulative IPC: 2.327 (Simulation time: 02 hr 53 min 42 sec)
Heartbeat CPU 2 instructions: 300000004 cycles: 246779492 heartbeat IPC: 0.9558 cumulative IPC: 0.9757 (Simulation time: 02 hr 55 min 07 sec)
Heartbeat CPU 0 instructions: 590000000 cycles: 248124074 heartbeat IPC: 2.67 cumulative IPC: 2.333 (Simulation time: 02 hr 55 min 52 sec)
Heartbeat CPU 3 instructions: 100000000 cycles: 248316909 heartbeat IPC: 0.2 cumulative IPC: 0.1609 (Simulation time: 02 hr 56 min 00 sec)
Heartbeat CPU 0 instructions: 600000002 cycles: 251827986 heartbeat IPC: 2.7 cumulative IPC: 2.338 (Simulation time: 02 hr 58 min 13 sec)
Heartbeat CPU 0 instructions: 610000000 cycles: 255568203 heartbeat IPC: 2.674 cumulative IPC: 2.344 (Simulation time: 03 hr 00 min 52 sec)
Heartbeat CPU 2 instructions: 310000002 cycles: 257256057 heartbeat IPC: 0.9545 cumulative IPC: 0.9748 (Simulation time: 03 hr 02 min 06 sec)
Heartbeat CPU 0 instructions: 620000003 cycles: 259248065 heartbeat IPC: 2.717 cumulative IPC: 2.349 (Simulation time: 03 hr 03 min 18 sec)
Heartbeat CPU 0 instructions: 630000002 cycles: 263001383 heartbeat IPC: 2.664 cumulative IPC: 2.354 (Simulation time: 03 hr 05 min 38 sec)
Heartbeat CPU 0 instructions: 640000004 cycles: 266727776 heartbeat IPC: 2.684 cumulative IPC: 2.359 (Simulation time: 03 hr 07 min 59 sec)
Heartbeat CPU 2 instructions: 320000002 cycles: 267858014 heartbeat IPC: 0.9432 cumulative IPC: 0.9734 (Simulation time: 03 hr 08 min 38 sec)
Heartbeat CPU 0 instructions: 650000002 cycles: 270542634 heartbeat IPC: 2.621 cumulative IPC: 2.363 (Simulation time: 03 hr 10 min 11 sec)
Heartbeat CPU 0 instructions: 660000000 cycles: 274209134 heartbeat IPC: 2.727 cumulative IPC: 2.368 (Simulation time: 03 hr 12 min 23 sec)
Heartbeat CPU 0 instructions: 670000003 cycles: 277982851 heartbeat IPC: 2.65 cumulative IPC: 2.373 (Simulation time: 03 hr 14 min 38 sec)
Heartbeat CPU 2 instructions: 330000003 cycles: 277992619 heartbeat IPC: 0.9867 cumulative IPC: 0.974 (Simulation time: 03 hr 14 min 38 sec)
Heartbeat CPU 0 instructions: 680000002 cycles: 281730299 heartbeat IPC: 2.668 cumulative IPC: 2.377 (Simulation time: 03 hr 16 min 55 sec)
Heartbeat CPU 0 instructions: 690000002 cycles: 285369303 heartbeat IPC: 2.748 cumulative IPC: 2.382 (Simulation time: 03 hr 19 min 08 sec)
Heartbeat CPU 2 instructions: 340000001 cycles: 288491945 heartbeat IPC: 0.9524 cumulative IPC: 0.9731 (Simulation time: 03 hr 20 min 58 sec)
Heartbeat CPU 0 instructions: 700000004 cycles: 289132158 heartbeat IPC: 2.658 cumulative IPC: 2.386 (Simulation time: 03 hr 21 min 20 sec)
Heartbeat CPU 0 instructions: 710000001 cycles: 293524092 heartbeat IPC: 2.277 cumulative IPC: 2.384 (Simulation time: 03 hr 23 min 47 sec)
Heartbeat CPU 0 instructions: 720000002 cycles: 297216340 heartbeat IPC: 2.708 cumulative IPC: 2.388 (Simulation time: 03 hr 25 min 57 sec)
Heartbeat CPU 2 instructions: 350000000 cycles: 298730269 heartbeat IPC: 0.9767 cumulative IPC: 0.9733 (Simulation time: 03 hr 26 min 51 sec)
Heartbeat CPU 0 instructions: 730000000 cycles: 300883562 heartbeat IPC: 2.727 cumulative IPC: 2.393 (Simulation time: 03 hr 28 min 08 sec)
Heartbeat CPU 3 instructions: 110000000 cycles: 300929666 heartbeat IPC: 0.1901 cumulative IPC: 0.1663 (Simulation time: 03 hr 28 min 11 sec)
Heartbeat CPU 0 instructions: 740000001 cycles: 304550955 heartbeat IPC: 2.727 cumulative IPC: 2.397 (Simulation time: 03 hr 30 min 24 sec)
Heartbeat CPU 0 instructions: 750000002 cycles: 308230776 heartbeat IPC: 2.718 cumulative IPC: 2.401 (Simulation time: 03 hr 32 min 42 sec)
Heartbeat CPU 2 instructions: 360000002 cycles: 308809083 heartbeat IPC: 0.9922 cumulative IPC: 0.9739 (Simulation time: 03 hr 33 min 02 sec)
Heartbeat CPU 0 instructions: 760000002 cycles: 311914343 heartbeat IPC: 2.715 cumulative IPC: 2.405 (Simulation time: 03 hr 34 min 59 sec)
Heartbeat CPU 0 instructions: 770000004 cycles: 315686647 heartbeat IPC: 2.651 cumulative IPC: 2.408 (Simulation time: 03 hr 37 min 15 sec)
Heartbeat CPU 1 instructions: 90000001 cycles: 317105839 heartbeat IPC: 0.1349 cumulative IPC: 0.1344 (Simulation time: 03 hr 38 min 06 sec)
Heartbeat CPU 2 instructions: 370000003 cycles: 319120247 heartbeat IPC: 0.9698 cumulative IPC: 0.9738 (Simulation time: 03 hr 39 min 21 sec)
Heartbeat CPU 0 instructions: 780000002 cycles: 319283310 heartbeat IPC: 2.78 cumulative IPC: 2.413 (Simulation time: 03 hr 39 min 27 sec)
Heartbeat CPU 0 instructions: 790000000 cycles: 322964978 heartbeat IPC: 2.716 cumulative IPC: 2.416 (Simulation time: 03 hr 41 min 42 sec)
Heartbeat CPU 0 instructions: 800000000 cycles: 326695416 heartbeat IPC: 2.681 cumulative IPC: 2.42 (Simulation time: 03 hr 44 min 10 sec)
Heartbeat CPU 2 instructions: 380000000 cycles: 329507916 heartbeat IPC: 0.9627 cumulative IPC: 0.9734 (Simulation time: 03 hr 46 min 03 sec)
Heartbeat CPU 0 instructions: 810000003 cycles: 330396493 heartbeat IPC: 2.702 cumulative IPC: 2.423 (Simulation time: 03 hr 46 min 35 sec)
Heartbeat CPU 0 instructions: 820000003 cycles: 334067028 heartbeat IPC: 2.724 cumulative IPC: 2.426 (Simulation time: 03 hr 48 min 39 sec)
Heartbeat CPU 0 instructions: 830000001 cycles: 337839791 heartbeat IPC: 2.651 cumulative IPC: 2.429 (Simulation time: 03 hr 50 min 46 sec)
Heartbeat CPU 2 instructions: 390000002 cycles: 339898721 heartbeat IPC: 0.9624 cumulative IPC: 0.973 (Simulation time: 03 hr 51 min 57 sec)
Heartbeat CPU 0 instructions: 840000000 cycles: 341577113 heartbeat IPC: 2.676 cumulative IPC: 2.432 (Simulation time: 03 hr 52 min 53 sec)
Heartbeat CPU 0 instructions: 850000002 cycles: 345248489 heartbeat IPC: 2.724 cumulative IPC: 2.435 (Simulation time: 03 hr 55 min 08 sec)
Heartbeat CPU 0 instructions: 860000004 cycles: 349027871 heartbeat IPC: 2.646 cumulative IPC: 2.438 (Simulation time: 03 hr 57 min 16 sec)
Heartbeat CPU 2 instructions: 400000004 cycles: 350286326 heartbeat IPC: 0.9627 cumulative IPC: 0.9727 (Simulation time: 03 hr 57 min 59 sec)
Heartbeat CPU 0 instructions: 870000002 cycles: 352681319 heartbeat IPC: 2.737 cumulative IPC: 2.441 (Simulation time: 03 hr 59 min 29 sec)
Heartbeat CPU 3 instructions: 120000003 cycles: 353138228 heartbeat IPC: 0.1915 cumulative IPC: 0.1703 (Simulation time: 03 hr 59 min 48 sec)
Heartbeat CPU 0 instructions: 880000000 cycles: 356377192 heartbeat IPC: 2.706 cumulative IPC: 2.444 (Simulation time: 04 hr 02 min 07 sec)
Heartbeat CPU 0 instructions: 890000003 cycles: 360023200 heartbeat IPC: 2.743 cumulative IPC: 2.447 (Simulation time: 04 hr 04 min 15 sec)
Heartbeat CPU 2 instructions: 410000001 cycles: 360421924 heartbeat IPC: 0.9866 cumulative IPC: 0.9731 (Simulation time: 04 hr 04 min 32 sec)
Heartbeat CPU 0 instructions: 900000000 cycles: 363694063 heartbeat IPC: 2.724 cumulative IPC: 2.45 (Simulation time: 04 hr 06 min 35 sec)
Heartbeat CPU 0 instructions: 910000000 cycles: 367506866 heartbeat IPC: 2.623 cumulative IPC: 2.452 (Simulation time: 04 hr 08 min 56 sec)
Heartbeat CPU 0 instructions: 920000004 cycles: 371493867 heartbeat IPC: 2.508 cumulative IPC: 2.453 (Simulation time: 04 hr 11 min 09 sec)
Heartbeat CPU 2 instructions: 420000004 cycles: 371639895 heartbeat IPC: 0.8914 cumulative IPC: 0.9705 (Simulation time: 04 hr 11 min 13 sec)
Heartbeat CPU 0 instructions: 930000002 cycles: 375722286 heartbeat IPC: 2.365 cumulative IPC: 2.452 (Simulation time: 04 hr 13 min 29 sec)
Heartbeat CPU 0 instructions: 940000000 cycles: 379723409 heartbeat IPC: 2.499 cumulative IPC: 2.452 (Simulation time: 04 hr 15 min 42 sec)
Heartbeat CPU 2 instructions: 430000001 cycles: 381700988 heartbeat IPC: 0.9939 cumulative IPC: 0.9712 (Simulation time: 04 hr 16 min 53 sec)
Heartbeat CPU 0 instructions: 950000000 cycles: 383353812 heartbeat IPC: 2.755 cumulative IPC: 2.455 (Simulation time: 04 hr 17 min 50 sec)
Heartbeat CPU 0 instructions: 960000002 cycles: 387064919 heartbeat IPC: 2.695 cumulative IPC: 2.457 (Simulation time: 04 hr 20 min 02 sec)
Heartbeat CPU 0 instructions: 970000002 cycles: 390806284 heartbeat IPC: 2.673 cumulative IPC: 2.46 (Simulation time: 04 hr 22 min 33 sec)
Heartbeat CPU 2 instructions: 440000004 cycles: 391964021 heartbeat IPC: 0.9744 cumulative IPC: 0.9713 (Simulation time: 04 hr 23 min 14 sec)
Heartbeat CPU 0 instructions: 980000001 cycles: 394528490 heartbeat IPC: 2.687 cumulative IPC: 2.462 (Simulation time: 04 hr 24 min 49 sec)
Heartbeat CPU 1 instructions: 100000000 cycles: 395253255 heartbeat IPC: 0.128 cumulative IPC: 0.1331 (Simulation time: 04 hr 25 min 15 sec)
Heartbeat CPU 0 instructions: 990000003 cycles: 398266705 heartbeat IPC: 2.675 cumulative IPC: 2.464 (Simulation time: 04 hr 27 min 09 sec)
Heartbeat CPU 0 instructions: 1000000002 cycles: 401935707 heartbeat IPC: 2.726 cumulative IPC: 2.467 (Simulation time: 04 hr 29 min 26 sec)
Heartbeat CPU 2 instructions: 450000003 cycles: 402237067 heartbeat IPC: 0.9734 cumulative IPC: 0.9713 (Simulation time: 04 hr 29 min 39 sec)
Heartbeat CPU 3 instructions: 130000000 cycles: 404740995 heartbeat IPC: 0.1938 cumulative IPC: 0.1734 (Simulation time: 04 hr 31 min 04 sec)
Heartbeat CPU 0 instructions: 1010000003 cycles: 405614382 heartbeat IPC: 2.718 cumulative IPC: 2.469 (Simulation time: 04 hr 31 min 33 sec)
Heartbeat CPU 0 instructions: 1020000003 cycles: 409290128 heartbeat IPC: 2.721 cumulative IPC: 2.471 (Simulation time: 04 hr 33 min 44 sec)
Heartbeat CPU 2 instructions: 460000003 cycles: 412582715 heartbeat IPC: 0.9666 cumulative IPC: 0.9712 (Simulation time: 04 hr 35 min 45 sec)
Heartbeat CPU 0 instructions: 1030000001 cycles: 412982543 heartbeat IPC: 2.708 cumulative IPC: 2.474 (Simulation time: 04 hr 36 min 00 sec)
Heartbeat CPU 0 instructions: 1040000001 cycles: 416667104 heartbeat IPC: 2.714 cumulative IPC: 2.476 (Simulation time: 04 hr 38 min 12 sec)
Heartbeat CPU 0 instructions: 1050000001 cycles: 420430851 heartbeat IPC: 2.657 cumulative IPC: 2.477 (Simulation time: 04 hr 40 min 21 sec)
Heartbeat CPU 2 instructions: 470000002 cycles: 422986432 heartbeat IPC: 0.9612 cumulative IPC: 0.9709 (Simulation time: 04 hr 41 min 46 sec)
Heartbeat CPU 0 instructions: 1060000001 cycles: 424182921 heartbeat IPC: 2.665 cumulative IPC: 2.479 (Simulation time: 04 hr 42 min 26 sec)
Heartbeat CPU 0 instructions: 1070000001 cycles: 427904802 heartbeat IPC: 2.687 cumulative IPC: 2.481 (Simulation time: 04 hr 44 min 33 sec)
Heartbeat CPU 0 instructions: 1080000003 cycles: 431611650 heartbeat IPC: 2.698 cumulative IPC: 2.483 (Simulation time: 04 hr 46 min 37 sec)
Heartbeat CPU 2 instructions: 480000002 cycles: 433307489 heartbeat IPC: 0.9689 cumulative IPC: 0.9709 (Simulation time: 04 hr 47 min 35 sec)
Heartbeat CPU 0 instructions: 1090000001 cycles: 435377441 heartbeat IPC: 2.655 cumulative IPC: 2.485 (Simulation time: 04 hr 48 min 48 sec)
Heartbeat CPU 0 instructions: 1100000003 cycles: 439156707 heartbeat IPC: 2.646 cumulative IPC: 2.486 (Simulation time: 04 hr 50 min 53 sec)
Heartbeat CPU 0 instructions: 1110000003 cycles: 442956516 heartbeat IPC: 2.632 cumulative IPC: 2.487 (Simulation time: 04 hr 53 min 02 sec)
Heartbeat CPU 2 instructions: 490000003 cycles: 443758423 heartbeat IPC: 0.9569 cumulative IPC: 0.9705 (Simulation time: 04 hr 53 min 27 sec)
Heartbeat CPU 0 instructions: 1120000001 cycles: 446902193 heartbeat IPC: 2.534 cumulative IPC: 2.488 (Simulation time: 04 hr 55 min 09 sec)
Heartbeat CPU 0 instructions: 1130000002 cycles: 450631469 heartbeat IPC: 2.681 cumulative IPC: 2.489 (Simulation time: 04 hr 57 min 12 sec)
Heartbeat CPU 2 instructions: 500000003 cycles: 454366625 heartbeat IPC: 0.9427 cumulative IPC: 0.9699 (Simulation time: 04 hr 59 min 13 sec)
Heartbeat CPU 0 instructions: 1140000000 cycles: 454394347 heartbeat IPC: 2.658 cumulative IPC: 2.491 (Simulation time: 04 hr 59 min 14 sec)
Heartbeat CPU 0 instructions: 1150000000 cycles: 458214881 heartbeat IPC: 2.617 cumulative IPC: 2.492 (Simulation time: 05 hr 01 min 21 sec)
Heartbeat CPU 3 instructions: 140000002 cycles: 459008961 heartbeat IPC: 0.1843 cumulative IPC: 0.1748 (Simulation time: 05 hr 01 min 47 sec)
Heartbeat CPU 0 instructions: 1160000000 cycles: 461946309 heartbeat IPC: 2.68 cumulative IPC: 2.494 (Simulation time: 05 hr 03 min 25 sec)
Heartbeat CPU 2 instructions: 510000000 cycles: 465559517 heartbeat IPC: 0.8934 cumulative IPC: 0.9679 (Simulation time: 05 hr 05 min 22 sec)
Heartbeat CPU 0 instructions: 1170000002 cycles: 466043001 heartbeat IPC: 2.441 cumulative IPC: 2.493 (Simulation time: 05 hr 05 min 37 sec)
Heartbeat CPU 0 instructions: 1180000004 cycles: 470606151 heartbeat IPC: 2.191 cumulative IPC: 2.49 (Simulation time: 05 hr 08 min 03 sec)
Heartbeat CPU 1 instructions: 110000004 cycles: 471975715 heartbeat IPC: 0.1303 cumulative IPC: 0.1326 (Simulation time: 05 hr 08 min 48 sec)
Heartbeat CPU 0 instructions: 1190000000 cycles: 474332209 heartbeat IPC: 2.684 cumulative IPC: 2.492 (Simulation time: 05 hr 10 min 02 sec)
Heartbeat CPU 2 instructions: 520000003 cycles: 475478913 heartbeat IPC: 1.008 cumulative IPC: 0.9688 (Simulation time: 05 hr 10 min 40 sec)
Heartbeat CPU 0 instructions: 1200000001 cycles: 478089836 heartbeat IPC: 2.661 cumulative IPC: 2.493 (Simulation time: 05 hr 12 min 02 sec)
Heartbeat CPU 0 instructions: 1210000002 cycles: 481707591 heartbeat IPC: 2.764 cumulative IPC: 2.495 (Simulation time: 05 hr 13 min 57 sec)
Heartbeat CPU 0 instructions: 1220000002 cycles: 485378126 heartbeat IPC: 2.724 cumulative IPC: 2.497 (Simulation time: 05 hr 15 min 55 sec)
Heartbeat CPU 2 instructions: 530000004 cycles: 485662556 heartbeat IPC: 0.982 cumulative IPC: 0.9691 (Simulation time: 05 hr 16 min 05 sec)
Heartbeat CPU 0 instructions: 1230000002 cycles: 489046529 heartbeat IPC: 2.726 cumulative IPC: 2.499 (Simulation time: 05 hr 17 min 55 sec)
Heartbeat CPU 0 instructions: 1240000003 cycles: 492718569 heartbeat IPC: 2.723 cumulative IPC: 2.501 (Simulation time: 05 hr 19 min 53 sec)
Heartbeat CPU 2 instructions: 540000000 cycles: 495966406 heartbeat IPC: 0.9705 cumulative IPC: 0.9691 (Simulation time: 05 hr 21 min 39 sec)
Heartbeat CPU 0 instructions: 1250000001 cycles: 496338784 heartbeat IPC: 2.762 cumulative IPC: 2.502 (Simulation time: 05 hr 21 min 51 sec)
Heartbeat CPU 0 instructions: 1260000000 cycles: 500016104 heartbeat IPC: 2.719 cumulative IPC: 2.504 (Simulation time: 05 hr 23 min 50 sec)
Heartbeat CPU 0 instructions: 1270000003 cycles: 503868707 heartbeat IPC: 2.596 cumulative IPC: 2.505 (Simulation time: 05 hr 25 min 51 sec)
Heartbeat CPU 2 instructions: 550000001 cycles: 506417621 heartbeat IPC: 0.9568 cumulative IPC: 0.9689 (Simulation time: 05 hr 27 min 12 sec)
Heartbeat CPU 0 instructions: 1280000001 cycles: 507680213 heartbeat IPC: 2.624 cumulative IPC: 2.506 (Simulation time: 05 hr 27 min 54 sec)
Heartbeat CPU 3 instructions: 150000000 cycles: 510794395 heartbeat IPC: 0.1931 cumulative IPC: 0.1767 (Simulation time: 05 hr 29 min 33 sec)
Heartbeat CPU 0 instructions: 1290000000 cycles: 511412168 heartbeat IPC: 2.68 cumulative IPC: 2.507 (Simulation time: 05 hr 29 min 54 sec)
Heartbeat CPU 0 instructions: 1300000001 cycles: 515018742 heartbeat IPC: 2.773 cumulative IPC: 2.509 (Simulation time: 05 hr 31 min 51 sec)
Heartbeat CPU 2 instructions: 560000004 cycles: 516440479 heartbeat IPC: 0.9977 cumulative IPC: 0.9695 (Simulation time: 05 hr 32 min 35 sec)
Heartbeat CPU 0 instructions: 1310000001 cycles: 518647623 heartbeat IPC: 2.756 cumulative IPC: 2.511 (Simulation time: 05 hr 33 min 47 sec)
Heartbeat CPU 0 instructions: 1320000001 cycles: 522310657 heartbeat IPC: 2.73 cumulative IPC: 2.512 (Simulation time: 05 hr 35 min 45 sec)
Heartbeat CPU 0 instructions: 1330000000 cycles: 526007225 heartbeat IPC: 2.705 cumulative IPC: 2.514 (Simulation time: 05 hr 37 min 42 sec)
Heartbeat CPU 2 instructions: 570000000 cycles: 526873649 heartbeat IPC: 0.9585 cumulative IPC: 0.9692 (Simulation time: 05 hr 38 min 09 sec)
Heartbeat CPU 0 instructions: 1340000003 cycles: 529722193 heartbeat IPC: 2.692 cumulative IPC: 2.515 (Simulation time: 05 hr 39 min 42 sec)
Heartbeat CPU 0 instructions: 1350000004 cycles: 533321134 heartbeat IPC: 2.779 cumulative IPC: 2.517 (Simulation time: 05 hr 41 min 38 sec)
Heartbeat CPU 0 instructions: 1360000000 cycles: 536937527 heartbeat IPC: 2.765 cumulative IPC: 2.519 (Simulation time: 05 hr 43 min 32 sec)
Heartbeat CPU 2 instructions: 580000002 cycles: 537032909 heartbeat IPC: 0.9843 cumulative IPC: 0.9695 (Simulation time: 05 hr 43 min 35 sec)
Heartbeat CPU 0 instructions: 1370000002 cycles: 540609333 heartbeat IPC: 2.723 cumulative IPC: 2.52 (Simulation time: 05 hr 45 min 31 sec)
Heartbeat CPU 0 instructions: 1380000000 cycles: 544330368 heartbeat IPC: 2.687 cumulative IPC: 2.521 (Simulation time: 05 hr 47 min 29 sec)
Heartbeat CPU 2 instructions: 590000004 cycles: 547514578 heartbeat IPC: 0.954 cumulative IPC: 0.9692 (Simulation time: 05 hr 49 min 11 sec)
Heartbeat CPU 0 instructions: 1390000000 cycles: 548049534 heartbeat IPC: 2.689 cumulative IPC: 2.523 (Simulation time: 05 hr 49 min 29 sec)
Heartbeat CPU 1 instructions: 120000004 cycles: 548677355 heartbeat IPC: 0.1304 cumulative IPC: 0.1323 (Simulation time: 05 hr 49 min 49 sec)
Heartbeat CPU 0 instructions: 1400000003 cycles: 551981140 heartbeat IPC: 2.543 cumulative IPC: 2.523 (Simulation time: 05 hr 51 min 35 sec)
Heartbeat CPU 0 instructions: 1410000000 cycles: 555667008 heartbeat IPC: 2.713 cumulative IPC: 2.524 (Simulation time: 05 hr 53 min 31 sec)
Heartbeat CPU 2 instructions: 600000003 cycles: 557737662 heartbeat IPC: 0.9782 cumulative IPC: 0.9694 (Simulation time: 05 hr 54 min 37 sec)
Heartbeat CPU 0 instructions: 1420000001 cycles: 559328093 heartbeat IPC: 2.731 cumulative IPC: 2.525 (Simulation time: 05 hr 55 min 29 sec)
Heartbeat CPU 3 instructions: 160000002 cycles: 561621181 heartbeat IPC: 0.1967 cumulative IPC: 0.1786 (Simulation time: 05 hr 56 min 44 sec)
Heartbeat CPU 0 instructions: 1430000003 cycles: 563063827 heartbeat IPC: 2.677 cumulative IPC: 2.526 (Simulation time: 05 hr 57 min 29 sec)
Heartbeat CPU 0 instructions: 1440000002 cycles: 566891240 heartbeat IPC: 2.613 cumulative IPC: 2.527 (Simulation time: 05 hr 59 min 32 sec)
Heartbeat CPU 2 instructions: 610000004 cycles: 568150751 heartbeat IPC: 0.9603 cumulative IPC: 0.9692 (Simulation time: 06 hr 00 min 12 sec)
Heartbeat CPU 0 instructions: 1450000000 cycles: 570710378 heartbeat IPC: 2.618 cumulative IPC: 2.528 (Simulation time: 06 hr 01 min 34 sec)
Heartbeat CPU 0 instructions: 1460000000 cycles: 574381735 heartbeat IPC: 2.724 cumulative IPC: 2.529 (Simulation time: 06 hr 03 min 42 sec)
Heartbeat CPU 0 instructions: 1470000003 cycles: 578062599 heartbeat IPC: 2.717 cumulative IPC: 2.53 (Simulation time: 06 hr 05 min 56 sec)
Heartbeat CPU 2 instructions: 620000001 cycles: 578417718 heartbeat IPC: 0.974 cumulative IPC: 0.9693 (Simulation time: 06 hr 06 min 08 sec)
Heartbeat CPU 0 instructions: 1480000004 cycles: 581880878 heartbeat IPC: 2.619 cumulative IPC: 2.531 (Simulation time: 06 hr 08 min 04 sec)
Heartbeat CPU 0 instructions: 1490000001 cycles: 585705345 heartbeat IPC: 2.615 cumulative IPC: 2.531 (Simulation time: 06 hr 10 min 05 sec)
Heartbeat CPU 2 instructions: 630000002 cycles: 588738085 heartbeat IPC: 0.969 cumulative IPC: 0.9693 (Simulation time: 06 hr 11 min 40 sec)
Heartbeat CPU 0 instructions: 1500000001 cycles: 589495121 heartbeat IPC: 2.639 cumulative IPC: 2.532 (Simulation time: 06 hr 12 min 04 sec)
Heartbeat CPU 0 instructions: 1510000002 cycles: 593205863 heartbeat IPC: 2.695 cumulative IPC: 2.533 (Simulation time: 06 hr 14 min 03 sec)
Heartbeat CPU 0 instructions: 1520000002 cycles: 596905616 heartbeat IPC: 2.703 cumulative IPC: 2.534 (Simulation time: 06 hr 16 min 04 sec)
Heartbeat CPU 2 instructions: 640000000 cycles: 599071533 heartbeat IPC: 0.9677 cumulative IPC: 0.9693 (Simulation time: 06 hr 17 min 17 sec)
Heartbeat CPU 0 instructions: 1530000001 cycles: 600651320 heartbeat IPC: 2.67 cumulative IPC: 2.535 (Simulation time: 06 hr 18 min 07 sec)
Heartbeat CPU 0 instructions: 1540000003 cycles: 604338949 heartbeat IPC: 2.712 cumulative IPC: 2.536 (Simulation time: 06 hr 20 min 06 sec)
Heartbeat CPU 0 instructions: 1550000004 cycles: 608066251 heartbeat IPC: 2.683 cumulative IPC: 2.537 (Simulation time: 06 hr 22 min 04 sec)
Heartbeat CPU 2 instructions: 650000000 cycles: 609497815 heartbeat IPC: 0.9591 cumulative IPC: 0.9691 (Simulation time: 06 hr 22 min 50 sec)
Heartbeat CPU 0 instructions: 1560000001 cycles: 611823223 heartbeat IPC: 2.662 cumulative IPC: 2.538 (Simulation time: 06 hr 24 min 02 sec)
Heartbeat CPU 3 instructions: 170000000 cycles: 615676129 heartbeat IPC: 0.185 cumulative IPC: 0.1792 (Simulation time: 06 hr 26 min 06 sec)
Heartbeat CPU 0 instructions: 1570000002 cycles: 615764073 heartbeat IPC: 2.538 cumulative IPC: 2.538 (Simulation time: 06 hr 26 min 09 sec)
Heartbeat CPU 0 instructions: 1580000000 cycles: 620365391 heartbeat IPC: 2.173 cumulative IPC: 2.535 (Simulation time: 06 hr 28 min 49 sec)
Heartbeat CPU 2 instructions: 660000004 cycles: 620643849 heartbeat IPC: 0.8972 cumulative IPC: 0.9678 (Simulation time: 06 hr 28 min 59 sec)
Heartbeat CPU 0 instructions: 1590000003 cycles: 624032454 heartbeat IPC: 2.727 cumulative IPC: 2.536 (Simulation time: 06 hr 30 min 54 sec)
Heartbeat CPU 1 instructions: 130000003 cycles: 625810330 heartbeat IPC: 0.1296 cumulative IPC: 0.132 (Simulation time: 06 hr 31 min 56 sec)
Heartbeat CPU 0 instructions: 1600000003 cycles: 627653153 heartbeat IPC: 2.762 cumulative IPC: 2.538 (Simulation time: 06 hr 32 min 59 sec)
Heartbeat CPU 2 instructions: 670000003 cycles: 630628298 heartbeat IPC: 1.002 cumulative IPC: 0.9683 (Simulation time: 06 hr 34 min 40 sec)
Heartbeat CPU 0 instructions: 1610000000 cycles: 631377523 heartbeat IPC: 2.685 cumulative IPC: 2.539 (Simulation time: 06 hr 35 min 05 sec)
Heartbeat CPU 0 instructions: 1620000000 cycles: 635069003 heartbeat IPC: 2.709 cumulative IPC: 2.54 (Simulation time: 06 hr 37 min 12 sec)
Heartbeat CPU 0 instructions: 1630000003 cycles: 638837367 heartbeat IPC: 2.654 cumulative IPC: 2.54 (Simulation time: 06 hr 39 min 16 sec)
Heartbeat CPU 2 instructions: 680000004 cycles: 641232615 heartbeat IPC: 0.943 cumulative IPC: 0.9679 (Simulation time: 06 hr 40 min 36 sec)
Heartbeat CPU 0 instructions: 1640000000 cycles: 642540109 heartbeat IPC: 2.701 cumulative IPC: 2.541 (Simulation time: 06 hr 41 min 18 sec)
Heartbeat CPU 0 instructions: 1650000000 cycles: 646683353 heartbeat IPC: 2.414 cumulative IPC: 2.54 (Simulation time: 06 hr 43 min 25 sec)
Heartbeat CPU 0 instructions: 1660000003 cycles: 650742822 heartbeat IPC: 2.463 cumulative IPC: 2.54 (Simulation time: 06 hr 45 min 32 sec)
Heartbeat CPU 2 instructions: 690000003 cycles: 651967277 heartbeat IPC: 0.9316 cumulative IPC: 0.9673 (Simulation time: 06 hr 46 min 15 sec)
Heartbeat CPU 0 instructions: 1670000000 cycles: 654535822 heartbeat IPC: 2.636 cumulative IPC: 2.54 (Simulation time: 06 hr 47 min 36 sec)
Heartbeat CPU 0 instructions: 1680000003 cycles: 658273651 heartbeat IPC: 2.675 cumulative IPC: 2.541 (Simulation time: 06 hr 49 min 38 sec)
Heartbeat CPU 0 instructions: 1690000002 cycles: 661853249 heartbeat IPC: 2.794 cumulative IPC: 2.543 (Simulation time: 06 hr 51 min 37 sec)
Heartbeat CPU 2 instructions: 700000000 cycles: 662165586 heartbeat IPC: 0.9806 cumulative IPC: 0.9675 (Simulation time: 06 hr 51 min 47 sec)
Heartbeat CPU 0 instructions: 1700000004 cycles: 665462811 heartbeat IPC: 2.77 cumulative IPC: 2.544 (Simulation time: 06 hr 53 min 39 sec)
Heartbeat CPU 3 instructions: 180000001 cycles: 666726296 heartbeat IPC: 0.1959 cumulative IPC: 0.1805 (Simulation time: 06 hr 54 min 22 sec)
Heartbeat CPU 0 instructions: 1710000002 cycles: 669079930 heartbeat IPC: 2.765 cumulative IPC: 2.545 (Simulation time: 06 hr 55 min 39 sec)
Heartbeat CPU 2 instructions: 710000001 cycles: 672575533 heartbeat IPC: 0.9606 cumulative IPC: 0.9674 (Simulation time: 06 hr 57 min 38 sec)
Heartbeat CPU 0 instructions: 1720000002 cycles: 672746956 heartbeat IPC: 2.727 cumulative IPC: 2.546 (Simulation time: 06 hr 57 min 43 sec)
Heartbeat CPU 0 instructions: 1730000000 cycles: 676378045 heartbeat IPC: 2.754 cumulative IPC: 2.547 (Simulation time: 06 hr 59 min 47 sec)
Heartbeat CPU 0 instructions: 1740000001 cycles: 679994624 heartbeat IPC: 2.765 cumulative IPC: 2.549 (Simulation time: 07 hr 01 min 47 sec)
Heartbeat CPU 2 instructions: 720000000 cycles: 682839433 heartbeat IPC: 0.9743 cumulative IPC: 0.9675 (Simulation time: 07 hr 03 min 21 sec)
Heartbeat CPU 0 instructions: 1750000004 cycles: 683717979 heartbeat IPC: 2.686 cumulative IPC: 2.549 (Simulation time: 07 hr 03 min 49 sec)
Heartbeat CPU 0 instructions: 1760000000 cycles: 687494642 heartbeat IPC: 2.648 cumulative IPC: 2.55 (Simulation time: 07 hr 05 min 51 sec)
Heartbeat CPU 0 instructions: 1770000000 cycles: 691222629 heartbeat IPC: 2.682 cumulative IPC: 2.551 (Simulation time: 07 hr 07 min 55 sec)
Heartbeat CPU 2 instructions: 730000004 cycles: 693443710 heartbeat IPC: 0.943 cumulative IPC: 0.9671 (Simulation time: 07 hr 09 min 06 sec)
Heartbeat CPU 0 instructions: 1780000000 cycles: 694866193 heartbeat IPC: 2.745 cumulative IPC: 2.552 (Simulation time: 07 hr 09 min 56 sec)
Heartbeat CPU 0 instructions: 1790000000 cycles: 698628754 heartbeat IPC: 2.658 cumulative IPC: 2.552 (Simulation time: 07 hr 11 min 57 sec)
Heartbeat CPU 1 instructions: 140000001 cycles: 700817195 heartbeat IPC: 0.1333 cumulative IPC: 0.1321 (Simulation time: 07 hr 13 min 09 sec)
Heartbeat CPU 0 instructions: 1800000004 cycles: 702368470 heartbeat IPC: 2.674 cumulative IPC: 2.553 (Simulation time: 07 hr 14 min 02 sec)
Heartbeat CPU 2 instructions: 740000000 cycles: 704078812 heartbeat IPC: 0.9403 cumulative IPC: 0.9667 (Simulation time: 07 hr 14 min 56 sec)
Heartbeat CPU 0 instructions: 1810000000 cycles: 706350723 heartbeat IPC: 2.511 cumulative IPC: 2.553 (Simulation time: 07 hr 16 min 14 sec)
Heartbeat CPU 0 instructions: 1820000003 cycles: 710636266 heartbeat IPC: 2.333 cumulative IPC: 2.551 (Simulation time: 07 hr 18 min 38 sec)
Heartbeat CPU 0 instructions: 1830000003 cycles: 714255134 heartbeat IPC: 2.763 cumulative IPC: 2.552 (Simulation time: 07 hr 20 min 44 sec)
Heartbeat CPU 2 instructions: 750000004 cycles: 714450963 heartbeat IPC: 0.9641 cumulative IPC: 0.9666 (Simulation time: 07 hr 20 min 51 sec)
Heartbeat CPU 0 instructions: 1840000000 cycles: 717924748 heartbeat IPC: 2.725 cumulative IPC: 2.553 (Simulation time: 07 hr 22 min 52 sec)
Heartbeat CPU 3 instructions: 190000003 cycles: 719251455 heartbeat IPC: 0.1904 cumulative IPC: 0.1812 (Simulation time: 07 hr 23 min 40 sec)
Heartbeat CPU 0 instructions: 1850000004 cycles: 721690992 heartbeat IPC: 2.655 cumulative IPC: 2.554 (Simulation time: 07 hr 24 min 59 sec)
Heartbeat CPU 2 instructions: 760000002 cycles: 724625460 heartbeat IPC: 0.9828 cumulative IPC: 0.9669 (Simulation time: 07 hr 26 min 44 sec)
Heartbeat CPU 0 instructions: 1860000003 cycles: 725381093 heartbeat IPC: 2.71 cumulative IPC: 2.555 (Simulation time: 07 hr 27 min 12 sec)
Heartbeat CPU 0 instructions: 1870000000 cycles: 729007278 heartbeat IPC: 2.758 cumulative IPC: 2.556 (Simulation time: 07 hr 29 min 16 sec)
Heartbeat CPU 0 instructions: 1880000001 cycles: 732640950 heartbeat IPC: 2.752 cumulative IPC: 2.557 (Simulation time: 07 hr 31 min 22 sec)
Heartbeat CPU 2 instructions: 770000000 cycles: 735045068 heartbeat IPC: 0.9597 cumulative IPC: 0.9668 (Simulation time: 07 hr 32 min 44 sec)
Heartbeat CPU 0 instructions: 1890000003 cycles: 736252716 heartbeat IPC: 2.769 cumulative IPC: 2.558 (Simulation time: 07 hr 33 min 25 sec)
Heartbeat CPU 0 instructions: 1900000000 cycles: 739908732 heartbeat IPC: 2.735 cumulative IPC: 2.559 (Simulation time: 07 hr 35 min 31 sec)
Heartbeat CPU 0 instructions: 1910000002 cycles: 743656911 heartbeat IPC: 2.668 cumulative IPC: 2.559 (Simulation time: 07 hr 37 min 39 sec)
Heartbeat CPU 2 instructions: 780000002 cycles: 745218563 heartbeat IPC: 0.9829 cumulative IPC: 0.967 (Simulation time: 07 hr 38 min 31 sec)
Heartbeat CPU 0 instructions: 1920000002 cycles: 747373997 heartbeat IPC: 2.69 cumulative IPC: 2.56 (Simulation time: 07 hr 39 min 43 sec)
Heartbeat CPU 0 instructions: 1930000002 cycles: 751131299 heartbeat IPC: 2.661 cumulative IPC: 2.56 (Simulation time: 07 hr 41 min 49 sec)
Heartbeat CPU 0 instructions: 1940000003 cycles: 754944626 heartbeat IPC: 2.622 cumulative IPC: 2.561 (Simulation time: 07 hr 43 min 54 sec)
Heartbeat CPU 2 instructions: 790000000 cycles: 756188300 heartbeat IPC: 0.9116 cumulative IPC: 0.9662 (Simulation time: 07 hr 44 min 34 sec)
Heartbeat CPU 0 instructions: 1950000001 cycles: 759013287 heartbeat IPC: 2.458 cumulative IPC: 2.56 (Simulation time: 07 hr 46 min 10 sec)
Heartbeat CPU 0 instructions: 1960000003 cycles: 763240224 heartbeat IPC: 2.366 cumulative IPC: 2.559 (Simulation time: 07 hr 48 min 29 sec)
Heartbeat CPU 2 instructions: 800000003 cycles: 766737328 heartbeat IPC: 0.948 cumulative IPC: 0.9659 (Simulation time: 07 hr 50 min 24 sec)
Heartbeat CPU 0 instructions: 1970000001 cycles: 767306203 heartbeat IPC: 2.459 cumulative IPC: 2.559 (Simulation time: 07 hr 50 min 43 sec)
Heartbeat CPU 0 instructions: 1980000001 cycles: 771052930 heartbeat IPC: 2.669 cumulative IPC: 2.559 (Simulation time: 07 hr 52 min 56 sec)
Heartbeat CPU 3 instructions: 200000000 cycles: 772598217 heartbeat IPC: 0.1875 cumulative IPC: 0.1817 (Simulation time: 07 hr 53 min 48 sec)
Heartbeat CPU 0 instructions: 1990000003 cycles: 774859277 heartbeat IPC: 2.627 cumulative IPC: 2.559 (Simulation time: 07 hr 55 min 08 sec)
Heartbeat CPU 2 instructions: 810000000 cycles: 776856888 heartbeat IPC: 0.9882 cumulative IPC: 0.9662 (Simulation time: 07 hr 56 min 17 sec)
Heartbeat CPU 1 instructions: 150000003 cycles: 777385966 heartbeat IPC: 0.1306 cumulative IPC: 0.132 (Simulation time: 07 hr 56 min 35 sec)
*** Reached end of trace: (0, "/home/das/dpc3_traces/644.nab_s-5853B.champsimtrace.xz")
Heartbeat CPU 0 instructions: 2000000000 cycles: 778670119 heartbeat IPC: 2.624 cumulative IPC: 2.56 (Simulation time: 07 hr 57 min 17 sec)
Heartbeat CPU 0 instructions: 2010000002 cycles: 782861429 heartbeat IPC: 2.386 cumulative IPC: 2.559 (Simulation time: 07 hr 59 min 38 sec)
Heartbeat CPU 0 instructions: 2020000001 cycles: 786513585 heartbeat IPC: 2.738 cumulative IPC: 2.56 (Simulation time: 08 hr 01 min 44 sec)
Heartbeat CPU 2 instructions: 820000003 cycles: 787258136 heartbeat IPC: 0.9614 cumulative IPC: 0.9661 (Simulation time: 08 hr 02 min 12 sec)
Heartbeat CPU 0 instructions: 2030000002 cycles: 790185192 heartbeat IPC: 2.724 cumulative IPC: 2.56 (Simulation time: 08 hr 03 min 52 sec)
Heartbeat CPU 0 instructions: 2040000002 cycles: 793865495 heartbeat IPC: 2.717 cumulative IPC: 2.561 (Simulation time: 08 hr 06 min 03 sec)
Heartbeat CPU 2 instructions: 830000000 cycles: 797593574 heartbeat IPC: 0.9675 cumulative IPC: 0.9662 (Simulation time: 08 hr 08 min 08 sec)
Heartbeat CPU 0 instructions: 2050000003 cycles: 797614515 heartbeat IPC: 2.667 cumulative IPC: 2.562 (Simulation time: 08 hr 08 min 08 sec)
Heartbeat CPU 0 instructions: 2060000000 cycles: 801334545 heartbeat IPC: 2.688 cumulative IPC: 2.562 (Simulation time: 08 hr 10 min 15 sec)
Heartbeat CPU 0 instructions: 2070000003 cycles: 805211484 heartbeat IPC: 2.579 cumulative IPC: 2.562 (Simulation time: 08 hr 12 min 31 sec)
Heartbeat CPU 2 instructions: 840000001 cycles: 807800589 heartbeat IPC: 0.9797 cumulative IPC: 0.9663 (Simulation time: 08 hr 13 min 59 sec)
Heartbeat CPU 0 instructions: 2080000002 cycles: 808883282 heartbeat IPC: 2.723 cumulative IPC: 2.563 (Simulation time: 08 hr 14 min 39 sec)
Heartbeat CPU 0 instructions: 2090000003 cycles: 812612140 heartbeat IPC: 2.682 cumulative IPC: 2.564 (Simulation time: 08 hr 16 min 47 sec)
Heartbeat CPU 0 instructions: 2100000002 cycles: 816413114 heartbeat IPC: 2.631 cumulative IPC: 2.564 (Simulation time: 08 hr 18 min 59 sec)
Heartbeat CPU 2 instructions: 850000004 cycles: 818126720 heartbeat IPC: 0.9684 cumulative IPC: 0.9664 (Simulation time: 08 hr 19 min 58 sec)
Heartbeat CPU 0 instructions: 2110000000 cycles: 820141110 heartbeat IPC: 2.682 cumulative IPC: 2.565 (Simulation time: 08 hr 21 min 09 sec)
Heartbeat CPU 0 instructions: 2120000002 cycles: 823809016 heartbeat IPC: 2.726 cumulative IPC: 2.565 (Simulation time: 08 hr 23 min 17 sec)
Heartbeat CPU 3 instructions: 210000000 cycles: 826692789 heartbeat IPC: 0.1849 cumulative IPC: 0.1819 (Simulation time: 08 hr 24 min 55 sec)
Heartbeat CPU 0 instructions: 2130000000 cycles: 827524922 heartbeat IPC: 2.691 cumulative IPC: 2.566 (Simulation time: 08 hr 25 min 25 sec)
Heartbeat CPU 2 instructions: 860000001 cycles: 828411233 heartbeat IPC: 0.9723 cumulative IPC: 0.9664 (Simulation time: 08 hr 25 min 55 sec)
Heartbeat CPU 0 instructions: 2140000000 cycles: 831169221 heartbeat IPC: 2.744 cumulative IPC: 2.567 (Simulation time: 08 hr 27 min 30 sec)
Heartbeat CPU 0 instructions: 2150000002 cycles: 834790762 heartbeat IPC: 2.761 cumulative IPC: 2.568 (Simulation time: 08 hr 29 min 44 sec)
Heartbeat CPU 0 instructions: 2160000004 cycles: 838545745 heartbeat IPC: 2.663 cumulative IPC: 2.568 (Simulation time: 08 hr 31 min 57 sec)
Heartbeat CPU 2 instructions: 870000001 cycles: 838574614 heartbeat IPC: 0.9839 cumulative IPC: 0.9667 (Simulation time: 08 hr 31 min 58 sec)
Simulation finished CPU 3 instructions: 150000003 cycles: 821739431 cumulative IPC: 0.1825 (Simulation time: 08 hr 33 min 37 sec)
Heartbeat CPU 0 instructions: 2170000004 cycles: 842347481 heartbeat IPC: 2.63 cumulative IPC: 2.568 (Simulation time: 08 hr 34 min 15 sec)
Heartbeat CPU 0 instructions: 2180000004 cycles: 846079523 heartbeat IPC: 2.679 cumulative IPC: 2.569 (Simulation time: 08 hr 36 min 30 sec)
Heartbeat CPU 2 instructions: 880000004 cycles: 848627851 heartbeat IPC: 0.9947 cumulative IPC: 0.967 (Simulation time: 08 hr 38 min 05 sec)
Heartbeat CPU 0 instructions: 2190000000 cycles: 849858465 heartbeat IPC: 2.646 cumulative IPC: 2.569 (Simulation time: 08 hr 38 min 48 sec)
Heartbeat CPU 0 instructions: 2200000003 cycles: 853569142 heartbeat IPC: 2.695 cumulative IPC: 2.57 (Simulation time: 08 hr 40 min 58 sec)
Heartbeat CPU 1 instructions: 160000002 cycles: 856164824 heartbeat IPC: 0.1269 cumulative IPC: 0.1315 (Simulation time: 08 hr 42 min 38 sec)
Heartbeat CPU 0 instructions: 2210000001 cycles: 857305538 heartbeat IPC: 2.676 cumulative IPC: 2.57 (Simulation time: 08 hr 43 min 18 sec)
Heartbeat CPU 2 instructions: 890000004 cycles: 859291344 heartbeat IPC: 0.9378 cumulative IPC: 0.9666 (Simulation time: 08 hr 44 min 24 sec)
Heartbeat CPU 0 instructions: 2220000004 cycles: 861167844 heartbeat IPC: 2.589 cumulative IPC: 2.57 (Simulation time: 08 hr 45 min 28 sec)
Heartbeat CPU 0 instructions: 2230000001 cycles: 864851239 heartbeat IPC: 2.715 cumulative IPC: 2.571 (Simulation time: 08 hr 47 min 39 sec)
Heartbeat CPU 0 instructions: 2240000000 cycles: 868695795 heartbeat IPC: 2.601 cumulative IPC: 2.571 (Simulation time: 08 hr 49 min 51 sec)
Heartbeat CPU 2 instructions: 900000003 cycles: 869466869 heartbeat IPC: 0.9828 cumulative IPC: 0.9668 (Simulation time: 08 hr 50 min 17 sec)
Heartbeat CPU 0 instructions: 2250000000 cycles: 872319257 heartbeat IPC: 2.76 cumulative IPC: 2.572 (Simulation time: 08 hr 51 min 58 sec)
Heartbeat CPU 0 instructions: 2260000002 cycles: 876050739 heartbeat IPC: 2.68 cumulative IPC: 2.572 (Simulation time: 08 hr 54 min 08 sec)
Heartbeat CPU 3 instructions: 220000004 cycles: 877781700 heartbeat IPC: 0.1957 cumulative IPC: 0.1827 (Simulation time: 08 hr 55 min 09 sec)
Heartbeat CPU 0 instructions: 2270000000 cycles: 879683209 heartbeat IPC: 2.753 cumulative IPC: 2.573 (Simulation time: 08 hr 56 min 12 sec)
Heartbeat CPU 2 instructions: 910000000 cycles: 879753996 heartbeat IPC: 0.9721 cumulative IPC: 0.9669 (Simulation time: 08 hr 56 min 15 sec)
Heartbeat CPU 0 instructions: 2280000000 cycles: 883306637 heartbeat IPC: 2.76 cumulative IPC: 2.574 (Simulation time: 08 hr 58 min 17 sec)
Heartbeat CPU 0 instructions: 2290000004 cycles: 886993853 heartbeat IPC: 2.712 cumulative IPC: 2.574 (Simulation time: 09 hr 00 min 22 sec)
Heartbeat CPU 2 instructions: 920000002 cycles: 889955993 heartbeat IPC: 0.9802 cumulative IPC: 0.967 (Simulation time: 09 hr 02 min 02 sec)
Heartbeat CPU 0 instructions: 2300000003 cycles: 890688860 heartbeat IPC: 2.706 cumulative IPC: 2.575 (Simulation time: 09 hr 02 min 26 sec)
Heartbeat CPU 0 instructions: 2310000004 cycles: 894523547 heartbeat IPC: 2.608 cumulative IPC: 2.575 (Simulation time: 09 hr 04 min 35 sec)
Heartbeat CPU 0 instructions: 2320000004 cycles: 898385340 heartbeat IPC: 2.589 cumulative IPC: 2.575 (Simulation time: 09 hr 06 min 52 sec)
Heartbeat CPU 2 instructions: 930000002 cycles: 900341374 heartbeat IPC: 0.9629 cumulative IPC: 0.967 (Simulation time: 09 hr 08 min 01 sec)
Heartbeat CPU 0 instructions: 2330000004 cycles: 902972405 heartbeat IPC: 2.18 cumulative IPC: 2.573 (Simulation time: 09 hr 09 min 22 sec)
Heartbeat CPU 0 instructions: 2340000000 cycles: 906658994 heartbeat IPC: 2.713 cumulative IPC: 2.574 (Simulation time: 09 hr 11 min 28 sec)
Heartbeat CPU 0 instructions: 2350000002 cycles: 910338355 heartbeat IPC: 2.718 cumulative IPC: 2.574 (Simulation time: 09 hr 13 min 34 sec)
Heartbeat CPU 2 instructions: 940000004 cycles: 910935636 heartbeat IPC: 0.9439 cumulative IPC: 0.9667 (Simulation time: 09 hr 13 min 54 sec)
Heartbeat CPU 0 instructions: 2360000001 cycles: 913893545 heartbeat IPC: 2.813 cumulative IPC: 2.575 (Simulation time: 09 hr 16 min 02 sec)
Heartbeat CPU 0 instructions: 2370000004 cycles: 917652854 heartbeat IPC: 2.66 cumulative IPC: 2.576 (Simulation time: 09 hr 18 min 27 sec)
Heartbeat CPU 2 instructions: 950000004 cycles: 921192050 heartbeat IPC: 0.975 cumulative IPC: 0.9668 (Simulation time: 09 hr 20 min 44 sec)
Heartbeat CPU 0 instructions: 2380000003 cycles: 921295676 heartbeat IPC: 2.745 cumulative IPC: 2.576 (Simulation time: 09 hr 20 min 48 sec)
Heartbeat CPU 0 instructions: 2390000004 cycles: 925016271 heartbeat IPC: 2.688 cumulative IPC: 2.577 (Simulation time: 09 hr 23 min 10 sec)
Heartbeat CPU 0 instructions: 2400000003 cycles: 928626673 heartbeat IPC: 2.77 cumulative IPC: 2.578 (Simulation time: 09 hr 25 min 27 sec)
Heartbeat CPU 2 instructions: 960000003 cycles: 931256952 heartbeat IPC: 0.9936 cumulative IPC: 0.9671 (Simulation time: 09 hr 27 min 06 sec)
Heartbeat CPU 0 instructions: 2410000001 cycles: 932313158 heartbeat IPC: 2.713 cumulative IPC: 2.578 (Simulation time: 09 hr 27 min 43 sec)
Heartbeat CPU 3 instructions: 230000000 cycles: 932870143 heartbeat IPC: 0.1815 cumulative IPC: 0.1826 (Simulation time: 09 hr 28 min 01 sec)
Heartbeat CPU 1 instructions: 170000001 cycles: 933152182 heartbeat IPC: 0.1299 cumulative IPC: 0.1314 (Simulation time: 09 hr 28 min 11 sec)
Heartbeat CPU 0 instructions: 2420000003 cycles: 936131271 heartbeat IPC: 2.619 cumulative IPC: 2.578 (Simulation time: 09 hr 29 min 51 sec)
Heartbeat CPU 0 instructions: 2430000004 cycles: 939820910 heartbeat IPC: 2.71 cumulative IPC: 2.579 (Simulation time: 09 hr 31 min 58 sec)
Heartbeat CPU 2 instructions: 970000003 cycles: 941544962 heartbeat IPC: 0.972 cumulative IPC: 0.9672 (Simulation time: 09 hr 32 min 58 sec)
Heartbeat CPU 0 instructions: 2440000000 cycles: 943486939 heartbeat IPC: 2.728 cumulative IPC: 2.579 (Simulation time: 09 hr 34 min 04 sec)
Heartbeat CPU 0 instructions: 2450000002 cycles: 947209404 heartbeat IPC: 2.686 cumulative IPC: 2.58 (Simulation time: 09 hr 36 min 09 sec)
Heartbeat CPU 0 instructions: 2460000002 cycles: 950978046 heartbeat IPC: 2.653 cumulative IPC: 2.58 (Simulation time: 09 hr 38 min 15 sec)
Heartbeat CPU 2 instructions: 980000000 cycles: 951705453 heartbeat IPC: 0.9842 cumulative IPC: 0.9673 (Simulation time: 09 hr 38 min 42 sec)
Heartbeat CPU 0 instructions: 2470000001 cycles: 954592306 heartbeat IPC: 2.767 cumulative IPC: 2.581 (Simulation time: 09 hr 40 min 18 sec)
Heartbeat CPU 0 instructions: 2480000000 cycles: 958271890 heartbeat IPC: 2.718 cumulative IPC: 2.581 (Simulation time: 09 hr 42 min 25 sec)
Heartbeat CPU 0 instructions: 2490000001 cycles: 961906190 heartbeat IPC: 2.752 cumulative IPC: 2.582 (Simulation time: 09 hr 44 min 26 sec)
Heartbeat CPU 2 instructions: 990000004 cycles: 961936666 heartbeat IPC: 0.9774 cumulative IPC: 0.9675 (Simulation time: 09 hr 44 min 27 sec)
Heartbeat CPU 0 instructions: 2500000001 cycles: 965557980 heartbeat IPC: 2.738 cumulative IPC: 2.583 (Simulation time: 09 hr 46 min 34 sec)
Heartbeat CPU 0 instructions: 2510000003 cycles: 969214285 heartbeat IPC: 2.735 cumulative IPC: 2.583 (Simulation time: 09 hr 48 min 35 sec)
Heartbeat CPU 2 instructions: 1000000004 cycles: 972162068 heartbeat IPC: 0.978 cumulative IPC: 0.9676 (Simulation time: 09 hr 50 min 16 sec)
Heartbeat CPU 0 instructions: 2520000003 cycles: 973022804 heartbeat IPC: 2.626 cumulative IPC: 2.583 (Simulation time: 09 hr 50 min 48 sec)
Heartbeat CPU 0 instructions: 2530000001 cycles: 976686445 heartbeat IPC: 2.73 cumulative IPC: 2.584 (Simulation time: 09 hr 52 min 55 sec)
Heartbeat CPU 3 instructions: 240000002 cycles: 980290354 heartbeat IPC: 0.2109 cumulative IPC: 0.184 (Simulation time: 09 hr 55 min 04 sec)
Heartbeat CPU 0 instructions: 2540000001 cycles: 980463154 heartbeat IPC: 2.648 cumulative IPC: 2.584 (Simulation time: 09 hr 55 min 11 sec)
Heartbeat CPU 2 instructions: 1010000002 cycles: 982394899 heartbeat IPC: 0.9772 cumulative IPC: 0.9677 (Simulation time: 09 hr 56 min 13 sec)
Heartbeat CPU 0 instructions: 2550000000 cycles: 984226617 heartbeat IPC: 2.657 cumulative IPC: 2.584 (Simulation time: 09 hr 57 min 18 sec)
Heartbeat CPU 0 instructions: 2560000001 cycles: 988218706 heartbeat IPC: 2.505 cumulative IPC: 2.584 (Simulation time: 09 hr 59 min 31 sec)
Heartbeat CPU 0 instructions: 2570000000 cycles: 992021387 heartbeat IPC: 2.63 cumulative IPC: 2.584 (Simulation time: 10 hr 01 min 42 sec)
Heartbeat CPU 2 instructions: 1020000004 cycles: 992581523 heartbeat IPC: 0.9817 cumulative IPC: 0.9678 (Simulation time: 10 hr 02 min 02 sec)
Heartbeat CPU 0 instructions: 2580000003 cycles: 995728496 heartbeat IPC: 2.698 cumulative IPC: 2.585 (Simulation time: 10 hr 03 min 53 sec)
Heartbeat CPU 0 instructions: 2590000004 cycles: 999482125 heartbeat IPC: 2.664 cumulative IPC: 2.585 (Simulation time: 10 hr 05 min 59 sec)
Heartbeat CPU 2 instructions: 1030000004 cycles: 1002835714 heartbeat IPC: 0.9752 cumulative IPC: 0.9679 (Simulation time: 10 hr 07 min 52 sec)
Heartbeat CPU 0 instructions: 2600000001 cycles: 1003209444 heartbeat IPC: 2.683 cumulative IPC: 2.585 (Simulation time: 10 hr 08 min 03 sec)
Heartbeat CPU 0 instructions: 2610000001 cycles: 1006959288 heartbeat IPC: 2.667 cumulative IPC: 2.586 (Simulation time: 10 hr 10 min 14 sec)
Heartbeat CPU 1 instructions: 180000001 cycles: 1010562352 heartbeat IPC: 0.1292 cumulative IPC: 0.1312 (Simulation time: 10 hr 12 min 19 sec)
Heartbeat CPU 0 instructions: 2620000004 cycles: 1010686747 heartbeat IPC: 2.683 cumulative IPC: 2.586 (Simulation time: 10 hr 12 min 24 sec)
Heartbeat CPU 2 instructions: 1040000000 cycles: 1013041706 heartbeat IPC: 0.9798 cumulative IPC: 0.968 (Simulation time: 10 hr 13 min 46 sec)
Heartbeat CPU 0 instructions: 2630000001 cycles: 1014458640 heartbeat IPC: 2.651 cumulative IPC: 2.586 (Simulation time: 10 hr 14 min 33 sec)
Heartbeat CPU 0 instructions: 2640000003 cycles: 1018182228 heartbeat IPC: 2.686 cumulative IPC: 2.587 (Simulation time: 10 hr 16 min 44 sec)
Heartbeat CPU 0 instructions: 2650000001 cycles: 1022012774 heartbeat IPC: 2.611 cumulative IPC: 2.587 (Simulation time: 10 hr 18 min 59 sec)
Heartbeat CPU 2 instructions: 1050000004 cycles: 1023250097 heartbeat IPC: 0.9796 cumulative IPC: 0.9681 (Simulation time: 10 hr 19 min 45 sec)
Heartbeat CPU 0 instructions: 2660000003 cycles: 1025651415 heartbeat IPC: 2.748 cumulative IPC: 2.587 (Simulation time: 10 hr 21 min 08 sec)
Heartbeat CPU 0 instructions: 2670000002 cycles: 1029450405 heartbeat IPC: 2.632 cumulative IPC: 2.588 (Simulation time: 10 hr 23 min 15 sec)
Heartbeat CPU 3 instructions: 250000000 cycles: 1030229914 heartbeat IPC: 0.2002 cumulative IPC: 0.1848 (Simulation time: 10 hr 23 min 44 sec)
Heartbeat CPU 0 instructions: 2680000001 cycles: 1033153242 heartbeat IPC: 2.701 cumulative IPC: 2.588 (Simulation time: 10 hr 25 min 29 sec)
Heartbeat CPU 2 instructions: 1060000003 cycles: 1033485580 heartbeat IPC: 0.977 cumulative IPC: 0.9682 (Simulation time: 10 hr 25 min 44 sec)
Heartbeat CPU 0 instructions: 2690000001 cycles: 1036798311 heartbeat IPC: 2.743 cumulative IPC: 2.589 (Simulation time: 10 hr 28 min 03 sec)
Heartbeat CPU 0 instructions: 2700000003 cycles: 1040569469 heartbeat IPC: 2.652 cumulative IPC: 2.589 (Simulation time: 10 hr 30 min 45 sec)
Heartbeat CPU 2 instructions: 1070000003 cycles: 1043873609 heartbeat IPC: 0.9626 cumulative IPC: 0.9682 (Simulation time: 10 hr 32 min 51 sec)
Heartbeat CPU 0 instructions: 2710000000 cycles: 1044984141 heartbeat IPC: 2.265 cumulative IPC: 2.587 (Simulation time: 10 hr 33 min 27 sec)
Heartbeat CPU 0 instructions: 2720000001 cycles: 1048730626 heartbeat IPC: 2.669 cumulative IPC: 2.588 (Simulation time: 10 hr 35 min 33 sec)
Heartbeat CPU 0 instructions: 2730000004 cycles: 1052419604 heartbeat IPC: 2.711 cumulative IPC: 2.588 (Simulation time: 10 hr 37 min 37 sec)
Heartbeat CPU 2 instructions: 1080000000 cycles: 1054032566 heartbeat IPC: 0.9844 cumulative IPC: 0.9683 (Simulation time: 10 hr 38 min 31 sec)
Heartbeat CPU 0 instructions: 2740000000 cycles: 1056092731 heartbeat IPC: 2.722 cumulative IPC: 2.589 (Simulation time: 10 hr 39 min 44 sec)
Heartbeat CPU 0 instructions: 2750000004 cycles: 1059784868 heartbeat IPC: 2.708 cumulative IPC: 2.589 (Simulation time: 10 hr 41 min 51 sec)
Heartbeat CPU 0 instructions: 2760000001 cycles: 1063459108 heartbeat IPC: 2.722 cumulative IPC: 2.589 (Simulation time: 10 hr 43 min 56 sec)
Heartbeat CPU 2 instructions: 1090000000 cycles: 1064232999 heartbeat IPC: 0.9804 cumulative IPC: 0.9684 (Simulation time: 10 hr 44 min 21 sec)
Heartbeat CPU 0 instructions: 2770000003 cycles: 1067236129 heartbeat IPC: 2.648 cumulative IPC: 2.59 (Simulation time: 10 hr 46 min 02 sec)
Heartbeat CPU 0 instructions: 2780000001 cycles: 1070847510 heartbeat IPC: 2.769 cumulative IPC: 2.59 (Simulation time: 10 hr 48 min 07 sec)
Heartbeat CPU 2 instructions: 1100000001 cycles: 1074231806 heartbeat IPC: 1 cumulative IPC: 0.9687 (Simulation time: 10 hr 50 min 14 sec)
Heartbeat CPU 0 instructions: 2790000004 cycles: 1074537668 heartbeat IPC: 2.71 cumulative IPC: 2.591 (Simulation time: 10 hr 50 min 24 sec)
Heartbeat CPU 0 instructions: 2800000002 cycles: 1078270246 heartbeat IPC: 2.679 cumulative IPC: 2.591 (Simulation time: 10 hr 52 min 34 sec)
Heartbeat CPU 3 instructions: 260000003 cycles: 1080299951 heartbeat IPC: 0.1997 cumulative IPC: 0.1855 (Simulation time: 10 hr 53 min 41 sec)
Heartbeat CPU 0 instructions: 2810000002 cycles: 1081994680 heartbeat IPC: 2.685 cumulative IPC: 2.591 (Simulation time: 10 hr 54 min 37 sec)
Heartbeat CPU 2 instructions: 1110000003 cycles: 1084396199 heartbeat IPC: 0.9838 cumulative IPC: 0.9689 (Simulation time: 10 hr 56 min 04 sec)
Heartbeat CPU 0 instructions: 2820000002 cycles: 1085666700 heartbeat IPC: 2.723 cumulative IPC: 2.592 (Simulation time: 10 hr 56 min 47 sec)
Heartbeat CPU 1 instructions: 190000001 cycles: 1087900224 heartbeat IPC: 0.1293 cumulative IPC: 0.131 (Simulation time: 10 hr 58 min 01 sec)
Heartbeat CPU 0 instructions: 2830000000 cycles: 1089458855 heartbeat IPC: 2.637 cumulative IPC: 2.592 (Simulation time: 10 hr 58 min 54 sec)
Heartbeat CPU 0 instructions: 2840000004 cycles: 1093165648 heartbeat IPC: 2.698 cumulative IPC: 2.592 (Simulation time: 11 hr 01 min 04 sec)
Heartbeat CPU 2 instructions: 1120000000 cycles: 1094722660 heartbeat IPC: 0.9684 cumulative IPC: 0.9689 (Simulation time: 11 hr 01 min 57 sec)
Heartbeat CPU 0 instructions: 2850000001 cycles: 1096854875 heartbeat IPC: 2.711 cumulative IPC: 2.593 (Simulation time: 11 hr 03 min 13 sec)
Heartbeat CPU 0 instructions: 2860000003 cycles: 1100636749 heartbeat IPC: 2.644 cumulative IPC: 2.593 (Simulation time: 11 hr 05 min 28 sec)
Heartbeat CPU 0 instructions: 2870000001 cycles: 1104293423 heartbeat IPC: 2.735 cumulative IPC: 2.593 (Simulation time: 11 hr 07 min 42 sec)
Heartbeat CPU 2 instructions: 1130000004 cycles: 1104998062 heartbeat IPC: 0.9732 cumulative IPC: 0.9689 (Simulation time: 11 hr 08 min 07 sec)
Heartbeat CPU 0 instructions: 2880000002 cycles: 1107989720 heartbeat IPC: 2.705 cumulative IPC: 2.594 (Simulation time: 11 hr 09 min 53 sec)
Heartbeat CPU 0 instructions: 2890000004 cycles: 1111621475 heartbeat IPC: 2.753 cumulative IPC: 2.594 (Simulation time: 11 hr 11 min 57 sec)
Heartbeat CPU 2 instructions: 1140000002 cycles: 1115216862 heartbeat IPC: 0.9786 cumulative IPC: 0.969 (Simulation time: 11 hr 14 min 00 sec)
Heartbeat CPU 0 instructions: 2900000000 cycles: 1115293382 heartbeat IPC: 2.723 cumulative IPC: 2.595 (Simulation time: 11 hr 14 min 02 sec)
Heartbeat CPU 0 instructions: 2910000000 cycles: 1119102168 heartbeat IPC: 2.626 cumulative IPC: 2.595 (Simulation time: 11 hr 16 min 15 sec)
Heartbeat CPU 0 instructions: 2920000003 cycles: 1123107993 heartbeat IPC: 2.496 cumulative IPC: 2.594 (Simulation time: 11 hr 18 min 30 sec)
Heartbeat CPU 2 instructions: 1150000000 cycles: 1125565374 heartbeat IPC: 0.9663 cumulative IPC: 0.969 (Simulation time: 11 hr 19 min 52 sec)
Heartbeat CPU 0 instructions: 2930000000 cycles: 1127376577 heartbeat IPC: 2.343 cumulative IPC: 2.594 (Simulation time: 11 hr 20 min 51 sec)
Heartbeat CPU 3 instructions: 270000000 cycles: 1130761903 heartbeat IPC: 0.1982 cumulative IPC: 0.1861 (Simulation time: 11 hr 22 min 46 sec)
Heartbeat CPU 0 instructions: 2940000000 cycles: 1131360543 heartbeat IPC: 2.51 cumulative IPC: 2.593 (Simulation time: 11 hr 23 min 09 sec)
Heartbeat CPU 0 instructions: 2950000000 cycles: 1135026009 heartbeat IPC: 2.728 cumulative IPC: 2.594 (Simulation time: 11 hr 25 min 15 sec)
Heartbeat CPU 2 instructions: 1160000003 cycles: 1135569365 heartbeat IPC: 0.9996 cumulative IPC: 0.9693 (Simulation time: 11 hr 25 min 32 sec)
Heartbeat CPU 0 instructions: 2960000002 cycles: 1138728646 heartbeat IPC: 2.701 cumulative IPC: 2.594 (Simulation time: 11 hr 27 min 18 sec)
Heartbeat CPU 0 instructions: 2970000001 cycles: 1142486592 heartbeat IPC: 2.661 cumulative IPC: 2.594 (Simulation time: 11 hr 29 min 26 sec)
Heartbeat CPU 2 instructions: 1170000000 cycles: 1145742914 heartbeat IPC: 0.9829 cumulative IPC: 0.9694 (Simulation time: 11 hr 31 min 20 sec)
Heartbeat CPU 0 instructions: 2980000000 cycles: 1146221042 heartbeat IPC: 2.678 cumulative IPC: 2.595 (Simulation time: 11 hr 31 min 36 sec)
Heartbeat CPU 0 instructions: 2990000002 cycles: 1149960249 heartbeat IPC: 2.674 cumulative IPC: 2.595 (Simulation time: 11 hr 33 min 45 sec)
Heartbeat CPU 0 instructions: 3000000001 cycles: 1153646392 heartbeat IPC: 2.713 cumulative IPC: 2.595 (Simulation time: 11 hr 35 min 52 sec)
Heartbeat CPU 2 instructions: 1180000000 cycles: 1155959106 heartbeat IPC: 0.9788 cumulative IPC: 0.9695 (Simulation time: 11 hr 37 min 11 sec)
Heartbeat CPU 0 instructions: 3010000000 cycles: 1157306252 heartbeat IPC: 2.732 cumulative IPC: 2.596 (Simulation time: 11 hr 37 min 58 sec)
Heartbeat CPU 0 instructions: 3020000002 cycles: 1161001416 heartbeat IPC: 2.706 cumulative IPC: 2.596 (Simulation time: 11 hr 40 min 04 sec)
Heartbeat CPU 1 instructions: 200000001 cycles: 1163326180 heartbeat IPC: 0.1326 cumulative IPC: 0.1311 (Simulation time: 11 hr 41 min 23 sec)
Simulation finished CPU 1 instructions: 150000001 cycles: 1143747325 cumulative IPC: 0.1311 (Simulation time: 11 hr 41 min 23 sec)
Simulation complete CPU 0 instructions: 2969352545 cycles: 1143747325 cumulative IPC: 2.596 (Simulation time: 11 hr 41 min 23 sec)
Simulation complete CPU 1 instructions: 150000001 cycles: 1143747325 cumulative IPC: 0.1311 (Simulation time: 11 hr 41 min 23 sec)
Simulation complete CPU 2 instructions: 1109050240 cycles: 1143747325 cumulative IPC: 0.9697 (Simulation time: 11 hr 41 min 23 sec)
Simulation complete CPU 3 instructions: 213790633 cycles: 1143747325 cumulative IPC: 0.1869 (Simulation time: 11 hr 41 min 23 sec)

ChampSim completed all CPUs

=== Simulation ===
CPU 0 runs /home/das/dpc3_traces/644.nab_s-5853B.champsimtrace.xzCPU 1 runs /home/das/dpc3_traces/620.omnetpp_s-874B.champsimtrace.xzCPU 2 runs /home/das/dpc3_traces/649.fotonik3d_s-1176B.champsimtrace.xzCPU 3 runs /home/das/dpc3_traces/605.mcf_s-665B.champsimtrace.xz
Total Simulation Statistics (not including warmup)

CPU 0 cumulative IPC: 2.596 instructions: 2969352545 cycles: 1143747325
CPU 0 Branch Prediction Accuracy: 88.29% MPKI: 11.34 Average ROB Occupancy at Mispredict: 215
Branch type MPKI
BRANCH_DIRECT_JUMP: 0.000114
BRANCH_INDIRECT: 3.37e-07
BRANCH_CONDITIONAL: 5.81
BRANCH_DIRECT_CALL: 3.37e-07
BRANCH_INDIRECT_CALL: 0
BRANCH_RETURN: 5.53


CPU 1 cumulative IPC: 0.1311 instructions: 150000001 cycles: 1143747325
CPU 1 Branch Prediction Accuracy: 94.9% MPKI: 10.6 Average ROB Occupancy at Mispredict: 84.98
Branch type MPKI
BRANCH_DIRECT_JUMP: 0.923
BRANCH_INDIRECT: 0.128
BRANCH_CONDITIONAL: 8.42
BRANCH_DIRECT_CALL: 0.00016
BRANCH_INDIRECT_CALL: 0.734
BRANCH_RETURN: 0.399


CPU 2 cumulative IPC: 0.9697 instructions: 1109050240 cycles: 1143747325
CPU 2 Branch Prediction Accuracy: 99.82% MPKI: 0.0331 Average ROB Occupancy at Mispredict: 101.8
Branch type MPKI
BRANCH_DIRECT_JUMP: 8.02e-05
BRANCH_INDIRECT: 0
BRANCH_CONDITIONAL: 0.0258
BRANCH_DIRECT_CALL: 1.44e-05
BRANCH_INDIRECT_CALL: 0
BRANCH_RETURN: 0.00723


CPU 3 cumulative IPC: 0.1869 instructions: 213790633 cycles: 1143747325
CPU 3 Branch Prediction Accuracy: 90.42% MPKI: 23.68 Average ROB Occupancy at Mispredict: 18.64
Branch type MPKI
BRANCH_DIRECT_JUMP: 0.251
BRANCH_INDIRECT: 0
BRANCH_CONDITIONAL: 23.4
BRANCH_DIRECT_CALL: 0
BRANCH_INDIRECT_CALL: 0.000529
BRANCH_RETURN: 0

LLC TOTAL        ACCESS:    2669697 HIT:    1761454 MISS:     908243
LLC LOAD         ACCESS:      81731 HIT:      19868 MISS:      61863
LLC RFO          ACCESS:       1671 HIT:        766 MISS:        905
LLC PREFETCH     ACCESS:    2551450 HIT:    1736293 MISS:     815157
LLC WRITE        ACCESS:      24387 HIT:       3007 MISS:      21380
LLC TRANSLATION  ACCESS:      10458 HIT:       1520 MISS:       8938
LLC PREFETCH REQUESTED:          0 ISSUED:          0 USEFUL:          0 USELESS:          0
LLC AVERAGE MISS LATENCY: 1009 cycles
LLC TOTAL        ACCESS:    3541778 HIT:    1354070 MISS:    2187708
LLC LOAD         ACCESS:    1685967 HIT:     293476 MISS:    1392491
LLC RFO          ACCESS:     257794 HIT:      78288 MISS:     179506
LLC PREFETCH     ACCESS:      33313 HIT:      12442 MISS:      20871
LLC WRITE        ACCESS:     968857 HIT:     926778 MISS:      42079
LLC TRANSLATION  ACCESS:     595847 HIT:      43086 MISS:     552761
LLC PREFETCH REQUESTED:          0 ISSUED:          0 USEFUL:          0 USELESS:          0
LLC AVERAGE MISS LATENCY: 1009 cycles
LLC TOTAL        ACCESS:   33704549 HIT:   17953107 MISS:   15751442
LLC LOAD         ACCESS:    1334456 HIT:     608367 MISS:     726089
LLC RFO          ACCESS:      10264 HIT:      10219 MISS:         45
LLC PREFETCH     ACCESS:   22653464 HIT:    7629713 MISS:   15023751
LLC WRITE        ACCESS:    9702343 HIT:    9701502 MISS:        841
LLC TRANSLATION  ACCESS:       4022 HIT:       3306 MISS:        716
LLC PREFETCH REQUESTED:          0 ISSUED:          0 USEFUL:          0 USELESS:          0
LLC AVERAGE MISS LATENCY: 1009 cycles
LLC TOTAL        ACCESS:    8517336 HIT:    5580403 MISS:    2936933
LLC LOAD         ACCESS:    3019608 HIT:    2196715 MISS:     822893
LLC RFO          ACCESS:     350920 HIT:     345705 MISS:       5215
LLC PREFETCH     ACCESS:    4562877 HIT:    2485831 MISS:    2077046
LLC WRITE        ACCESS:     564096 HIT:     540804 MISS:      23292
LLC TRANSLATION  ACCESS:      19835 HIT:      11348 MISS:       8487
LLC PREFETCH REQUESTED:          0 ISSUED:          0 USEFUL:          0 USELESS:          0
LLC AVERAGE MISS LATENCY: 1009 cycles
cpu0_DTLB TOTAL        ACCESS:  506289068 HIT:  501879505 MISS:    4409563
cpu0_DTLB LOAD         ACCESS:  506289068 HIT:  501879505 MISS:    4409563
cpu0_DTLB RFO          ACCESS:          0 HIT:          0 MISS:          0
cpu0_DTLB PREFETCH     ACCESS:          0 HIT:          0 MISS:          0
cpu0_DTLB WRITE        ACCESS:          0 HIT:          0 MISS:          0
cpu0_DTLB TRANSLATION  ACCESS:          0 HIT:          0 MISS:          0
cpu0_DTLB PREFETCH REQUESTED:          0 ISSUED:          0 USEFUL:          0 USELESS:          0
cpu0_DTLB AVERAGE MISS LATENCY: 11.61 cycles
cpu0_DTLB TOTAL        ACCESS:          0 HIT:          0 MISS:          0
cpu0_DTLB LOAD         ACCESS:          0 HIT:          0 MISS:          0
cpu0_DTLB RFO          ACCESS:          0 HIT:          0 MISS:          0
cpu0_DTLB PREFETCH     ACCESS:          0 HIT:          0 MISS:          0
cpu0_DTLB WRITE        ACCESS:          0 HIT:          0 MISS:          0
cpu0_DTLB TRANSLATION  ACCESS:          0 HIT:          0 MISS:          0
cpu0_DTLB PREFETCH REQUESTED:          0 ISSUED:          0 USEFUL:          0 USELESS:          0
cpu0_DTLB AVERAGE MISS LATENCY: 11.61 cycles
cpu0_DTLB TOTAL        ACCESS:          0 HIT:          0 MISS:          0
cpu0_DTLB LOAD         ACCESS:          0 HIT:          0 MISS:          0
cpu0_DTLB RFO          ACCESS:          0 HIT:          0 MISS:          0
cpu0_DTLB PREFETCH     ACCESS:          0 HIT:          0 MISS:          0
cpu0_DTLB WRITE        ACCESS:          0 HIT:          0 MISS:          0
cpu0_DTLB TRANSLATION  ACCESS:          0 HIT:          0 MISS:          0
cpu0_DTLB PREFETCH REQUESTED:          0 ISSUED:          0 USEFUL:          0 USELESS:          0
cpu0_DTLB AVERAGE MISS LATENCY: 11.61 cycles
cpu0_DTLB TOTAL        ACCESS:          0 HIT:          0 MISS:          0
cpu0_DTLB LOAD         ACCESS:          0 HIT:          0 MISS:          0
cpu0_DTLB RFO          ACCESS:          0 HIT:          0 MISS:          0
cpu0_DTLB PREFETCH     ACCESS:          0 HIT:          0 MISS:          0
cpu0_DTLB WRITE        ACCESS:          0 HIT:          0 MISS:          0
cpu0_DTLB TRANSLATION  ACCESS:          0 HIT:          0 MISS:          0
cpu0_DTLB PREFETCH REQUESTED:          0 ISSUED:          0 USEFUL:          0 USELESS:          0
cpu0_DTLB AVERAGE MISS LATENCY: 11.61 cycles
cpu0_ITLB TOTAL        ACCESS:      26667 HIT:      26667 MISS:          0
cpu0_ITLB LOAD         ACCESS:      26667 HIT:      26667 MISS:          0
cpu0_ITLB RFO          ACCESS:          0 HIT:          0 MISS:          0
cpu0_ITLB PREFETCH     ACCESS:          0 HIT:          0 MISS:          0
cpu0_ITLB WRITE        ACCESS:          0 HIT:          0 MISS:          0
cpu0_ITLB TRANSLATION  ACCESS:          0 HIT:          0 MISS:          0
cpu0_ITLB PREFETCH REQUESTED:          0 ISSUED:          0 USEFUL:          0 USELESS:          0
cpu0_ITLB AVERAGE MISS LATENCY: -nan cycles
cpu0_ITLB TOTAL        ACCESS:          0 HIT:          0 MISS:          0
cpu0_ITLB LOAD         ACCESS:          0 HIT:          0 MISS:          0
cpu0_ITLB RFO          ACCESS:          0 HIT:          0 MISS:          0
cpu0_ITLB PREFETCH     ACCESS:          0 HIT:          0 MISS:          0
cpu0_ITLB WRITE        ACCESS:          0 HIT:          0 MISS:          0
cpu0_ITLB TRANSLATION  ACCESS:          0 HIT:          0 MISS:          0
cpu0_ITLB PREFETCH REQUESTED:          0 ISSUED:          0 USEFUL:          0 USELESS:          0
cpu0_ITLB AVERAGE MISS LATENCY: -nan cycles
cpu0_ITLB TOTAL        ACCESS:          0 HIT:          0 MISS:          0
cpu0_ITLB LOAD         ACCESS:          0 HIT:          0 MISS:          0
cpu0_ITLB RFO          ACCESS:          0 HIT:          0 MISS:          0
cpu0_ITLB PREFETCH     ACCESS:          0 HIT:          0 MISS:          0
cpu0_ITLB WRITE        ACCESS:          0 HIT:          0 MISS:          0
cpu0_ITLB TRANSLATION  ACCESS:          0 HIT:          0 MISS:          0
cpu0_ITLB PREFETCH REQUESTED:          0 ISSUED:          0 USEFUL:          0 USELESS:          0
cpu0_ITLB AVERAGE MISS LATENCY: -nan cycles
cpu0_ITLB TOTAL        ACCESS:          0 HIT:          0 MISS:          0
cpu0_ITLB LOAD         ACCESS:          0 HIT:          0 MISS:          0
cpu0_ITLB RFO          ACCESS:          0 HIT:          0 MISS:          0
cpu0_ITLB PREFETCH     ACCESS:          0 HIT:          0 MISS:          0
cpu0_ITLB WRITE        ACCESS:          0 HIT:          0 MISS:          0
cpu0_ITLB TRANSLATION  ACCESS:          0 HIT:          0 MISS:          0
cpu0_ITLB PREFETCH REQUESTED:          0 ISSUED:          0 USEFUL:          0 USELESS:          0
cpu0_ITLB AVERAGE MISS LATENCY: -nan cycles
cpu0_L1D TOTAL        ACCESS:  682604848 HIT:  670942595 MISS:   11662253
cpu0_L1D LOAD         ACCESS:  362891604 HIT:  351412326 MISS:   11479278
cpu0_L1D RFO          ACCESS:          0 HIT:          0 MISS:          0
cpu0_L1D PREFETCH     ACCESS:          0 HIT:          0 MISS:          0
cpu0_L1D WRITE        ACCESS:  319688869 HIT:  319529495 MISS:     159374
cpu0_L1D TRANSLATION  ACCESS:      24375 HIT:        774 MISS:      23601
cpu0_L1D PREFETCH REQUESTED:          0 ISSUED:          0 USEFUL:          0 USELESS:          0
cpu0_L1D AVERAGE MISS LATENCY: 19.9 cycles
cpu0_L1D TOTAL        ACCESS:          0 HIT:          0 MISS:          0
cpu0_L1D LOAD         ACCESS:          0 HIT:          0 MISS:          0
cpu0_L1D RFO          ACCESS:          0 HIT:          0 MISS:          0
cpu0_L1D PREFETCH     ACCESS:          0 HIT:          0 MISS:          0
cpu0_L1D WRITE        ACCESS:          0 HIT:          0 MISS:          0
cpu0_L1D TRANSLATION  ACCESS:          0 HIT:          0 MISS:          0
cpu0_L1D PREFETCH REQUESTED:          0 ISSUED:          0 USEFUL:          0 USELESS:          0
cpu0_L1D AVERAGE MISS LATENCY: 19.9 cycles
cpu0_L1D TOTAL        ACCESS:          0 HIT:          0 MISS:          0
cpu0_L1D LOAD         ACCESS:          0 HIT:          0 MISS:          0
cpu0_L1D RFO          ACCESS:          0 HIT:          0 MISS:          0
cpu0_L1D PREFETCH     ACCESS:          0 HIT:          0 MISS:          0
cpu0_L1D WRITE        ACCESS:          0 HIT:          0 MISS:          0
cpu0_L1D TRANSLATION  ACCESS:          0 HIT:          0 MISS:          0
cpu0_L1D PREFETCH REQUESTED:          0 ISSUED:          0 USEFUL:          0 USELESS:          0
cpu0_L1D AVERAGE MISS LATENCY: 19.9 cycles
cpu0_L1D TOTAL        ACCESS:          0 HIT:          0 MISS:          0
cpu0_L1D LOAD         ACCESS:          0 HIT:          0 MISS:          0
cpu0_L1D RFO          ACCESS:          0 HIT:          0 MISS:          0
cpu0_L1D PREFETCH     ACCESS:          0 HIT:          0 MISS:          0
cpu0_L1D WRITE        ACCESS:          0 HIT:          0 MISS:          0
cpu0_L1D TRANSLATION  ACCESS:          0 HIT:          0 MISS:          0
cpu0_L1D PREFETCH REQUESTED:          0 ISSUED:          0 USEFUL:          0 USELESS:          0
cpu0_L1D AVERAGE MISS LATENCY: 19.9 cycles
cpu0_L1I TOTAL        ACCESS:      32564 HIT:      32562 MISS:          2
cpu0_L1I LOAD         ACCESS:      32564 HIT:      32562 MISS:          2
cpu0_L1I RFO          ACCESS:          0 HIT:          0 MISS:          0
cpu0_L1I PREFETCH     ACCESS:          0 HIT:          0 MISS:          0
cpu0_L1I WRITE        ACCESS:          0 HIT:          0 MISS:          0
cpu0_L1I TRANSLATION  ACCESS:          0 HIT:          0 MISS:          0
[...]
cpu2_L2C PREFETCH     ACCESS:          0 HIT:          0 MISS:          0
cpu2_L2C WRITE        ACCESS:          0 HIT:          0 MISS:          0
cpu2_L2C TRANSLATION  ACCESS:          0 HIT:          0 MISS:          0
cpu2_L2C PREFETCH REQUESTED:   88614609 ISSUED:   88459728 USEFUL:   10079087 USELESS:    1266347
cpu2_L2C AVERAGE MISS LATENCY: 388.4 cycles
cpu2_L2C TOTAL        ACCESS:          0 HIT:          0 MISS:          0
cpu2_L2C LOAD         ACCESS:          0 HIT:          0 MISS:          0
cpu2_L2C RFO          ACCESS:          0 HIT:          0 MISS:          0
cpu2_L2C PREFETCH     ACCESS:          0 HIT:          0 MISS:          0
cpu2_L2C WRITE        ACCESS:          0 HIT:          0 MISS:          0
cpu2_L2C TRANSLATION  ACCESS:          0 HIT:          0 MISS:          0
cpu2_L2C PREFETCH REQUESTED:   88614609 ISSUED:   88459728 USEFUL:   10079087 USELESS:    1266347
cpu2_L2C AVERAGE MISS LATENCY: 388.4 cycles
cpu2_L2C TOTAL        ACCESS:   15383590 HIT:   11563479 MISS:    3820111
cpu2_L2C LOAD         ACCESS:    1982756 HIT:    1446153 MISS:     536603
cpu2_L2C RFO          ACCESS:       2296 HIT:        943 MISS:       1353
cpu2_L2C PREFETCH     ACCESS:   12079993 HIT:    8798384 MISS:    3281609
cpu2_L2C WRITE        ACCESS:    1317730 HIT:    1317730 MISS:          0
cpu2_L2C TRANSLATION  ACCESS:        815 HIT:        269 MISS:        546
cpu2_L2C PREFETCH REQUESTED:   88614609 ISSUED:   88459728 USEFUL:   10079087 USELESS:    1266347
cpu2_L2C AVERAGE MISS LATENCY: 388.4 cycles
cpu2_L2C TOTAL        ACCESS:          0 HIT:          0 MISS:          0
cpu2_L2C LOAD         ACCESS:          0 HIT:          0 MISS:          0
cpu2_L2C RFO          ACCESS:          0 HIT:          0 MISS:          0
cpu2_L2C PREFETCH     ACCESS:          0 HIT:          0 MISS:          0
cpu2_L2C WRITE        ACCESS:          0 HIT:          0 MISS:          0
cpu2_L2C TRANSLATION  ACCESS:          0 HIT:          0 MISS:          0
cpu2_L2C PREFETCH REQUESTED:   88614609 ISSUED:   88459728 USEFUL:   10079087 USELESS:    1266347
cpu2_L2C AVERAGE MISS LATENCY: 388.4 cycles
cpu2_STLB TOTAL        ACCESS:          0 HIT:          0 MISS:          0
cpu2_STLB LOAD         ACCESS:          0 HIT:          0 MISS:          0
cpu2_STLB RFO          ACCESS:          0 HIT:          0 MISS:          0
cpu2_STLB PREFETCH     ACCESS:          0 HIT:          0 MISS:          0
cpu2_STLB WRITE        ACCESS:          0 HIT:          0 MISS:          0
cpu2_STLB TRANSLATION  ACCESS:          0 HIT:          0 MISS:          0
cpu2_STLB PREFETCH REQUESTED:          0 ISSUED:          0 USEFUL:          0 USELESS:          0
cpu2_STLB AVERAGE MISS LATENCY: 214.7 cycles
cpu2_STLB TOTAL        ACCESS:          0 HIT:          0 MISS:          0
cpu2_STLB LOAD         ACCESS:          0 HIT:          0 MISS:          0
cpu2_STLB RFO          ACCESS:          0 HIT:          0 MISS:          0
cpu2_STLB PREFETCH     ACCESS:          0 HIT:          0 MISS:          0
cpu2_STLB WRITE        ACCESS:          0 HIT:          0 MISS:          0
cpu2_STLB TRANSLATION  ACCESS:          0 HIT:          0 MISS:          0
cpu2_STLB PREFETCH REQUESTED:          0 ISSUED:          0 USEFUL:          0 USELESS:          0
cpu2_STLB AVERAGE MISS LATENCY: 214.7 cycles
cpu2_STLB TOTAL        ACCESS:      34982 HIT:      14393 MISS:      20589
cpu2_STLB LOAD         ACCESS:      34982 HIT:      14393 MISS:      20589
cpu2_STLB RFO          ACCESS:          0 HIT:          0 MISS:          0
cpu2_STLB PREFETCH     ACCESS:          0 HIT:          0 MISS:          0
cpu2_STLB WRITE        ACCESS:          0 HIT:          0 MISS:          0
cpu2_STLB TRANSLATION  ACCESS:          0 HIT:          0 MISS:          0
cpu2_STLB PREFETCH REQUESTED:          0 ISSUED:          0 USEFUL:          0 USELESS:          0
cpu2_STLB AVERAGE MISS LATENCY: 214.7 cycles
cpu2_STLB TOTAL        ACCESS:          0 HIT:          0 MISS:          0
cpu2_STLB LOAD         ACCESS:          0 HIT:          0 MISS:          0
cpu2_STLB RFO          ACCESS:          0 HIT:          0 MISS:          0
cpu2_STLB PREFETCH     ACCESS:          0 HIT:          0 MISS:          0
cpu2_STLB WRITE        ACCESS:          0 HIT:          0 MISS:          0
cpu2_STLB TRANSLATION  ACCESS:          0 HIT:          0 MISS:          0
cpu2_STLB PREFETCH REQUESTED:          0 ISSUED:          0 USEFUL:          0 USELESS:          0
cpu2_STLB AVERAGE MISS LATENCY: 214.7 cycles
cpu3_DTLB TOTAL        ACCESS:          0 HIT:          0 MISS:          0
cpu3_DTLB LOAD         ACCESS:          0 HIT:          0 MISS:          0
cpu3_DTLB RFO          ACCESS:          0 HIT:          0 MISS:          0
cpu3_DTLB PREFETCH     ACCESS:          0 HIT:          0 MISS:          0
cpu3_DTLB WRITE        ACCESS:          0 HIT:          0 MISS:          0
cpu3_DTLB TRANSLATION  ACCESS:          0 HIT:          0 MISS:          0
cpu3_DTLB PREFETCH REQUESTED:          0 ISSUED:          0 USEFUL:          0 USELESS:          0
cpu3_DTLB AVERAGE MISS LATENCY: 11.1 cycles
cpu3_DTLB TOTAL        ACCESS:          0 HIT:          0 MISS:          0
cpu3_DTLB LOAD         ACCESS:          0 HIT:          0 MISS:          0
cpu3_DTLB RFO          ACCESS:          0 HIT:          0 MISS:          0
cpu3_DTLB PREFETCH     ACCESS:          0 HIT:          0 MISS:          0
cpu3_DTLB WRITE        ACCESS:          0 HIT:          0 MISS:          0
cpu3_DTLB TRANSLATION  ACCESS:          0 HIT:          0 MISS:          0
cpu3_DTLB PREFETCH REQUESTED:          0 ISSUED:          0 USEFUL:          0 USELESS:          0
cpu3_DTLB AVERAGE MISS LATENCY: 11.1 cycles
cpu3_DTLB TOTAL        ACCESS:          0 HIT:          0 MISS:          0
cpu3_DTLB LOAD         ACCESS:          0 HIT:          0 MISS:          0
cpu3_DTLB RFO          ACCESS:          0 HIT:          0 MISS:          0
cpu3_DTLB PREFETCH     ACCESS:          0 HIT:          0 MISS:          0
cpu3_DTLB WRITE        ACCESS:          0 HIT:          0 MISS:          0
cpu3_DTLB TRANSLATION  ACCESS:          0 HIT:          0 MISS:          0
cpu3_DTLB PREFETCH REQUESTED:          0 ISSUED:          0 USEFUL:          0 USELESS:          0
cpu3_DTLB AVERAGE MISS LATENCY: 11.1 cycles
cpu3_DTLB TOTAL        ACCESS:   41294508 HIT:   38685762 MISS:    2608746
cpu3_DTLB LOAD         ACCESS:   41294508 HIT:   38685762 MISS:    2608746
cpu3_DTLB RFO          ACCESS:          0 HIT:          0 MISS:          0
cpu3_DTLB PREFETCH     ACCESS:          0 HIT:          0 MISS:          0
cpu3_DTLB WRITE        ACCESS:          0 HIT:          0 MISS:          0
cpu3_DTLB TRANSLATION  ACCESS:          0 HIT:          0 MISS:          0
cpu3_DTLB PREFETCH REQUESTED:          0 ISSUED:          0 USEFUL:          0 USELESS:          0
cpu3_DTLB AVERAGE MISS LATENCY: 11.1 cycles
cpu3_ITLB TOTAL        ACCESS:          0 HIT:          0 MISS:          0
cpu3_ITLB LOAD         ACCESS:          0 HIT:          0 MISS:          0
cpu3_ITLB RFO          ACCESS:          0 HIT:          0 MISS:          0
cpu3_ITLB PREFETCH     ACCESS:          0 HIT:          0 MISS:          0
cpu3_ITLB WRITE        ACCESS:          0 HIT:          0 MISS:          0
cpu3_ITLB TRANSLATION  ACCESS:          0 HIT:          0 MISS:          0
cpu3_ITLB PREFETCH REQUESTED:          0 ISSUED:          0 USEFUL:          0 USELESS:          0
cpu3_ITLB AVERAGE MISS LATENCY: -nan cycles
cpu3_ITLB TOTAL        ACCESS:          0 HIT:          0 MISS:          0
cpu3_ITLB LOAD         ACCESS:          0 HIT:          0 MISS:          0
cpu3_ITLB RFO          ACCESS:          0 HIT:          0 MISS:          0
cpu3_ITLB PREFETCH     ACCESS:          0 HIT:          0 MISS:          0
cpu3_ITLB WRITE        ACCESS:          0 HIT:          0 MISS:          0
cpu3_ITLB TRANSLATION  ACCESS:          0 HIT:          0 MISS:          0
cpu3_ITLB PREFETCH REQUESTED:          0 ISSUED:          0 USEFUL:          0 USELESS:          0
cpu3_ITLB AVERAGE MISS LATENCY: -nan cycles
cpu3_ITLB TOTAL        ACCESS:          0 HIT:          0 MISS:          0
cpu3_ITLB LOAD         ACCESS:          0 HIT:          0 MISS:          0
cpu3_ITLB RFO          ACCESS:          0 HIT:          0 MISS:          0
cpu3_ITLB PREFETCH     ACCESS:          0 HIT:          0 MISS:          0
cpu3_ITLB WRITE        ACCESS:          0 HIT:          0 MISS:          0
cpu3_ITLB TRANSLATION  ACCESS:          0 HIT:          0 MISS:          0
cpu3_ITLB PREFETCH REQUESTED:          0 ISSUED:          0 USEFUL:          0 USELESS:          0
cpu3_ITLB AVERAGE MISS LATENCY: -nan cycles
cpu3_ITLB TOTAL        ACCESS:      47841 HIT:      47841 MISS:          0
cpu3_ITLB LOAD         ACCESS:      47841 HIT:      47841 MISS:          0
cpu3_ITLB RFO          ACCESS:          0 HIT:          0 MISS:          0
cpu3_ITLB PREFETCH     ACCESS:          0 HIT:          0 MISS:          0
cpu3_ITLB WRITE        ACCESS:          0 HIT:          0 MISS:          0
cpu3_ITLB TRANSLATION  ACCESS:          0 HIT:          0 MISS:          0
cpu3_ITLB PREFETCH REQUESTED:          0 ISSUED:          0 USEFUL:          0 USELESS:          0
cpu3_ITLB AVERAGE MISS LATENCY: -nan cycles
cpu3_L1D TOTAL        ACCESS:          0 HIT:          0 MISS:          0
cpu3_L1D LOAD         ACCESS:          0 HIT:          0 MISS:          0
cpu3_L1D RFO          ACCESS:          0 HIT:          0 MISS:          0
cpu3_L1D PREFETCH     ACCESS:          0 HIT:          0 MISS:          0
cpu3_L1D WRITE        ACCESS:          0 HIT:          0 MISS:          0
cpu3_L1D TRANSLATION  ACCESS:          0 HIT:          0 MISS:          0
cpu3_L1D PREFETCH REQUESTED:          0 ISSUED:          0 USEFUL:          0 USELESS:          0
cpu3_L1D AVERAGE MISS LATENCY: 135.4 cycles
cpu3_L1D TOTAL        ACCESS:          0 HIT:          0 MISS:          0
cpu3_L1D LOAD         ACCESS:          0 HIT:          0 MISS:          0
cpu3_L1D RFO          ACCESS:          0 HIT:          0 MISS:          0
cpu3_L1D PREFETCH     ACCESS:          0 HIT:          0 MISS:          0
cpu3_L1D WRITE        ACCESS:          0 HIT:          0 MISS:          0
cpu3_L1D TRANSLATION  ACCESS:          0 HIT:          0 MISS:          0
cpu3_L1D PREFETCH REQUESTED:          0 ISSUED:          0 USEFUL:          0 USELESS:          0
cpu3_L1D AVERAGE MISS LATENCY: 135.4 cycles
cpu3_L1D TOTAL        ACCESS:          0 HIT:          0 MISS:          0
cpu3_L1D LOAD         ACCESS:          0 HIT:          0 MISS:          0
cpu3_L1D RFO          ACCESS:          0 HIT:          0 MISS:          0
cpu3_L1D PREFETCH     ACCESS:          0 HIT:          0 MISS:          0
cpu3_L1D WRITE        ACCESS:          0 HIT:          0 MISS:          0
cpu3_L1D TRANSLATION  ACCESS:          0 HIT:          0 MISS:          0
cpu3_L1D PREFETCH REQUESTED:          0 ISSUED:          0 USEFUL:          0 USELESS:          0
cpu3_L1D AVERAGE MISS LATENCY: 135.4 cycles
cpu3_L1D TOTAL        ACCESS:   52565837 HIT:   45448909 MISS:    7116928
cpu3_L1D LOAD         ACCESS:   34853453 HIT:   29320648 MISS:    5532805
cpu3_L1D RFO          ACCESS:          0 HIT:          0 MISS:          0
cpu3_L1D PREFETCH     ACCESS:          0 HIT:          0 MISS:          0
cpu3_L1D WRITE        ACCESS:   17680448 HIT:   16113656 MISS:    1566792
cpu3_L1D TRANSLATION  ACCESS:      31936 HIT:      14605 MISS:      17331
cpu3_L1D PREFETCH REQUESTED:          0 ISSUED:          0 USEFUL:          0 USELESS:          0
cpu3_L1D AVERAGE MISS LATENCY: 135.4 cycles
cpu3_L1I TOTAL        ACCESS:          0 HIT:          0 MISS:          0
cpu3_L1I LOAD         ACCESS:          0 HIT:          0 MISS:          0
cpu3_L1I RFO          ACCESS:          0 HIT:          0 MISS:          0
cpu3_L1I PREFETCH     ACCESS:          0 HIT:          0 MISS:          0
cpu3_L1I WRITE        ACCESS:          0 HIT:          0 MISS:          0
cpu3_L1I TRANSLATION  ACCESS:          0 HIT:          0 MISS:          0
cpu3_L1I PREFETCH REQUESTED:          0 ISSUED:          0 USEFUL:          0 USELESS:          0
cpu3_L1I AVERAGE MISS LATENCY: 1424 cycles
cpu3_L1I TOTAL        ACCESS:          0 HIT:          0 MISS:          0
cpu3_L1I LOAD         ACCESS:          0 HIT:          0 MISS:          0
cpu3_L1I RFO          ACCESS:          0 HIT:          0 MISS:          0
cpu3_L1I PREFETCH     ACCESS:          0 HIT:          0 MISS:          0
cpu3_L1I WRITE        ACCESS:          0 HIT:          0 MISS:          0
cpu3_L1I TRANSLATION  ACCESS:          0 HIT:          0 MISS:          0
cpu3_L1I PREFETCH REQUESTED:          0 ISSUED:          0 USEFUL:          0 USELESS:          0
cpu3_L1I AVERAGE MISS LATENCY: 1424 cycles
cpu3_L1I TOTAL        ACCESS:          0 HIT:          0 MISS:          0
cpu3_L1I LOAD         ACCESS:          0 HIT:          0 MISS:          0
cpu3_L1I RFO          ACCESS:          0 HIT:          0 MISS:          0
cpu3_L1I PREFETCH     ACCESS:          0 HIT:          0 MISS:          0
cpu3_L1I WRITE        ACCESS:          0 HIT:          0 MISS:          0
cpu3_L1I TRANSLATION  ACCESS:          0 HIT:          0 MISS:          0
cpu3_L1I PREFETCH REQUESTED:          0 ISSUED:          0 USEFUL:          0 USELESS:          0
cpu3_L1I AVERAGE MISS LATENCY: 1424 cycles
cpu3_L1I TOTAL        ACCESS:      54251 HIT:      54249 MISS:          2
cpu3_L1I LOAD         ACCESS:      54251 HIT:      54249 MISS:          2
cpu3_L1I RFO          ACCESS:          0 HIT:          0 MISS:          0
cpu3_L1I PREFETCH     ACCESS:          0 HIT:          0 MISS:          0
cpu3_L1I WRITE        ACCESS:          0 HIT:          0 MISS:          0
cpu3_L1I TRANSLATION  ACCESS:          0 HIT:          0 MISS:          0
cpu3_L1I PREFETCH REQUESTED:          0 ISSUED:          0 USEFUL:          0 USELESS:          0
cpu3_L1I AVERAGE MISS LATENCY: 1424 cycles
cpu3_L2C TOTAL        ACCESS:          0 HIT:          0 MISS:          0
cpu3_L2C LOAD         ACCESS:          0 HIT:          0 MISS:          0
cpu3_L2C RFO          ACCESS:          0 HIT:          0 MISS:          0
cpu3_L2C PREFETCH     ACCESS:          0 HIT:          0 MISS:          0
cpu3_L2C WRITE        ACCESS:          0 HIT:          0 MISS:          0
cpu3_L2C TRANSLATION  ACCESS:          0 HIT:          0 MISS:          0
cpu3_L2C PREFETCH REQUESTED:   12124567 ISSUED:   12119858 USEFUL:    1254705 USELESS:     217836
cpu3_L2C AVERAGE MISS LATENCY: 283.7 cycles
cpu3_L2C TOTAL        ACCESS:          0 HIT:          0 MISS:          0
cpu3_L2C LOAD         ACCESS:          0 HIT:          0 MISS:          0
cpu3_L2C RFO          ACCESS:          0 HIT:          0 MISS:          0
cpu3_L2C PREFETCH     ACCESS:          0 HIT:          0 MISS:          0
cpu3_L2C WRITE        ACCESS:          0 HIT:          0 MISS:          0
cpu3_L2C TRANSLATION  ACCESS:          0 HIT:          0 MISS:          0
cpu3_L2C PREFETCH REQUESTED:   12124567 ISSUED:   12119858 USEFUL:    1254705 USELESS:     217836
cpu3_L2C AVERAGE MISS LATENCY: 283.7 cycles
cpu3_L2C TOTAL        ACCESS:          0 HIT:          0 MISS:          0
cpu3_L2C LOAD         ACCESS:          0 HIT:          0 MISS:          0
cpu3_L2C RFO          ACCESS:          0 HIT:          0 MISS:          0
cpu3_L2C PREFETCH     ACCESS:          0 HIT:          0 MISS:          0
cpu3_L2C WRITE        ACCESS:          0 HIT:          0 MISS:          0
cpu3_L2C TRANSLATION  ACCESS:          0 HIT:          0 MISS:          0
cpu3_L2C PREFETCH REQUESTED:   12124567 ISSUED:   12119858 USEFUL:    1254705 USELESS:     217836
cpu3_L2C AVERAGE MISS LATENCY: 283.7 cycles
cpu3_L2C TOTAL        ACCESS:   14752356 HIT:    9029908 MISS:    5722448
cpu3_L2C LOAD         ACCESS:    4638653 HIT:    2482370 MISS:    2156283
cpu3_L2C RFO          ACCESS:     572787 HIT:     325900 MISS:     246887
cpu3_L2C PREFETCH     ACCESS:    8738894 HIT:    5434487 MISS:    3304407
cpu3_L2C WRITE        ACCESS:     784693 HIT:     784318 MISS:        375
cpu3_L2C TRANSLATION  ACCESS:      17329 HIT:       2833 MISS:      14496
cpu3_L2C PREFETCH REQUESTED:   12124567 ISSUED:   12119858 USEFUL:    1254705 USELESS:     217836
cpu3_L2C AVERAGE MISS LATENCY: 283.7 cycles
cpu3_STLB TOTAL        ACCESS:          0 HIT:          0 MISS:          0
cpu3_STLB LOAD         ACCESS:          0 HIT:          0 MISS:          0
cpu3_STLB RFO          ACCESS:          0 HIT:          0 MISS:          0
cpu3_STLB PREFETCH     ACCESS:          0 HIT:          0 MISS:          0
cpu3_STLB WRITE        ACCESS:          0 HIT:          0 MISS:          0
cpu3_STLB TRANSLATION  ACCESS:          0 HIT:          0 MISS:          0
cpu3_STLB PREFETCH REQUESTED:          0 ISSUED:          0 USEFUL:          0 USELESS:          0
cpu3_STLB AVERAGE MISS LATENCY: 409.5 cycles
cpu3_STLB TOTAL        ACCESS:          0 HIT:          0 MISS:          0
cpu3_STLB LOAD         ACCESS:          0 HIT:          0 MISS:          0
cpu3_STLB RFO          ACCESS:          0 HIT:          0 MISS:          0
cpu3_STLB PREFETCH     ACCESS:          0 HIT:          0 MISS:          0
cpu3_STLB WRITE        ACCESS:          0 HIT:          0 MISS:          0
cpu3_STLB TRANSLATION  ACCESS:          0 HIT:          0 MISS:          0
cpu3_STLB PREFETCH REQUESTED:          0 ISSUED:          0 USEFUL:          0 USELESS:          0
cpu3_STLB AVERAGE MISS LATENCY: 409.5 cycles
cpu3_STLB TOTAL        ACCESS:          0 HIT:          0 MISS:          0
cpu3_STLB LOAD         ACCESS:          0 HIT:          0 MISS:          0
cpu3_STLB RFO          ACCESS:          0 HIT:          0 MISS:          0
cpu3_STLB PREFETCH     ACCESS:          0 HIT:          0 MISS:          0
cpu3_STLB WRITE        ACCESS:          0 HIT:          0 MISS:          0
cpu3_STLB TRANSLATION  ACCESS:          0 HIT:          0 MISS:          0
cpu3_STLB PREFETCH REQUESTED:          0 ISSUED:          0 USEFUL:          0 USELESS:          0
cpu3_STLB AVERAGE MISS LATENCY: 409.5 cycles
cpu3_STLB TOTAL        ACCESS:    2240052 HIT:    2208357 MISS:      31695
cpu3_STLB LOAD         ACCESS:    2240052 HIT:    2208357 MISS:      31695
cpu3_STLB RFO          ACCESS:          0 HIT:          0 MISS:          0
cpu3_STLB PREFETCH     ACCESS:          0 HIT:          0 MISS:          0
cpu3_STLB WRITE        ACCESS:          0 HIT:          0 MISS:          0
cpu3_STLB TRANSLATION  ACCESS:          0 HIT:          0 MISS:          0
cpu3_STLB PREFETCH REQUESTED:          0 ISSUED:          0 USEFUL:          0 USELESS:          0
cpu3_STLB AVERAGE MISS LATENCY: 409.5 cycles

DRAM Statistics

Channel 0 RQ ROW_BUFFER_HIT:    4344446
  ROW_BUFFER_MISS:   10900824
 AVG DBUS CONGESTED CYCLE: 3.985
WQ ROW_BUFFER_HIT: Channel 0 
  ROW_BUFFER_MISS:     427197
  FULL:   10084033
BERTI TO_L1: 81885514 TO_L2: 41999662 TO_L2_BC_MSHR: 23
BERTI AVG_LAT: 1191.58 NUM_TRACK_LATENCY: 22451069 NUM_CANT_TRACK_LATENCY: 105754
BERTI CROSS_PAGE 17975450 NO_CROSS_PAGE: 105909726
BERTI FOUND_BERTI: 38466528 NO_FOUND_BERTI: 1049567
BERTI AVERAGE_ISSUED: 6.59757
BERTI TO_L1: 81885514 TO_L2: 41999662 TO_L2_BC_MSHR: 23
BERTI AVG_LAT: 1191.58 NUM_TRACK_LATENCY: 22451069 NUM_CANT_TRACK_LATENCY: 105754
BERTI CROSS_PAGE 17975450 NO_CROSS_PAGE: 105909726
BERTI FOUND_BERTI: 38466528 NO_FOUND_BERTI: 1049567
BERTI AVERAGE_ISSUED: 6.59757
BERTI TO_L1: 81885514 TO_L2: 41999662 TO_L2_BC_MSHR: 23
BERTI AVG_LAT: 1191.58 NUM_TRACK_LATENCY: 22451069 NUM_CANT_TRACK_LATENCY: 105754
BERTI CROSS_PAGE 17975450 NO_CROSS_PAGE: 105909726
BERTI FOUND_BERTI: 38466528 NO_FOUND_BERTI: 1049567
BERTI AVERAGE_ISSUED: 6.59757
BERTI TO_L1: 81885514 TO_L2: 41999662 TO_L2_BC_MSHR: 23
BERTI AVG_LAT: 1191.58 NUM_TRACK_LATENCY: 22451069 NUM_CANT_TRACK_LATENCY: 105754
BERTI CROSS_PAGE 17975450 NO_CROSS_PAGE: 105909726
BERTI FOUND_BERTI: 38466528 NO_FOUND_BERTI: 1049567
BERTI AVERAGE_ISSUED: 6.59757
