WARNING: physical memory size is smaller than virtual memory size.
WARNING: option --warmup_instructions is deprecated. Use --warmup-instructions instead.
WARNING: option --simulation_instructions is deprecated. Use --simulation-instructions instead.

*** ChampSim Multicore Out-of-Order Simulator ***
Warmup Instructions: 50000000
Simulation Instructions: 150000000
Number of CPUs: 4
Page size: 4096

Berti Prefetcher
BERTI HASH ORIGINAL
BERTI IP MASK ffff
Berti Prefetcher
BERTI HASH ORIGINAL
BERTI IP MASK ffff
Berti Prefetcher
BERTI HASH ORIGINAL
BERTI IP MASK ffff
Berti Prefetcher
BERTI HASH ORIGINAL
BERTI IP MASK ffff
Off-chip DRAM Size: 4 GiB Channels: 1 Width: 64-bit Data Race: 3200 MT/s
Heartbeat CPU 3 instructions: 10000000 cycles: 2502897 heartbeat IPC: 3.995 cumulative IPC: 3.995 (Simulation time: 00 hr 02 min 22 sec)
Heartbeat CPU 2 instructions: 10000002 cycles: 2724939 heartbeat IPC: 3.67 cumulative IPC: 3.67 (Simulation time: 00 hr 02 min 35 sec)
Heartbeat CPU 0 instructions: 10000002 cycles: 3385574 heartbeat IPC: 2.954 cumulative IPC: 2.954 (Simulation time: 00 hr 03 min 12 sec)
Heartbeat CPU 1 instructions: 10000004 cycles: 3681432 heartbeat IPC: 2.716 cumulative IPC: 2.716 (Simulation time: 00 hr 03 min 28 sec)
Heartbeat CPU 3 instructions: 20000001 cycles: 5005630 heartbeat IPC: 3.996 cumulative IPC: 3.996 (Simulation time: 00 hr 04 min 43 sec)
Heartbeat CPU 2 instructions: 20000003 cycles: 5241889 heartbeat IPC: 3.973 cumulative IPC: 3.815 (Simulation time: 00 hr 04 min 56 sec)
Heartbeat CPU 0 instructions: 20000004 cycles: 6764671 heartbeat IPC: 2.959 cumulative IPC: 2.957 (Simulation time: 00 hr 06 min 23 sec)
Heartbeat CPU 1 instructions: 20000002 cycles: 7361389 heartbeat IPC: 2.717 cumulative IPC: 2.717 (Simulation time: 00 hr 06 min 56 sec)
Heartbeat CPU 3 instructions: 30000003 cycles: 7507957 heartbeat IPC: 3.996 cumulative IPC: 3.996 (Simulation time: 00 hr 07 min 05 sec)
Heartbeat CPU 2 instructions: 30000000 cycles: 7758203 heartbeat IPC: 3.974 cumulative IPC: 3.867 (Simulation time: 00 hr 07 min 19 sec)
Heartbeat CPU 3 instructions: 40000002 cycles: 10010596 heartbeat IPC: 3.996 cumulative IPC: 3.996 (Simulation time: 00 hr 09 min 30 sec)
Heartbeat CPU 0 instructions: 30000002 cycles: 10128679 heartbeat IPC: 2.973 cumulative IPC: 2.962 (Simulation time: 00 hr 09 min 37 sec)
Heartbeat CPU 2 instructions: 40000002 cycles: 10281118 heartbeat IPC: 3.964 cumulative IPC: 3.891 (Simulation time: 00 hr 09 min 46 sec)
Heartbeat CPU 1 instructions: 30000003 cycles: 11042513 heartbeat IPC: 2.717 cumulative IPC: 2.717 (Simulation time: 00 hr 10 min 30 sec)
Heartbeat CPU 3 instructions: 50000003 cycles: 12513280 heartbeat IPC: 3.996 cumulative IPC: 3.996 (Simulation time: 00 hr 11 min 56 sec)
Warmup finished CPU 3 instructions: 50000003 cycles: 12513281 cumulative IPC: 3.996 (Simulation time: 00 hr 11 min 56 sec)
Heartbeat CPU 2 instructions: 50000001 cycles: 12835105 heartbeat IPC: 3.915 cumulative IPC: 3.896 (Simulation time: 00 hr 12 min 15 sec)
Warmup finished CPU 2 instructions: 50000001 cycles: 12835106 cumulative IPC: 3.896 (Simulation time: 00 hr 12 min 15 sec)
Heartbeat CPU 0 instructions: 40000003 cycles: 13526143 heartbeat IPC: 2.943 cumulative IPC: 2.957 (Simulation time: 00 hr 12 min 56 sec)
Heartbeat CPU 1 instructions: 40000003 cycles: 14723940 heartbeat IPC: 2.716 cumulative IPC: 2.717 (Simulation time: 00 hr 14 min 06 sec)
Heartbeat CPU 3 instructions: 60000001 cycles: 15016014 heartbeat IPC: 3.996 cumulative IPC: 3.996 (Simulation time: 00 hr 14 min 23 sec)
Heartbeat CPU 2 instructions: 60000000 cycles: 15395019 heartbeat IPC: 3.906 cumulative IPC: 3.897 (Simulation time: 00 hr 14 min 46 sec)
Heartbeat CPU 0 instructions: 50000002 cycles: 16927288 heartbeat IPC: 2.94 cumulative IPC: 2.954 (Simulation time: 00 hr 16 min 18 sec)
Warmup finished CPU 0 instructions: 50000002 cycles: 16927289 cumulative IPC: 2.954 (Simulation time: 00 hr 16 min 18 sec)
Heartbeat CPU 3 instructions: 70000000 cycles: 17520893 heartbeat IPC: 3.992 cumulative IPC: 3.995 (Simulation time: 00 hr 16 min 52 sec)
Heartbeat CPU 2 instructions: 70000003 cycles: 17935866 heartbeat IPC: 3.936 cumulative IPC: 3.903 (Simulation time: 00 hr 17 min 15 sec)
Heartbeat CPU 1 instructions: 50000004 cycles: 18404737 heartbeat IPC: 2.717 cumulative IPC: 2.717 (Simulation time: 00 hr 17 min 42 sec)
Warmup finished CPU 1 instructions: 50000004 cycles: 18404738 cumulative IPC: 2.717 (Simulation time: 00 hr 17 min 42 sec)
Warmup complete CPU 0 instructions: 54301705 cycles: 18404738 cumulative IPC: 2.95 (Simulation time: 00 hr 17 min 42 sec)
Warmup complete CPU 1 instructions: 50000004 cycles: 18404738 cumulative IPC: 2.717 (Simulation time: 00 hr 17 min 42 sec)
Warmup complete CPU 2 instructions: 71865781 cycles: 18404738 cumulative IPC: 3.905 (Simulation time: 00 hr 17 min 42 sec)
Warmup complete CPU 3 instructions: 73535376 cycles: 18404738 cumulative IPC: 3.995 (Simulation time: 00 hr 17 min 42 sec)
Heartbeat CPU 3 instructions: 80000001 cycles: 21534781 heartbeat IPC: 2.491 cumulative IPC: 2.065 (Simulation time: 00 hr 19 min 21 sec)
Heartbeat CPU 3 instructions: 90000004 cycles: 26349069 heartbeat IPC: 2.077 cumulative IPC: 2.073 (Simulation time: 00 hr 21 min 29 sec)
Heartbeat CPU 2 instructions: 80000003 cycles: 28548264 heartbeat IPC: 0.9423 cumulative IPC: 0.8019 (Simulation time: 00 hr 22 min 36 sec)
Heartbeat CPU 3 instructions: 100000000 cycles: 31174918 heartbeat IPC: 2.072 cumulative IPC: 2.072 (Simulation time: 00 hr 23 min 57 sec)
Heartbeat CPU 2 instructions: 90000003 cycles: 34926568 heartbeat IPC: 1.568 cumulative IPC: 1.098 (Simulation time: 00 hr 26 min 03 sec)
Heartbeat CPU 3 instructions: 110000001 cycles: 35953486 heartbeat IPC: 2.093 cumulative IPC: 2.078 (Simulation time: 00 hr 26 min 35 sec)
Heartbeat CPU 3 instructions: 120000000 cycles: 40696783 heartbeat IPC: 2.108 cumulative IPC: 2.084 (Simulation time: 00 hr 28 min 49 sec)
Heartbeat CPU 3 instructions: 130000002 cycles: 45425769 heartbeat IPC: 2.115 cumulative IPC: 2.09 (Simulation time: 00 hr 31 min 03 sec)
Heartbeat CPU 3 instructions: 140000000 cycles: 50263325 heartbeat IPC: 2.067 cumulative IPC: 2.086 (Simulation time: 00 hr 33 min 18 sec)
Heartbeat CPU 1 instructions: 60000004 cycles: 53592701 heartbeat IPC: 0.2842 cumulative IPC: 0.2842 (Simulation time: 00 hr 34 min 46 sec)
Heartbeat CPU 0 instructions: 60000003 cycles: 54700057 heartbeat IPC: 0.2647 cumulative IPC: 0.157 (Simulation time: 00 hr 35 min 16 sec)
Heartbeat CPU 3 instructions: 150000004 cycles: 54944014 heartbeat IPC: 2.136 cumulative IPC: 2.093 (Simulation time: 00 hr 35 min 23 sec)
Heartbeat CPU 3 instructions: 160000003 cycles: 59620393 heartbeat IPC: 2.138 cumulative IPC: 2.098 (Simulation time: 00 hr 37 min 28 sec)
Heartbeat CPU 3 instructions: 170000003 cycles: 64304851 heartbeat IPC: 2.135 cumulative IPC: 2.102 (Simulation time: 00 hr 39 min 40 sec)
Heartbeat CPU 3 instructions: 180000004 cycles: 69004508 heartbeat IPC: 2.128 cumulative IPC: 2.104 (Simulation time: 00 hr 41 min 48 sec)
Heartbeat CPU 3 instructions: 190000002 cycles: 73738650 heartbeat IPC: 2.112 cumulative IPC: 2.105 (Simulation time: 00 hr 43 min 55 sec)
Heartbeat CPU 3 instructions: 200000000 cycles: 78516013 heartbeat IPC: 2.093 cumulative IPC: 2.104 (Simulation time: 00 hr 45 min 55 sec)
Heartbeat CPU 2 instructions: 100000000 cycles: 80893412 heartbeat IPC: 0.2175 cumulative IPC: 0.4502 (Simulation time: 00 hr 46 min 57 sec)
Heartbeat CPU 3 instructions: 210000000 cycles: 83226165 heartbeat IPC: 2.123 cumulative IPC: 2.105 (Simulation time: 00 hr 47 min 57 sec)
Heartbeat CPU 3 instructions: 220000000 cycles: 87911567 heartbeat IPC: 2.134 cumulative IPC: 2.107 (Simulation time: 00 hr 49 min 56 sec)
Simulation finished CPU 3 instructions: 150000000 cycles: 71142147 cumulative IPC: 2.108 (Simulation time: 00 hr 50 min 38 sec)
Heartbeat CPU 1 instructions: 70000004 cycles: 90458456 heartbeat IPC: 0.2713 cumulative IPC: 0.2776 (Simulation time: 00 hr 51 min 01 sec)
Heartbeat CPU 3 instructions: 230000001 cycles: 92646204 heartbeat IPC: 2.112 cumulative IPC: 2.108 (Simulation time: 00 hr 51 min 57 sec)
Heartbeat CPU 3 instructions: 240000000 cycles: 97419413 heartbeat IPC: 2.095 cumulative IPC: 2.107 (Simulation time: 00 hr 54 min 05 sec)
Heartbeat CPU 3 instructions: 250000002 cycles: 102210468 heartbeat IPC: 2.087 cumulative IPC: 2.106 (Simulation time: 00 hr 56 min 05 sec)
Heartbeat CPU 3 instructions: 260000000 cycles: 107170834 heartbeat IPC: 2.016 cumulative IPC: 2.101 (Simulation time: 00 hr 58 min 10 sec)
Heartbeat CPU 3 instructions: 270000000 cycles: 111943754 heartbeat IPC: 2.095 cumulative IPC: 2.1 (Simulation time: 01 hr 00 min 11 sec)
Heartbeat CPU 3 instructions: 280000001 cycles: 116782615 heartbeat IPC: 2.067 cumulative IPC: 2.099 (Simulation time: 01 hr 02 min 14 sec)
Heartbeat CPU 3 instructions: 290000004 cycles: 121551814 heartbeat IPC: 2.097 cumulative IPC: 2.099 (Simulation time: 01 hr 04 min 17 sec)
Heartbeat CPU 3 instructions: 300000000 cycles: 126283504 heartbeat IPC: 2.113 cumulative IPC: 2.099 (Simulation time: 01 hr 06 min 15 sec)
Heartbeat CPU 3 instructions: 310000001 cycles: 131043202 heartbeat IPC: 2.101 cumulative IPC: 2.099 (Simulation time: 01 hr 08 min 15 sec)
Heartbeat CPU 3 instructions: 320000001 cycles: 135803830 heartbeat IPC: 2.101 cumulative IPC: 2.099 (Simulation time: 01 hr 10 min 23 sec)
Heartbeat CPU 1 instructions: 80000001 cycles: 138644953 heartbeat IPC: 0.2075 cumulative IPC: 0.2495 (Simulation time: 01 hr 11 min 39 sec)
Heartbeat CPU 3 instructions: 330000001 cycles: 140573710 heartbeat IPC: 2.096 cumulative IPC: 2.099 (Simulation time: 01 hr 12 min 28 sec)
Heartbeat CPU 0 instructions: 70000000 cycles: 149183807 heartbeat IPC: 0.1058 cumulative IPC: 0.12 (Simulation time: 01 hr 15 min 51 sec)
Heartbeat CPU 3 instructions: 340000000 cycles: 159452272 heartbeat IPC: 0.5297 cumulative IPC: 1.889 (Simulation time: 01 hr 19 min 47 sec)
Heartbeat CPU 3 instructions: 350000002 cycles: 168811299 heartbeat IPC: 1.068 cumulative IPC: 1.838 (Simulation time: 01 hr 23 min 42 sec)
Heartbeat CPU 2 instructions: 110000001 cycles: 173177417 heartbeat IPC: 0.1084 cumulative IPC: 0.2464 (Simulation time: 01 hr 25 min 41 sec)
Heartbeat CPU 3 instructions: 360000003 cycles: 176119910 heartbeat IPC: 1.368 cumulative IPC: 1.816 (Simulation time: 01 hr 27 min 02 sec)
Heartbeat CPU 2 instructions: 120000003 cycles: 182609641 heartbeat IPC: 1.06 cumulative IPC: 0.2931 (Simulation time: 01 hr 30 min 08 sec)
Heartbeat CPU 3 instructions: 370000000 cycles: 183058081 heartbeat IPC: 1.441 cumulative IPC: 1.801 (Simulation time: 01 hr 30 min 22 sec)
Heartbeat CPU 1 instructions: 90000000 cycles: 183069892 heartbeat IPC: 0.2251 cumulative IPC: 0.2429 (Simulation time: 01 hr 30 min 23 sec)
Heartbeat CPU 2 instructions: 130000001 cycles: 187203235 heartbeat IPC: 2.177 cumulative IPC: 0.3444 (Simulation time: 01 hr 32 min 37 sec)
Heartbeat CPU 3 instructions: 380000002 cycles: 188908991 heartbeat IPC: 1.709 cumulative IPC: 1.797 (Simulation time: 01 hr 33 min 33 sec)
Heartbeat CPU 2 instructions: 140000000 cycles: 191691198 heartbeat IPC: 2.228 cumulative IPC: 0.3932 (Simulation time: 01 hr 34 min 58 sec)
Heartbeat CPU 2 instructions: 150000001 cycles: 200553819 heartbeat IPC: 1.128 cumulative IPC: 0.429 (Simulation time: 01 hr 38 min 41 sec)
Heartbeat CPU 2 instructions: 160000000 cycles: 210587036 heartbeat IPC: 0.9967 cumulative IPC: 0.4586 (Simulation time: 01 hr 43 min 00 sec)
Heartbeat CPU 2 instructions: 170000000 cycles: 223814845 heartbeat IPC: 0.756 cumulative IPC: 0.4777 (Simulation time: 01 hr 48 min 08 sec)
Heartbeat CPU 3 instructions: 390000001 cycles: 225068515 heartbeat IPC: 0.2766 cumulative IPC: 1.531 (Simulation time: 01 hr 48 min 39 sec)
Heartbeat CPU 1 instructions: 100000000 cycles: 225829401 heartbeat IPC: 0.2339 cumulative IPC: 0.2411 (Simulation time: 01 hr 48 min 59 sec)
Heartbeat CPU 3 instructions: 400000004 cycles: 233168520 heartbeat IPC: 1.235 cumulative IPC: 1.52 (Simulation time: 01 hr 52 min 20 sec)
Heartbeat CPU 2 instructions: 180000004 cycles: 235212654 heartbeat IPC: 0.8774 cumulative IPC: 0.4988 (Simulation time: 01 hr 53 min 16 sec)
Heartbeat CPU 0 instructions: 80000000 cycles: 235692296 heartbeat IPC: 0.1156 cumulative IPC: 0.1183 (Simulation time: 01 hr 53 min 26 sec)
Heartbeat CPU 3 instructions: 410000003 cycles: 241234997 heartbeat IPC: 1.24 cumulative IPC: 1.51 (Simulation time: 01 hr 55 min 58 sec)
Heartbeat CPU 2 instructions: 190000002 cycles: 243469149 heartbeat IPC: 1.211 cumulative IPC: 0.5249 (Simulation time: 01 hr 57 min 04 sec)
Heartbeat CPU 3 instructions: 420000001 cycles: 250146522 heartbeat IPC: 1.122 cumulative IPC: 1.495 (Simulation time: 02 hr 00 min 07 sec)
Heartbeat CPU 3 instructions: 430000002 cycles: 258534423 heartbeat IPC: 1.192 cumulative IPC: 1.484 (Simulation time: 02 hr 03 min 37 sec)
Heartbeat CPU 1 instructions: 110000003 cycles: 262294712 heartbeat IPC: 0.2742 cumulative IPC: 0.246 (Simulation time: 02 hr 05 min 02 sec)
Heartbeat CPU 3 instructions: 440000003 cycles: 266671888 heartbeat IPC: 1.229 cumulative IPC: 1.476 (Simulation time: 02 hr 06 min 45 sec)
Heartbeat CPU 3 instructions: 450000000 cycles: 276589234 heartbeat IPC: 1.008 cumulative IPC: 1.458 (Simulation time: 02 hr 10 min 47 sec)
Heartbeat CPU 2 instructions: 200000004 cycles: 282582192 heartbeat IPC: 0.2557 cumulative IPC: 0.485 (Simulation time: 02 hr 13 min 16 sec)
Heartbeat CPU 3 instructions: 460000004 cycles: 285618786 heartbeat IPC: 1.107 cumulative IPC: 1.446 (Simulation time: 02 hr 14 min 33 sec)
Heartbeat CPU 3 instructions: 470000003 cycles: 294174476 heartbeat IPC: 1.169 cumulative IPC: 1.438 (Simulation time: 02 hr 18 min 08 sec)
Heartbeat CPU 1 instructions: 120000004 cycles: 299765600 heartbeat IPC: 0.2669 cumulative IPC: 0.2488 (Simulation time: 02 hr 20 min 26 sec)
Heartbeat CPU 3 instructions: 480000000 cycles: 305825555 heartbeat IPC: 0.8583 cumulative IPC: 1.414 (Simulation time: 02 hr 22 min 49 sec)
Heartbeat CPU 0 instructions: 90000000 cycles: 317046237 heartbeat IPC: 0.1229 cumulative IPC: 0.1195 (Simulation time: 02 hr 26 min 53 sec)
Heartbeat CPU 3 instructions: 490000002 cycles: 333027545 heartbeat IPC: 0.3676 cumulative IPC: 1.324 (Simulation time: 02 hr 32 min 32 sec)
Heartbeat CPU 3 instructions: 500000000 cycles: 346894070 heartbeat IPC: 0.7212 cumulative IPC: 1.298 (Simulation time: 02 hr 37 min 49 sec)
Heartbeat CPU 1 instructions: 130000004 cycles: 348429265 heartbeat IPC: 0.2055 cumulative IPC: 0.2424 (Simulation time: 02 hr 38 min 22 sec)
Heartbeat CPU 3 instructions: 510000002 cycles: 359822543 heartbeat IPC: 0.7735 cumulative IPC: 1.278 (Simulation time: 02 hr 42 min 49 sec)
Heartbeat CPU 3 instructions: 520000000 cycles: 373477291 heartbeat IPC: 0.7323 cumulative IPC: 1.257 (Simulation time: 02 hr 48 min 02 sec)
Heartbeat CPU 3 instructions: 530000003 cycles: 385841277 heartbeat IPC: 0.8088 cumulative IPC: 1.242 (Simulation time: 02 hr 52 min 48 sec)
Heartbeat CPU 2 instructions: 210000003 cycles: 391978154 heartbeat IPC: 0.09141 cumulative IPC: 0.3698 (Simulation time: 02 hr 55 min 23 sec)
Heartbeat CPU 3 instructions: 540000000 cycles: 396616450 heartbeat IPC: 0.9281 cumulative IPC: 1.233 (Simulation time: 02 hr 57 min 45 sec)
Heartbeat CPU 1 instructions: 140000000 cycles: 396647072 heartbeat IPC: 0.2074 cumulative IPC: 0.2379 (Simulation time: 02 hr 57 min 46 sec)
Heartbeat CPU 2 instructions: 220000001 cycles: 402495123 heartbeat IPC: 0.9508 cumulative IPC: 0.3857 (Simulation time: 03 hr 00 min 43 sec)
Simulation finished CPU 2 instructions: 150000003 cycles: 384857550 cumulative IPC: 0.3898 (Simulation time: 03 hr 01 min 04 sec)
Heartbeat CPU 3 instructions: 550000002 cycles: 406313378 heartbeat IPC: 1.031 cumulative IPC: 1.228 (Simulation time: 03 hr 02 min 48 sec)
Heartbeat CPU 2 instructions: 230000001 cycles: 407011393 heartbeat IPC: 2.214 cumulative IPC: 0.4069 (Simulation time: 03 hr 03 min 10 sec)
Heartbeat CPU 2 instructions: 240000000 cycles: 411675500 heartbeat IPC: 2.144 cumulative IPC: 0.4275 (Simulation time: 03 hr 05 min 28 sec)
Heartbeat CPU 3 instructions: 560000001 cycles: 416290122 heartbeat IPC: 1.002 cumulative IPC: 1.223 (Simulation time: 03 hr 07 min 34 sec)
Heartbeat CPU 2 instructions: 250000004 cycles: 418981432 heartbeat IPC: 1.369 cumulative IPC: 0.4447 (Simulation time: 03 hr 08 min 49 sec)
Heartbeat CPU 0 instructions: 100000003 cycles: 423240924 heartbeat IPC: 0.09417 cumulative IPC: 0.1129 (Simulation time: 03 hr 10 min 47 sec)
Heartbeat CPU 3 instructions: 570000004 cycles: 426543421 heartbeat IPC: 0.9753 cumulative IPC: 1.216 (Simulation time: 03 hr 12 min 18 sec)
Heartbeat CPU 2 instructions: 260000004 cycles: 427913331 heartbeat IPC: 1.12 cumulative IPC: 0.4594 (Simulation time: 03 hr 12 min 56 sec)
Heartbeat CPU 1 instructions: 150000004 cycles: 435456802 heartbeat IPC: 0.2577 cumulative IPC: 0.2398 (Simulation time: 03 hr 16 min 16 sec)
Heartbeat CPU 3 instructions: 580000000 cycles: 436375769 heartbeat IPC: 1.017 cumulative IPC: 1.212 (Simulation time: 03 hr 16 min 42 sec)
Heartbeat CPU 2 instructions: 270000000 cycles: 436800251 heartbeat IPC: 1.125 cumulative IPC: 0.4736 (Simulation time: 03 hr 16 min 54 sec)
Heartbeat CPU 3 instructions: 590000001 cycles: 445958865 heartbeat IPC: 1.044 cumulative IPC: 1.208 (Simulation time: 03 hr 21 min 04 sec)
Heartbeat CPU 2 instructions: 280000001 cycles: 446935005 heartbeat IPC: 0.9867 cumulative IPC: 0.4857 (Simulation time: 03 hr 21 min 30 sec)
Heartbeat CPU 3 instructions: 600000000 cycles: 454931120 heartbeat IPC: 1.115 cumulative IPC: 1.206 (Simulation time: 03 hr 24 min 44 sec)
Heartbeat CPU 2 instructions: 290000003 cycles: 458989578 heartbeat IPC: 0.8296 cumulative IPC: 0.4951 (Simulation time: 03 hr 26 min 36 sec)
Heartbeat CPU 3 instructions: 610000002 cycles: 464288169 heartbeat IPC: 1.069 cumulative IPC: 1.203 (Simulation time: 03 hr 29 min 01 sec)
Heartbeat CPU 1 instructions: 160000004 cycles: 473057358 heartbeat IPC: 0.266 cumulative IPC: 0.2419 (Simulation time: 03 hr 32 min 08 sec)
Heartbeat CPU 2 instructions: 300000002 cycles: 483469348 heartbeat IPC: 0.4085 cumulative IPC: 0.4905 (Simulation time: 03 hr 35 min 45 sec)
Heartbeat CPU 0 instructions: 110000002 cycles: 499392518 heartbeat IPC: 0.1313 cumulative IPC: 0.1158 (Simulation time: 03 hr 41 min 46 sec)
Heartbeat CPU 1 instructions: 170000000 cycles: 515037951 heartbeat IPC: 0.2382 cumulative IPC: 0.2416 (Simulation time: 03 hr 47 min 42 sec)
Heartbeat CPU 3 instructions: 620000003 cycles: 536754225 heartbeat IPC: 0.138 cumulative IPC: 1.054 (Simulation time: 03 hr 55 min 49 sec)
Heartbeat CPU 1 instructions: 180000004 cycles: 564074535 heartbeat IPC: 0.2039 cumulative IPC: 0.2382 (Simulation time: 04 hr 05 min 58 sec)
Heartbeat CPU 2 instructions: 310000000 cycles: 611287337 heartbeat IPC: 0.07824 cumulative IPC: 0.4017 (Simulation time: 04 hr 23 min 49 sec)
Heartbeat CPU 1 instructions: 190000001 cycles: 612122464 heartbeat IPC: 0.2081 cumulative IPC: 0.2358 (Simulation time: 04 hr 24 min 08 sec)
Heartbeat CPU 2 instructions: 320000004 cycles: 625705462 heartbeat IPC: 0.6936 cumulative IPC: 0.4086 (Simulation time: 04 hr 30 min 01 sec)
Heartbeat CPU 0 instructions: 120000001 cycles: 628988929 heartbeat IPC: 0.07716 cumulative IPC: 0.1076 (Simulation time: 04 hr 31 min 38 sec)
Heartbeat CPU 2 instructions: 330000002 cycles: 630483684 heartbeat IPC: 2.093 cumulative IPC: 0.4217 (Simulation time: 04 hr 32 min 23 sec)
Heartbeat CPU 3 instructions: 630000003 cycles: 633653013 heartbeat IPC: 0.1032 cumulative IPC: 0.9045 (Simulation time: 04 hr 33 min 50 sec)
Heartbeat CPU 2 instructions: 340000004 cycles: 634966243 heartbeat IPC: 2.231 cumulative IPC: 0.4349 (Simulation time: 04 hr 34 min 32 sec)
Heartbeat CPU 2 instructions: 350000004 cycles: 642142766 heartbeat IPC: 1.393 cumulative IPC: 0.4459 (Simulation time: 04 hr 37 min 47 sec)
Heartbeat CPU 2 instructions: 360000001 cycles: 649359895 heartbeat IPC: 1.386 cumulative IPC: 0.4567 (Simulation time: 04 hr 41 min 11 sec)
Heartbeat CPU 1 instructions: 200000002 cycles: 653461923 heartbeat IPC: 0.2419 cumulative IPC: 0.2362 (Simulation time: 04 hr 43 min 05 sec)
Simulation finished CPU 1 instructions: 150000003 cycles: 635057187 cumulative IPC: 0.2362 (Simulation time: 04 hr 43 min 05 sec)
Heartbeat CPU 2 instructions: 370000001 cycles: 658168735 heartbeat IPC: 1.135 cumulative IPC: 0.466 (Simulation time: 04 hr 45 min 12 sec)
Heartbeat CPU 2 instructions: 380000002 cycles: 667557146 heartbeat IPC: 1.065 cumulative IPC: 0.4747 (Simulation time: 04 hr 49 min 18 sec)
Heartbeat CPU 2 instructions: 390000000 cycles: 680905987 heartbeat IPC: 0.7491 cumulative IPC: 0.4802 (Simulation time: 04 hr 55 min 13 sec)
Heartbeat CPU 3 instructions: 640000004 cycles: 688182190 heartbeat IPC: 0.1834 cumulative IPC: 0.8458 (Simulation time: 04 hr 58 min 31 sec)
Heartbeat CPU 2 instructions: 400000001 cycles: 688853655 heartbeat IPC: 1.258 cumulative IPC: 0.4894 (Simulation time: 04 hr 58 min 52 sec)
Heartbeat CPU 1 instructions: 210000003 cycles: 693134530 heartbeat IPC: 0.2521 cumulative IPC: 0.2371 (Simulation time: 05 hr 00 min 35 sec)
Heartbeat CPU 0 instructions: 130000000 cycles: 713513020 heartbeat IPC: 0.1183 cumulative IPC: 0.1089 (Simulation time: 05 hr 08 min 49 sec)
Heartbeat CPU 1 instructions: 220000000 cycles: 733003301 heartbeat IPC: 0.2508 cumulative IPC: 0.2379 (Simulation time: 05 hr 16 min 36 sec)
Heartbeat CPU 2 instructions: 410000000 cycles: 755463811 heartbeat IPC: 0.1501 cumulative IPC: 0.4588 (Simulation time: 05 hr 25 min 24 sec)
Heartbeat CPU 3 instructions: 650000003 cycles: 769179875 heartbeat IPC: 0.1235 cumulative IPC: 0.7678 (Simulation time: 05 hr 30 min 42 sec)
Heartbeat CPU 1 instructions: 230000003 cycles: 777795461 heartbeat IPC: 0.2233 cumulative IPC: 0.237 (Simulation time: 05 hr 33 min 47 sec)
Heartbeat CPU 3 instructions: 660000001 cycles: 812895482 heartbeat IPC: 0.2288 cumulative IPC: 0.7382 (Simulation time: 05 hr 46 min 41 sec)
Heartbeat CPU 1 instructions: 240000003 cycles: 827048737 heartbeat IPC: 0.203 cumulative IPC: 0.235 (Simulation time: 05 hr 51 min 38 sec)
Heartbeat CPU 0 instructions: 140000003 cycles: 836151473 heartbeat IPC: 0.08154 cumulative IPC: 0.1048 (Simulation time: 05 hr 54 min 55 sec)
Heartbeat CPU 2 instructions: 420000002 cycles: 839949467 heartbeat IPC: 0.1184 cumulative IPC: 0.4238 (Simulation time: 05 hr 56 min 24 sec)
Heartbeat CPU 2 instructions: 430000000 cycles: 850559701 heartbeat IPC: 0.9425 cumulative IPC: 0.4304 (Simulation time: 06 hr 00 min 34 sec)
Heartbeat CPU 3 instructions: 670000001 cycles: 855425216 heartbeat IPC: 0.2351 cumulative IPC: 0.7126 (Simulation time: 06 hr 02 min 40 sec)
Heartbeat CPU 2 instructions: 440000003 cycles: 855953969 heartbeat IPC: 1.854 cumulative IPC: 0.4395 (Simulation time: 06 hr 02 min 54 sec)
Heartbeat CPU 2 instructions: 450000002 cycles: 861846863 heartbeat IPC: 1.697 cumulative IPC: 0.4483 (Simulation time: 06 hr 05 min 13 sec)
Heartbeat CPU 2 instructions: 460000001 cycles: 869881643 heartbeat IPC: 1.245 cumulative IPC: 0.4558 (Simulation time: 06 hr 08 min 21 sec)
Heartbeat CPU 1 instructions: 250000003 cycles: 869942778 heartbeat IPC: 0.2331 cumulative IPC: 0.2349 (Simulation time: 06 hr 08 min 22 sec)
Heartbeat CPU 2 instructions: 470000000 cycles: 878513032 heartbeat IPC: 1.159 cumulative IPC: 0.4629 (Simulation time: 06 hr 11 min 51 sec)
Heartbeat CPU 2 instructions: 480000004 cycles: 888998592 heartbeat IPC: 0.9537 cumulative IPC: 0.4688 (Simulation time: 06 hr 16 min 12 sec)
Heartbeat CPU 2 instructions: 490000001 cycles: 902734976 heartbeat IPC: 0.728 cumulative IPC: 0.4728 (Simulation time: 06 hr 21 min 43 sec)
Heartbeat CPU 1 instructions: 260000004 cycles: 910401308 heartbeat IPC: 0.2472 cumulative IPC: 0.2354 (Simulation time: 06 hr 24 min 46 sec)
Heartbeat CPU 2 instructions: 500000000 cycles: 910535793 heartbeat IPC: 1.282 cumulative IPC: 0.4799 (Simulation time: 06 hr 24 min 49 sec)
Heartbeat CPU 0 instructions: 150000001 cycles: 928477002 heartbeat IPC: 0.1083 cumulative IPC: 0.1052 (Simulation time: 06 hr 31 min 12 sec)
Heartbeat CPU 1 instructions: 270000002 cycles: 953985134 heartbeat IPC: 0.2294 cumulative IPC: 0.2351 (Simulation time: 06 hr 39 min 56 sec)
Heartbeat CPU 3 instructions: 680000004 cycles: 954347306 heartbeat IPC: 0.1011 cumulative IPC: 0.648 (Simulation time: 06 hr 40 min 04 sec)
Heartbeat CPU 2 instructions: 510000000 cycles: 966138488 heartbeat IPC: 0.1798 cumulative IPC: 0.4623 (Simulation time: 06 hr 44 min 31 sec)
Heartbeat CPU 3 instructions: 690000001 cycles: 982454895 heartbeat IPC: 0.3558 cumulative IPC: 0.6395 (Simulation time: 06 hr 50 min 11 sec)
Heartbeat CPU 1 instructions: 280000003 cycles: 995959686 heartbeat IPC: 0.2382 cumulative IPC: 0.2353 (Simulation time: 06 hr 55 min 02 sec)
Heartbeat CPU 3 instructions: 700000004 cycles: 1031060151 heartbeat IPC: 0.2057 cumulative IPC: 0.6186 (Simulation time: 07 hr 07 min 53 sec)
Heartbeat CPU 1 instructions: 290000001 cycles: 1041513751 heartbeat IPC: 0.2195 cumulative IPC: 0.2346 (Simulation time: 07 hr 11 min 34 sec)
Heartbeat CPU 0 instructions: 160000001 cycles: 1043876950 heartbeat IPC: 0.08666 cumulative IPC: 0.1031 (Simulation time: 07 hr 12 min 20 sec)
Heartbeat CPU 2 instructions: 520000003 cycles: 1064656758 heartbeat IPC: 0.1015 cumulative IPC: 0.4283 (Simulation time: 07 hr 19 min 50 sec)
Heartbeat CPU 3 instructions: 710000002 cycles: 1070355207 heartbeat IPC: 0.2545 cumulative IPC: 0.605 (Simulation time: 07 hr 21 min 56 sec)
Heartbeat CPU 2 instructions: 530000001 cycles: 1074599681 heartbeat IPC: 1.006 cumulative IPC: 0.4338 (Simulation time: 07 hr 23 min 41 sec)
Heartbeat CPU 2 instructions: 540000001 cycles: 1079325204 heartbeat IPC: 2.116 cumulative IPC: 0.4413 (Simulation time: 07 hr 25 min 41 sec)
Heartbeat CPU 1 instructions: 300000002 cycles: 1082245509 heartbeat IPC: 0.2455 cumulative IPC: 0.235 (Simulation time: 07 hr 27 min 00 sec)
Heartbeat CPU 2 instructions: 550000001 cycles: 1085297890 heartbeat IPC: 1.674 cumulative IPC: 0.4482 (Simulation time: 07 hr 28 min 20 sec)
Heartbeat CPU 3 instructions: 720000003 cycles: 1091137875 heartbeat IPC: 0.4812 cumulative IPC: 0.6026 (Simulation time: 07 hr 30 min 45 sec)
Heartbeat CPU 2 instructions: 560000000 cycles: 1092331500 heartbeat IPC: 1.422 cumulative IPC: 0.4545 (Simulation time: 07 hr 31 min 18 sec)
Heartbeat CPU 2 instructions: 570000002 cycles: 1101180680 heartbeat IPC: 1.13 cumulative IPC: 0.4601 (Simulation time: 07 hr 35 min 01 sec)
Heartbeat CPU 2 instructions: 580000003 cycles: 1110878088 heartbeat IPC: 1.031 cumulative IPC: 0.4651 (Simulation time: 07 hr 38 min 54 sec)
Heartbeat CPU 3 instructions: 730000001 cycles: 1112857702 heartbeat IPC: 0.4604 cumulative IPC: 0.5998 (Simulation time: 07 hr 39 min 42 sec)
Heartbeat CPU 1 instructions: 310000001 cycles: 1118061743 heartbeat IPC: 0.2792 cumulative IPC: 0.2364 (Simulation time: 07 hr 41 min 50 sec)
Heartbeat CPU 2 instructions: 590000000 cycles: 1122615761 heartbeat IPC: 0.852 cumulative IPC: 0.4692 (Simulation time: 07 hr 43 min 44 sec)
Heartbeat CPU 0 instructions: 170000000 cycles: 1125607812 heartbeat IPC: 0.1224 cumulative IPC: 0.1045 (Simulation time: 07 hr 44 min 57 sec)
Heartbeat CPU 2 instructions: 600000000 cycles: 1130148182 heartbeat IPC: 1.328 cumulative IPC: 0.4751 (Simulation time: 07 hr 47 min 01 sec)
Heartbeat CPU 3 instructions: 740000000 cycles: 1149382777 heartbeat IPC: 0.2738 cumulative IPC: 0.5893 (Simulation time: 07 hr 54 min 27 sec)
Heartbeat CPU 1 instructions: 320000000 cycles: 1155896270 heartbeat IPC: 0.2643 cumulative IPC: 0.2374 (Simulation time: 07 hr 56 min 54 sec)
Heartbeat CPU 2 instructions: 610000004 cycles: 1177351824 heartbeat IPC: 0.2118 cumulative IPC: 0.4643 (Simulation time: 08 hr 05 min 06 sec)
Heartbeat CPU 1 instructions: 330000001 cycles: 1194724106 heartbeat IPC: 0.2575 cumulative IPC: 0.238 (Simulation time: 08 hr 11 min 29 sec)
Heartbeat CPU 0 instructions: 180000002 cycles: 1226528874 heartbeat IPC: 0.09909 cumulative IPC: 0.104 (Simulation time: 08 hr 22 min 53 sec)
Heartbeat CPU 3 instructions: 750000002 cycles: 1226783593 heartbeat IPC: 0.1292 cumulative IPC: 0.5598 (Simulation time: 08 hr 22 min 58 sec)
Heartbeat CPU 1 instructions: 340000003 cycles: 1241142918 heartbeat IPC: 0.2154 cumulative IPC: 0.2372 (Simulation time: 08 hr 27 min 44 sec)
Heartbeat CPU 2 instructions: 620000001 cycles: 1276618948 heartbeat IPC: 0.1007 cumulative IPC: 0.4356 (Simulation time: 08 hr 39 min 36 sec)
Heartbeat CPU 3 instructions: 760000002 cycles: 1277638629 heartbeat IPC: 0.1966 cumulative IPC: 0.5451 (Simulation time: 08 hr 39 min 58 sec)
Heartbeat CPU 1 instructions: 350000000 cycles: 1286630404 heartbeat IPC: 0.2198 cumulative IPC: 0.2366 (Simulation time: 08 hr 43 min 21 sec)
Heartbeat CPU 2 instructions: 630000002 cycles: 1286802721 heartbeat IPC: 0.982 cumulative IPC: 0.44 (Simulation time: 08 hr 43 min 25 sec)
Heartbeat CPU 2 instructions: 640000004 cycles: 1291661826 heartbeat IPC: 2.058 cumulative IPC: 0.4462 (Simulation time: 08 hr 45 min 25 sec)
Heartbeat CPU 2 instructions: 650000000 cycles: 1298266386 heartbeat IPC: 1.514 cumulative IPC: 0.4517 (Simulation time: 08 hr 48 min 11 sec)
Heartbeat CPU 2 instructions: 660000001 cycles: 1306825823 heartbeat IPC: 1.168 cumulative IPC: 0.4565 (Simulation time: 08 hr 51 min 34 sec)
Heartbeat CPU 2 instructions: 670000000 cycles: 1316406492 heartbeat IPC: 1.044 cumulative IPC: 0.4608 (Simulation time: 08 hr 55 min 12 sec)
Heartbeat CPU 1 instructions: 360000004 cycles: 1325086409 heartbeat IPC: 0.26 cumulative IPC: 0.2372 (Simulation time: 08 hr 58 min 32 sec)
Heartbeat CPU 2 instructions: 680000001 cycles: 1328070741 heartbeat IPC: 0.8573 cumulative IPC: 0.4643 (Simulation time: 08 hr 59 min 35 sec)
Heartbeat CPU 0 instructions: 190000002 cycles: 1329193770 heartbeat IPC: 0.0974 cumulative IPC: 0.1035 (Simulation time: 08 hr 59 min 57 sec)
Heartbeat CPU 3 instructions: 770000002 cycles: 1331330868 heartbeat IPC: 0.1862 cumulative IPC: 0.5305 (Simulation time: 09 hr 00 min 41 sec)
Heartbeat CPU 2 instructions: 690000001 cycles: 1337965150 heartbeat IPC: 1.011 cumulative IPC: 0.4684 (Simulation time: 09 hr 03 min 06 sec)
Heartbeat CPU 3 instructions: 780000003 cycles: 1361126855 heartbeat IPC: 0.3356 cumulative IPC: 0.5261 (Simulation time: 09 hr 10 min 40 sec)
Heartbeat CPU 1 instructions: 370000004 cycles: 1362352308 heartbeat IPC: 0.2683 cumulative IPC: 0.2381 (Simulation time: 09 hr 11 min 05 sec)
Heartbeat CPU 2 instructions: 700000000 cycles: 1378869268 heartbeat IPC: 0.2445 cumulative IPC: 0.4617 (Simulation time: 09 hr 16 min 35 sec)
Heartbeat CPU 3 instructions: 790000004 cycles: 1386943197 heartbeat IPC: 0.3874 cumulative IPC: 0.5235 (Simulation time: 09 hr 19 min 14 sec)
Heartbeat CPU 1 instructions: 380000002 cycles: 1401606236 heartbeat IPC: 0.2548 cumulative IPC: 0.2386 (Simulation time: 09 hr 23 min 41 sec)
Heartbeat CPU 0 instructions: 200000001 cycles: 1424770900 heartbeat IPC: 0.1046 cumulative IPC: 0.1036 (Simulation time: 09 hr 30 min 38 sec)
Heartbeat CPU 1 instructions: 390000001 cycles: 1449332984 heartbeat IPC: 0.2095 cumulative IPC: 0.2376 (Simulation time: 09 hr 37 min 58 sec)
Heartbeat CPU 3 instructions: 800000004 cycles: 1461259471 heartbeat IPC: 0.1346 cumulative IPC: 0.5035 (Simulation time: 09 hr 41 min 35 sec)
Heartbeat CPU 2 instructions: 710000000 cycles: 1487346463 heartbeat IPC: 0.09219 cumulative IPC: 0.4344 (Simulation time: 09 hr 49 min 31 sec)
Simulation finished CPU 0 instructions: 150000000 cycles: 1471445898 cumulative IPC: 0.1019 (Simulation time: 09 hr 50 min 23 sec)
Simulation complete CPU 0 instructions: 150000000 cycles: 1471445898 cumulative IPC: 0.1019 (Simulation time: 09 hr 50 min 23 sec)
Simulation complete CPU 1 instructions: 348310968 cycles: 1471445898 cumulative IPC: 0.2367 (Simulation time: 09 hr 50 min 23 sec)
Simulation complete CPU 2 instructions: 640786525 cycles: 1471445898 cumulative IPC: 0.4355 (Simulation time: 09 hr 50 min 23 sec)
Simulation complete CPU 3 instructions: 732042509 cycles: 1471445898 cumulative IPC: 0.4975 (Simulation time: 09 hr 50 min 23 sec)

ChampSim completed all CPUs

=== Simulation ===
CPU 0 runs /home/das/dpc3_traces/619.lbm_s-4268B.champsimtrace.xzCPU 1 runs /home/das/dpc3_traces/607.cactuBSSN_s-2421B.champsimtrace.xzCPU 2 runs /home/das/dpc3_traces/627.cam4_s-573B.champsimtrace.xzCPU 3 runs /home/das/dpc3_traces/621.wrf_s-575B.champsimtrace.xz
Total Simulation Statistics (not including warmup)

CPU 0 cumulative IPC: 0.1019 instructions: 150000000 cycles: 1471445898
CPU 0 Branch Prediction Accuracy: 97.11% MPKI: 0.5214 Average ROB Occupancy at Mispredict: 247
Branch type MPKI
BRANCH_DIRECT_JUMP: 0
BRANCH_INDIRECT: 0
BRANCH_CONDITIONAL: 0.521
BRANCH_DIRECT_CALL: 0
BRANCH_INDIRECT_CALL: 0
BRANCH_RETURN: 0


CPU 1 cumulative IPC: 0.2367 instructions: 348310968 cycles: 1471445898
CPU 1 Branch Prediction Accuracy: 98.91% MPKI: 0.01427 Average ROB Occupancy at Mispredict: 135.8
Branch type MPKI
BRANCH_DIRECT_JUMP: 8.61e-05
BRANCH_INDIRECT: 0.000244
BRANCH_CONDITIONAL: 0.00882
BRANCH_DIRECT_CALL: 0.00178
BRANCH_INDIRECT_CALL: 8.61e-06
BRANCH_RETURN: 0.00333


CPU 2 cumulative IPC: 0.4355 instructions: 640786525 cycles: 1471445898
CPU 2 Branch Prediction Accuracy: 94.74% MPKI: 7.098 Average ROB Occupancy at Mispredict: 66.65
Branch type MPKI
BRANCH_DIRECT_JUMP: 0.00558
BRANCH_INDIRECT: 0.0016
BRANCH_CONDITIONAL: 6.45
BRANCH_DIRECT_CALL: 0.0192
BRANCH_INDIRECT_CALL: 0
BRANCH_RETURN: 0.625


CPU 3 cumulative IPC: 0.4975 instructions: 732042509 cycles: 1471445898
CPU 3 Branch Prediction Accuracy: 95.5% MPKI: 5.256 Average ROB Occupancy at Mispredict: 107.1
Branch type MPKI
BRANCH_DIRECT_JUMP: 0.000452
BRANCH_INDIRECT: 2.32e-05
BRANCH_CONDITIONAL: 4.87
BRANCH_DIRECT_CALL: 0.00263
BRANCH_INDIRECT_CALL: 0
BRANCH_RETURN: 0.383

LLC TOTAL        ACCESS:   16864569 HIT:    7420921 MISS:    9443648
LLC LOAD         ACCESS:     638107 HIT:     298785 MISS:     339322
LLC RFO          ACCESS:    5329421 HIT:     318077 MISS:    5011344
LLC PREFETCH     ACCESS:    5413715 HIT:    1321588 MISS:    4092127
LLC WRITE        ACCESS:    5482508 HIT:    5482424 MISS:         84
LLC TRANSLATION  ACCESS:        818 HIT:         47 MISS:        771
LLC PREFETCH REQUESTED:          0 ISSUED:          0 USEFUL:          0 USELESS:          0
LLC AVERAGE MISS LATENCY: 5385 cycles
LLC TOTAL        ACCESS:    4035632 HIT:    1312652 MISS:    2722980
LLC LOAD         ACCESS:    3595825 HIT:     930845 MISS:    2664980
LLC RFO          ACCESS:      11732 HIT:      10628 MISS:       1104
LLC PREFETCH     ACCESS:      27216 HIT:       3786 MISS:      23430
LLC WRITE        ACCESS:     347688 HIT:     347494 MISS:        194
LLC TRANSLATION  ACCESS:      53171 HIT:      19899 MISS:      33272
LLC PREFETCH REQUESTED:          0 ISSUED:          0 USEFUL:          0 USELESS:          0
LLC AVERAGE MISS LATENCY: 5385 cycles
LLC TOTAL        ACCESS:    7723660 HIT:    3669309 MISS:    4054351
LLC LOAD         ACCESS:     426540 HIT:      68657 MISS:     357883
LLC RFO          ACCESS:    3415015 HIT:      63106 MISS:    3351909
LLC PREFETCH     ACCESS:     407776 HIT:     185483 MISS:     222293
LLC WRITE        ACCESS:    3463221 HIT:    3351553 MISS:     111668
LLC TRANSLATION  ACCESS:      11108 HIT:        510 MISS:      10598
LLC PREFETCH REQUESTED:          0 ISSUED:          0 USEFUL:          0 USELESS:          0
LLC AVERAGE MISS LATENCY: 5385 cycles
LLC TOTAL        ACCESS:   10361581 HIT:    4221362 MISS:    6140219
LLC LOAD         ACCESS:     649330 HIT:     271337 MISS:     377993
LLC RFO          ACCESS:     822725 HIT:     179614 MISS:     643111
LLC PREFETCH     ACCESS:    7336910 HIT:    2254849 MISS:    5082061
LLC WRITE        ACCESS:    1547077 HIT:    1513831 MISS:      33246
LLC TRANSLATION  ACCESS:       5539 HIT:       1731 MISS:       3808
LLC PREFETCH REQUESTED:          0 ISSUED:          0 USEFUL:          0 USELESS:          0
LLC AVERAGE MISS LATENCY: 5385 cycles
cpu0_DTLB TOTAL        ACCESS:   24436233 HIT:   24121083 MISS:     315150
cpu0_DTLB LOAD         ACCESS:   24436233 HIT:   24121083 MISS:     315150
cpu0_DTLB RFO          ACCESS:          0 HIT:          0 MISS:          0
cpu0_DTLB PREFETCH     ACCESS:          0 HIT:          0 MISS:          0
cpu0_DTLB WRITE        ACCESS:          0 HIT:          0 MISS:          0
cpu0_DTLB TRANSLATION  ACCESS:          0 HIT:          0 MISS:          0
cpu0_DTLB PREFETCH REQUESTED:          0 ISSUED:          0 USEFUL:          0 USELESS:          0
cpu0_DTLB AVERAGE MISS LATENCY: 89.02 cycles
cpu0_DTLB TOTAL        ACCESS:          0 HIT:          0 MISS:          0
cpu0_DTLB LOAD         ACCESS:          0 HIT:          0 MISS:          0
cpu0_DTLB RFO          ACCESS:          0 HIT:          0 MISS:          0
cpu0_DTLB PREFETCH     ACCESS:          0 HIT:          0 MISS:          0
cpu0_DTLB WRITE        ACCESS:          0 HIT:          0 MISS:          0
cpu0_DTLB TRANSLATION  ACCESS:          0 HIT:          0 MISS:          0
cpu0_DTLB PREFETCH REQUESTED:          0 ISSUED:          0 USEFUL:          0 USELESS:          0
cpu0_DTLB AVERAGE MISS LATENCY: 89.02 cycles
cpu0_DTLB TOTAL        ACCESS:          0 HIT:          0 MISS:          0
cpu0_DTLB LOAD         ACCESS:          0 HIT:          0 MISS:          0
cpu0_DTLB RFO          ACCESS:          0 HIT:          0 MISS:          0
cpu0_DTLB PREFETCH     ACCESS:          0 HIT:          0 MISS:          0
cpu0_DTLB WRITE        ACCESS:          0 HIT:          0 MISS:          0
cpu0_DTLB TRANSLATION  ACCESS:          0 HIT:          0 MISS:          0
cpu0_DTLB PREFETCH REQUESTED:          0 ISSUED:          0 USEFUL:          0 USELESS:          0
cpu0_DTLB AVERAGE MISS LATENCY: 89.02 cycles
cpu0_DTLB TOTAL        ACCESS:          0 HIT:          0 MISS:          0
cpu0_DTLB LOAD         ACCESS:          0 HIT:          0 MISS:          0
cpu0_DTLB RFO          ACCESS:          0 HIT:          0 MISS:          0
cpu0_DTLB PREFETCH     ACCESS:          0 HIT:          0 MISS:          0
cpu0_DTLB WRITE        ACCESS:          0 HIT:          0 MISS:          0
cpu0_DTLB TRANSLATION  ACCESS:          0 HIT:          0 MISS:          0
cpu0_DTLB PREFETCH REQUESTED:          0 ISSUED:          0 USEFUL:          0 USELESS:          0
cpu0_DTLB AVERAGE MISS LATENCY: 89.02 cycles
cpu0_ITLB TOTAL        ACCESS:          0 HIT:          0 MISS:          0
cpu0_ITLB LOAD         ACCESS:          0 HIT:          0 MISS:          0
cpu0_ITLB RFO          ACCESS:          0 HIT:          0 MISS:          0
cpu0_ITLB PREFETCH     ACCESS:          0 HIT:          0 MISS:          0
cpu0_ITLB WRITE        ACCESS:          0 HIT:          0 MISS:          0
cpu0_ITLB TRANSLATION  ACCESS:          0 HIT:          0 MISS:          0
cpu0_ITLB PREFETCH REQUESTED:          0 ISSUED:          0 USEFUL:          0 USELESS:          0
cpu0_ITLB AVERAGE MISS LATENCY: -nan cycles
cpu0_ITLB TOTAL        ACCESS:          0 HIT:          0 MISS:          0
cpu0_ITLB LOAD         ACCESS:          0 HIT:          0 MISS:          0
cpu0_ITLB RFO          ACCESS:          0 HIT:          0 MISS:          0
cpu0_ITLB PREFETCH     ACCESS:          0 HIT:          0 MISS:          0
cpu0_ITLB WRITE        ACCESS:          0 HIT:          0 MISS:          0
cpu0_ITLB TRANSLATION  ACCESS:          0 HIT:          0 MISS:          0
cpu0_ITLB PREFETCH REQUESTED:          0 ISSUED:          0 USEFUL:          0 USELESS:          0
cpu0_ITLB AVERAGE MISS LATENCY: -nan cycles
cpu0_ITLB TOTAL        ACCESS:          0 HIT:          0 MISS:          0
cpu0_ITLB LOAD         ACCESS:          0 HIT:          0 MISS:          0
cpu0_ITLB RFO          ACCESS:          0 HIT:          0 MISS:          0
cpu0_ITLB PREFETCH     ACCESS:          0 HIT:          0 MISS:          0
cpu0_ITLB WRITE        ACCESS:          0 HIT:          0 MISS:          0
cpu0_ITLB TRANSLATION  ACCESS:          0 HIT:          0 MISS:          0
cpu0_ITLB PREFETCH REQUESTED:          0 ISSUED:          0 USEFUL:          0 USELESS:          0
cpu0_ITLB AVERAGE MISS LATENCY: -nan cycles
cpu0_ITLB TOTAL        ACCESS:          0 HIT:          0 MISS:          0
cpu0_ITLB LOAD         ACCESS:          0 HIT:          0 MISS:          0
cpu0_ITLB RFO          ACCESS:          0 HIT:          0 MISS:          0
cpu0_ITLB PREFETCH     ACCESS:          0 HIT:          0 MISS:          0
cpu0_ITLB WRITE        ACCESS:          0 HIT:          0 MISS:          0
cpu0_ITLB TRANSLATION  ACCESS:          0 HIT:          0 MISS:          0
cpu0_ITLB PREFETCH REQUESTED:          0 ISSUED:          0 USEFUL:          0 USELESS:          0
cpu0_ITLB AVERAGE MISS LATENCY: -nan cycles
cpu0_L1D TOTAL        ACCESS:   32824543 HIT:   19055339 MISS:   13769204
cpu0_L1D LOAD         ACCESS:    5227484 HIT:    2932148 MISS:    2295336
cpu0_L1D RFO          ACCESS:          0 HIT:          0 MISS:          0
cpu0_L1D PREFETCH     ACCESS:          0 HIT:          0 MISS:          0
cpu0_L1D WRITE        ACCESS:   27484699 HIT:   16122874 MISS:   11361825
cpu0_L1D TRANSLATION  ACCESS:     112360 HIT:        317 MISS:     112043
cpu0_L1D PREFETCH REQUESTED:          0 ISSUED:          0 USEFUL:          0 USELESS:          0
cpu0_L1D AVERAGE MISS LATENCY: 2110 cycles
cpu0_L1D TOTAL        ACCESS:          0 HIT:          0 MISS:          0
cpu0_L1D LOAD         ACCESS:          0 HIT:          0 MISS:          0
cpu0_L1D RFO          ACCESS:          0 HIT:          0 MISS:          0
cpu0_L1D PREFETCH     ACCESS:          0 HIT:          0 MISS:          0
cpu0_L1D WRITE        ACCESS:          0 HIT:          0 MISS:          0
cpu0_L1D TRANSLATION  ACCESS:          0 HIT:          0 MISS:          0
cpu0_L1D PREFETCH REQUESTED:          0 ISSUED:          0 USEFUL:          0 USELESS:          0
cpu0_L1D AVERAGE MISS LATENCY: 2110 cycles
cpu0_L1D TOTAL        ACCESS:          0 HIT:          0 MISS:          0
cpu0_L1D LOAD         ACCESS:          0 HIT:          0 MISS:          0
cpu0_L1D RFO          ACCESS:          0 HIT:          0 MISS:          0
cpu0_L1D PREFETCH     ACCESS:          0 HIT:          0 MISS:          0
cpu0_L1D WRITE        ACCESS:          0 HIT:          0 MISS:          0
cpu0_L1D TRANSLATION  ACCESS:          0 HIT:          0 MISS:          0
cpu0_L1D PREFETCH REQUESTED:          0 ISSUED:          0 USEFUL:          0 USELESS:          0
cpu0_L1D AVERAGE MISS LATENCY: 2110 cycles
cpu0_L1D TOTAL        ACCESS:          0 HIT:          0 MISS:          0
cpu0_L1D LOAD         ACCESS:          0 HIT:          0 MISS:          0
cpu0_L1D RFO          ACCESS:          0 HIT:          0 MISS:          0
cpu0_L1D PREFETCH     ACCESS:          0 HIT:          0 MISS:          0
cpu0_L1D WRITE        ACCESS:          0 HIT:          0 MISS:          0
cpu0_L1D TRANSLATION  ACCESS:          0 HIT:          0 MISS:          0
cpu0_L1D PREFETCH REQUESTED:          0 ISSUED:          0 USEFUL:          0 USELESS:          0
cpu0_L1D AVERAGE MISS LATENCY: 2110 cycles
cpu0_L1I TOTAL        ACCESS:          0 HIT:          0 MISS:          0
cpu0_L1I LOAD         ACCESS:          0 HIT:          0 MISS:          0
cpu0_L1I RFO          ACCESS:          0 HIT:          0 MISS:          0
cpu0_L1I PREFETCH     ACCESS:          0 HIT:          0 MISS:          0
cpu0_L1I WRITE        ACCESS:          0 HIT:          0 MISS:          0
cpu0_L1I TRANSLATION  ACCESS:          0 HIT:          0 MISS:          0
cpu0_L1I PREFETCH REQUESTED:          0 ISSUED:          0 USEFUL:          0 USELESS:          0
cpu0_L1I AVERAGE MISS LATENCY: -nan cycles
cpu0_L1I TOTAL        ACCESS:          0 HIT:          0 MISS:          0
cpu0_L1I LOAD         ACCESS:          0 HIT:          0 MISS:          0
cpu0_L1I RFO          ACCESS:          0 HIT:          0 MISS:          0
cpu0_L1I PREFETCH     ACCESS:          0 HIT:          0 MISS:          0
cpu0_L1I WRITE        ACCESS:          0 HIT:          0 MISS:          0
cpu0_L1I TRANSLATION  ACCESS:          0 HIT:          0 MISS:          0
cpu0_L1I PREFETCH REQUESTED:          0 ISSUED:          0 USEFUL:          0 USELESS:          0
cpu0_L1I AVERAGE MISS LATENCY: -nan cycles
cpu0_L1I TOTAL        ACCESS:          0 HIT:          0 MISS:          0
cpu0_L1I LOAD         ACCESS:          0 HIT:          0 MISS:          0
cpu0_L1I RFO          ACCESS:          0 HIT:          0 MISS:          0
cpu0_L1I PREFETCH     ACCESS:          0 HIT:          0 MISS:          0
cpu0_L1I WRITE        ACCESS:          0 HIT:          0 MISS:          0
cpu0_L1I TRANSLATION  ACCESS:          0 HIT:          0 MISS:          0
cpu0_L1I PREFETCH REQUESTED:          0 ISSUED:          0 USEFUL:          0 USELESS:          0
cpu0_L1I AVERAGE MISS LATENCY: -nan cycles
cpu0_L1I TOTAL        ACCESS:          0 HIT:          0 MISS:          0
cpu0_L1I LOAD         ACCESS:          0 HIT:          0 MISS:          0
cpu0_L1I RFO          ACCESS:          0 HIT:          0 MISS:          0
cpu0_L1I PREFETCH     ACCESS:          0 HIT:          0 MISS:          0
cpu0_L1I WRITE        ACCESS:          0 HIT:          0 MISS:          0
cpu0_L1I TRANSLATION  ACCESS:          0 HIT:          0 MISS:          0
cpu0_L1I PREFETCH REQUESTED:          0 ISSUED:          0 USEFUL:          0 USELESS:          0
cpu0_L1I AVERAGE MISS LATENCY: -nan cycles
cpu0_L2C TOTAL        ACCESS:   29479986 HIT:   17736697 MISS:   11743289
cpu0_L2C LOAD         ACCESS:    1795700 HIT:     904047 MISS:     891653
cpu0_L2C RFO          ACCESS:   10141736 HIT:    4805590 MISS:    5336146
cpu0_L2C PREFETCH     ACCESS:    7288249 HIT:    1773577 MISS:    5514672
cpu0_L2C WRITE        ACCESS:   10142258 HIT:   10142258 MISS:          0
cpu0_L2C TRANSLATION  ACCESS:     112043 HIT:     111225 MISS:        818
cpu0_L2C PREFETCH REQUESTED:    7327307 ISSUED:    7288249 USEFUL:    1311450 USELESS:      76991
cpu0_L2C AVERAGE MISS LATENCY: 3127 cycles
cpu0_L2C TOTAL        ACCESS:          0 HIT:          0 MISS:          0
cpu0_L2C LOAD         ACCESS:          0 HIT:          0 MISS:          0
cpu0_L2C RFO          ACCESS:          0 HIT:          0 MISS:          0
cpu0_L2C PREFETCH     ACCESS:          0 HIT:          0 MISS:          0
cpu0_L2C WRITE        ACCESS:          0 HIT:          0 MISS:          0
cpu0_L2C TRANSLATION  ACCESS:          0 HIT:          0 MISS:          0
cpu0_L2C PREFETCH REQUESTED:    7327307 ISSUED:    7288249 USEFUL:    1311450 USELESS:      76991
cpu0_L2C AVERAGE MISS LATENCY: 3127 cycles
cpu0_L2C TOTAL        ACCESS:          0 HIT:          0 MISS:          0
cpu0_L2C LOAD         ACCESS:          0 HIT:          0 MISS:          0
cpu0_L2C RFO          ACCESS:          0 HIT:          0 MISS:          0
cpu0_L2C PREFETCH     ACCESS:          0 HIT:          0 MISS:          0
cpu0_L2C WRITE        ACCESS:          0 HIT:          0 MISS:          0
cpu0_L2C TRANSLATION  ACCESS:          0 HIT:          0 MISS:          0
cpu0_L2C PREFETCH REQUESTED:    7327307 ISSUED:    7288249 USEFUL:    1311450 USELESS:      76991
cpu0_L2C AVERAGE MISS LATENCY: 3127 cycles
cpu0_L2C TOTAL        ACCESS:          0 HIT:          0 MISS:          0
cpu0_L2C LOAD         ACCESS:          0 HIT:          0 MISS:          0
cpu0_L2C RFO          ACCESS:          0 HIT:          0 MISS:          0
cpu0_L2C PREFETCH     ACCESS:          0 HIT:          0 MISS:          0
cpu0_L2C WRITE        ACCESS:          0 HIT:          0 MISS:          0
cpu0_L2C TRANSLATION  ACCESS:          0 HIT:          0 MISS:          0
cpu0_L2C PREFETCH REQUESTED:    7327307 ISSUED:    7288249 USEFUL:    1311450 USELESS:      76991
cpu0_L2C AVERAGE MISS LATENCY: 3127 cycles
cpu0_STLB TOTAL        ACCESS:     206875 HIT:      94624 MISS:     112251
cpu0_STLB LOAD         ACCESS:     206875 HIT:      94624 MISS:     112251
cpu0_STLB RFO          ACCESS:          0 HIT:          0 MISS:          0
cpu0_STLB PREFETCH     ACCESS:          0 HIT:          0 MISS:          0
cpu0_STLB WRITE        ACCESS:          0 HIT:          0 MISS:          0
cpu0_STLB TRANSLATION  ACCESS:          0 HIT:          0 MISS:          0
cpu0_STLB PREFETCH REQUESTED:          0 ISSUED:          0 USEFUL:          0 USELESS:          0
cpu0_STLB AVERAGE MISS LATENCY: 311.6 cycles
cpu0_STLB TOTAL        ACCESS:          0 HIT:          0 MISS:          0
cpu0_STLB LOAD         ACCESS:          0 HIT:          0 MISS:          0
cpu0_STLB RFO          ACCESS:          0 HIT:          0 MISS:          0
cpu0_STLB PREFETCH     ACCESS:          0 HIT:          0 MISS:          0
cpu0_STLB WRITE        ACCESS:          0 HIT:          0 MISS:          0
cpu0_STLB TRANSLATION  ACCESS:          0 HIT:          0 MISS:          0
cpu0_STLB PREFETCH REQUESTED:          0 ISSUED:          0 USEFUL:          0 USELESS:          0
cpu0_STLB AVERAGE MISS LATENCY: 311.6 cycles
cpu0_STLB TOTAL        ACCESS:          0 HIT:          0 MISS:          0
cpu0_STLB LOAD         ACCESS:          0 HIT:          0 MISS:          0
cpu0_STLB RFO          ACCESS:          0 HIT:          0 MISS:          0
cpu0_STLB PREFETCH     ACCESS:          0 HIT:          0 MISS:          0
cpu0_STLB WRITE        ACCESS:          0 HIT:          0 MISS:          0
cpu0_STLB TRANSLATION  ACCESS:          0 HIT:          0 MISS:          0
cpu0_STLB PREFETCH REQUESTED:          0 ISSUED:          0 USEFUL:          0 USELESS:          0
cpu0_STLB AVERAGE MISS LATENCY: 311.6 cycles
cpu0_STLB TOTAL        ACCESS:          0 HIT:          0 MISS:          0
cpu0_STLB LOAD         ACCESS:          0 HIT:          0 MISS:          0
cpu0_STLB RFO          ACCESS:          0 HIT:          0 MISS:          0
cpu0_STLB PREFETCH     ACCESS:          0 HIT:          0 MISS:          0
cpu0_STLB WRITE        ACCESS:          0 HIT:          0 MISS:          0
cpu0_STLB TRANSLATION  ACCESS:          0 HIT:          0 MISS:          0
cpu0_STLB PREFETCH REQUESTED:          0 ISSUED:          0 USEFUL:          0 USELESS:          0
cpu0_STLB AVERAGE MISS LATENCY: 311.6 cycles
cpu1_DTLB TOTAL        ACCESS:          0 HIT:          0 MISS:          0
cpu1_DTLB LOAD         ACCESS:          0 HIT:          0 MISS:          0
cpu1_DTLB RFO          ACCESS:          0 HIT:          0 MISS:          0
cpu1_DTLB PREFETCH     ACCESS:          0 HIT:          0 MISS:          0
cpu1_DTLB WRITE        ACCESS:          0 HIT:          0 MISS:          0
cpu1_DTLB TRANSLATION  ACCESS:          0 HIT:          0 MISS:          0
cpu1_DTLB PREFETCH REQUESTED:          0 ISSUED:          0 USEFUL:          0 USELESS:          0
cpu1_DTLB AVERAGE MISS LATENCY: 13.24 cycles
cpu1_DTLB TOTAL        ACCESS:   73600628 HIT:   43201624 MISS:   30399004
cpu1_DTLB LOAD         ACCESS:   73600628 HIT:   43201624 MISS:   30399004
cpu1_DTLB RFO          ACCESS:          0 HIT:          0 MISS:          0
cpu1_DTLB PREFETCH     ACCESS:          0 HIT:          0 MISS:          0
cpu1_DTLB WRITE        ACCESS:          0 HIT:          0 MISS:          0
cpu1_DTLB TRANSLATION  ACCESS:          0 HIT:          0 MISS:          0
cpu1_DTLB PREFETCH REQUESTED:          0 ISSUED:          0 USEFUL:          0 USELESS:          0
cpu1_DTLB AVERAGE MISS LATENCY: 13.24 cycles
cpu1_DTLB TOTAL        ACCESS:          0 HIT:          0 MISS:          0
cpu1_DTLB LOAD         ACCESS:          0 HIT:          0 MISS:          0
cpu1_DTLB RFO          ACCESS:          0 HIT:          0 MISS:          0
cpu1_DTLB PREFETCH     ACCESS:          0 HIT:          0 MISS:          0
cpu1_DTLB WRITE        ACCESS:          0 HIT:          0 MISS:          0
cpu1_DTLB TRANSLATION  ACCESS:          0 HIT:          0 MISS:          0
cpu1_DTLB PREFETCH REQUESTED:          0 ISSUED:          0 USEFUL:          0 USELESS:          0
cpu1_DTLB AVERAGE MISS LATENCY: 13.24 cycles
cpu1_DTLB TOTAL        ACCESS:          0 HIT:          0 MISS:          0
cpu1_DTLB LOAD         ACCESS:          0 HIT:          0 MISS:          0
cpu1_DTLB RFO          ACCESS:          0 HIT:          0 MISS:          0
cpu1_DTLB PREFETCH     ACCESS:          0 HIT:          0 MISS:          0
cpu1_DTLB WRITE        ACCESS:          0 HIT:          0 MISS:          0
cpu1_DTLB TRANSLATION  ACCESS:          0 HIT:          0 MISS:          0
cpu1_DTLB PREFETCH REQUESTED:          0 ISSUED:          0 USEFUL:          0 USELESS:          0
cpu1_DTLB AVERAGE MISS LATENCY: 13.24 cycles
cpu1_ITLB TOTAL        ACCESS:          0 HIT:          0 MISS:          0
cpu1_ITLB LOAD         ACCESS:          0 HIT:          0 MISS:          0
cpu1_ITLB RFO          ACCESS:          0 HIT:          0 MISS:          0
cpu1_ITLB PREFETCH     ACCESS:          0 HIT:          0 MISS:          0
cpu1_ITLB WRITE        ACCESS:          0 HIT:          0 MISS:          0
cpu1_ITLB TRANSLATION  ACCESS:          0 HIT:          0 MISS:          0
cpu1_ITLB PREFETCH REQUESTED:          0 ISSUED:          0 USEFUL:          0 USELESS:          0
cpu1_ITLB AVERAGE MISS LATENCY: 1718 cycles
cpu1_ITLB TOTAL        ACCESS:   45295798 HIT:   45295713 MISS:         85
cpu1_ITLB LOAD         ACCESS:   45295798 HIT:   45295713 MISS:         85
cpu1_ITLB RFO          ACCESS:          0 HIT:          0 MISS:          0
cpu1_ITLB PREFETCH     ACCESS:          0 HIT:          0 MISS:          0
cpu1_ITLB WRITE        ACCESS:          0 HIT:          0 MISS:          0
cpu1_ITLB TRANSLATION  ACCESS:          0 HIT:          0 MISS:          0
cpu1_ITLB PREFETCH REQUESTED:          0 ISSUED:          0 USEFUL:          0 USELESS:          0
cpu1_ITLB AVERAGE MISS LATENCY: 1718 cycles
cpu1_ITLB TOTAL        ACCESS:          0 HIT:          0 MISS:          0
cpu1_ITLB LOAD         ACCESS:          0 HIT:          0 MISS:          0
cpu1_ITLB RFO          ACCESS:          0 HIT:          0 MISS:          0
cpu1_ITLB PREFETCH     ACCESS:          0 HIT:          0 MISS:          0
cpu1_ITLB WRITE        ACCESS:          0 HIT:          0 MISS:          0
cpu1_ITLB TRANSLATION  ACCESS:          0 HIT:          0 MISS:          0
cpu1_ITLB PREFETCH REQUESTED:          0 ISSUED:          0 USEFUL:          0 USELESS:          0
cpu1_ITLB AVERAGE MISS LATENCY: 1718 cycles
cpu1_ITLB TOTAL        ACCESS:          0 HIT:          0 MISS:          0
cpu1_ITLB LOAD         ACCESS:          0 HIT:          0 MISS:          0
cpu1_ITLB RFO          ACCESS:          0 HIT:          0 MISS:          0
cpu1_ITLB PREFETCH     ACCESS:          0 HIT:          0 MISS:          0
cpu1_ITLB WRITE        ACCESS:          0 HIT:          0 MISS:          0
cpu1_ITLB TRANSLATION  ACCESS:          0 HIT:          0 MISS:          0
cpu1_ITLB PREFETCH REQUESTED:          0 ISSUED:          0 USEFUL:          0 USELESS:          0
cpu1_ITLB AVERAGE MISS LATENCY: 1718 cycles
cpu1_L1D TOTAL        ACCESS:          0 HIT:          0 MISS:          0
cpu1_L1D LOAD         ACCESS:          0 HIT:          0 MISS:          0
cpu1_L1D RFO          ACCESS:          0 HIT:          0 MISS:          0
cpu1_L1D PREFETCH     ACCESS:          0 HIT:          0 MISS:          0
cpu1_L1D WRITE        ACCESS:          0 HIT:          0 MISS:          0
cpu1_L1D TRANSLATION  ACCESS:          0 HIT:          0 MISS:          0
cpu1_L1D PREFETCH REQUESTED:          0 ISSUED:          0 USEFUL:          0 USELESS:          0
cpu1_L1D AVERAGE MISS LATENCY: 420.9 cycles
cpu1_L1D TOTAL        ACCESS:   90862089 HIT:   50484147 MISS:   40377942
cpu1_L1D LOAD         ACCESS:   51068953 HIT:   12842487 MISS:   38226466
cpu1_L1D RFO          ACCESS:          0 HIT:          0 MISS:          0
cpu1_L1D PREFETCH     ACCESS:          0 HIT:          0 MISS:          0
cpu1_L1D WRITE        ACCESS:   39726822 HIT:   37641052 MISS:    2085770
cpu1_L1D TRANSLATION  ACCESS:      66314 HIT:        608 MISS:      65706
cpu1_L1D PREFETCH REQUESTED:          0 ISSUED:          0 USEFUL:          0 USELESS:          0
cpu1_L1D AVERAGE MISS LATENCY: 420.9 cycles
cpu1_L1D TOTAL        ACCESS:          0 HIT:          0 MISS:          0
cpu1_L1D LOAD         ACCESS:          0 HIT:          0 MISS:          0
cpu1_L1D RFO          ACCESS:          0 HIT:          0 MISS:          0
cpu1_L1D PREFETCH     ACCESS:          0 HIT:          0 MISS:          0
cpu1_L1D WRITE        ACCESS:          0 HIT:          0 MISS:          0
cpu1_L1D TRANSLATION  ACCESS:          0 HIT:          0 MISS:          0
cpu1_L1D PREFETCH REQUESTED:          0 ISSUED:          0 USEFUL:          0 USELESS:          0
cpu1_L1D AVERAGE MISS LATENCY: 420.9 cycles
cpu1_L1D TOTAL        ACCESS:          0 HIT:          0 MISS:          0
cpu1_L1D LOAD         ACCESS:          0 HIT:          0 MISS:          0
cpu1_L1D RFO          ACCESS:          0 HIT:          0 MISS:          0
cpu1_L1D PREFETCH     ACCESS:          0 HIT:          0 MISS:          0
cpu1_L1D WRITE        ACCESS:          0 HIT:          0 MISS:          0
cpu1_L1D TRANSLATION  ACCESS:          0 HIT:          0 MISS:          0
cpu1_L1D PREFETCH REQUESTED:          0 ISSUED:          0 USEFUL:          0 USELESS:          0
cpu1_L1D AVERAGE MISS LATENCY: 420.9 cycles
cpu1_L1I TOTAL        ACCESS:          0 HIT:          0 MISS:          0
cpu1_L1I LOAD         ACCESS:          0 HIT:          0 MISS:          0
cpu1_L1I RFO          ACCESS:          0 HIT:          0 MISS:          0
cpu1_L1I PREFETCH     ACCESS:          0 HIT:          0 MISS:          0
cpu1_L1I WRITE        ACCESS:          0 HIT:          0 MISS:          0
cpu1_L1I TRANSLATION  ACCESS:          0 HIT:          0 MISS:          0
cpu1_L1I PREFETCH REQUESTED:          0 ISSUED:          0 USEFUL:          0 USELESS:          0
cpu1_L1I AVERAGE MISS LATENCY: 47.23 cycles
cpu1_L1I TOTAL        ACCESS:   58990332 HIT:   58914909 MISS:      75423
cpu1_L1I LOAD         ACCESS:   58990332 HIT:   58914909 MISS:      75423
cpu1_L1I RFO          ACCESS:          0 HIT:          0 MISS:          0
cpu1_L1I PREFETCH     ACCESS:          0 HIT:          0 MISS:          0
cpu1_L1I WRITE        ACCESS:          0 HIT:          0 MISS:          0
cpu1_L1I TRANSLATION  ACCESS:          0 HIT:          0 MISS:          0
cpu1_L1I PREFETCH REQUESTED:          0 ISSUED:          0 USEFUL:          0 USELESS:          0
cpu1_L1I AVERAGE MISS LATENCY: 47.23 cycles
cpu1_L1I TOTAL        ACCESS:          0 HIT:          0 MISS:          0
cpu1_L1I LOAD         ACCESS:          0 HIT:          0 MISS:          0
cpu1_L1I RFO          ACCESS:          0 HIT:          0 MISS:          0
cpu1_L1I PREFETCH     ACCESS:          0 HIT:          0 MISS:          0
cpu1_L1I WRITE        ACCESS:          0 HIT:          0 MISS:          0
cpu1_L1I TRANSLATION  ACCESS:          0 HIT:          0 MISS:          0
cpu1_L1I PREFETCH REQUESTED:          0 ISSUED:          0 USEFUL:          0 USELESS:          0
cpu1_L1I AVERAGE MISS LATENCY: 47.23 cycles
cpu1_L1I TOTAL        ACCESS:          0 HIT:          0 MISS:          0
cpu1_L1I LOAD         ACCESS:          0 HIT:          0 MISS:          0
cpu1_L1I RFO          ACCESS:          0 HIT:          0 MISS:          0
cpu1_L1I PREFETCH     ACCESS:          0 HIT:          0 MISS:          0
cpu1_L1I WRITE        ACCESS:          0 HIT:          0 MISS:          0
cpu1_L1I TRANSLATION  ACCESS:          0 HIT:          0 MISS:          0
cpu1_L1I PREFETCH REQUESTED:          0 ISSUED:          0 USEFUL:          0 USELESS:          0
cpu1_L1I AVERAGE MISS LATENCY: 47.23 cycles
cpu1_L2C TOTAL        ACCESS:          0 HIT:          0 MISS:          0
cpu1_L2C LOAD         ACCESS:          0 HIT:          0 MISS:          0
cpu1_L2C RFO          ACCESS:          0 HIT:          0 MISS:          0
cpu1_L2C PREFETCH     ACCESS:          0 HIT:          0 MISS:          0
cpu1_L2C WRITE        ACCESS:          0 HIT:          0 MISS:          0
cpu1_L2C TRANSLATION  ACCESS:          0 HIT:          0 MISS:          0
cpu1_L2C PREFETCH REQUESTED:     371617 ISSUED:     371617 USEFUL:      24109 USELESS:       3077
cpu1_L2C AVERAGE MISS LATENCY: 4562 cycles
cpu1_L2C TOTAL        ACCESS:   42851384 HIT:   39163074 MISS:    3688310
cpu1_L2C LOAD         ACCESS:   37866345 HIT:   34270462 MISS:    3595883
cpu1_L2C RFO          ACCESS:    1554768 HIT:    1542984 MISS:      11784
cpu1_L2C PREFETCH     ACCESS:     371617 HIT:     344146 MISS:      27471
cpu1_L2C WRITE        ACCESS:    2993032 HIT:    2993031 MISS:          1
cpu1_L2C TRANSLATION  ACCESS:      65622 HIT:      12451 MISS:      53171
cpu1_L2C PREFETCH REQUESTED:     371617 ISSUED:     371617 USEFUL:      24109 USELESS:       3077
cpu1_L2C AVERAGE MISS LATENCY: 4562 cycles
cpu1_L2C TOTAL        ACCESS:          0 HIT:          0 MISS:          0
cpu1_L2C LOAD         ACCESS:          0 HIT:          0 MISS:          0
cpu1_L2C RFO          ACCESS:          0 HIT:          0 MISS:          0
cpu1_L2C PREFETCH     ACCESS:          0 HIT:          0 MISS:          0
cpu1_L2C WRITE        ACCESS:          0 HIT:          0 MISS:          0
cpu1_L2C TRANSLATION  ACCESS:          0 HIT:          0 MISS:          0
cpu1_L2C PREFETCH REQUESTED:     371617 ISSUED:     371617 USEFUL:      24109 USELESS:       3077
cpu1_L2C AVERAGE MISS LATENCY: 4562 cycles
cpu1_L2C TOTAL        ACCESS:          0 HIT:          0 MISS:          0
cpu1_L2C LOAD         ACCESS:          0 HIT:          0 MISS:          0
cpu1_L2C RFO          ACCESS:          0 HIT:          0 MISS:          0
cpu1_L2C PREFETCH     ACCESS:          0 HIT:          0 MISS:          0
cpu1_L2C WRITE        ACCESS:          0 HIT:          0 MISS:          0
cpu1_L2C TRANSLATION  ACCESS:          0 HIT:          0 MISS:          0
cpu1_L2C PREFETCH REQUESTED:     371617 ISSUED:     371617 USEFUL:      24109 USELESS:       3077
cpu1_L2C AVERAGE MISS LATENCY: 4562 cycles
cpu1_STLB TOTAL        ACCESS:          0 HIT:          0 MISS:          0
cpu1_STLB LOAD         ACCESS:          0 HIT:          0 MISS:          0
cpu1_STLB RFO          ACCESS:          0 HIT:          0 MISS:          0
cpu1_STLB PREFETCH     ACCESS:          0 HIT:          0 MISS:          0
cpu1_STLB WRITE        ACCESS:          0 HIT:          0 MISS:          0
cpu1_STLB TRANSLATION  ACCESS:          0 HIT:          0 MISS:          0
cpu1_STLB PREFETCH REQUESTED:          0 ISSUED:          0 USEFUL:          0 USELESS:          0
cpu1_STLB AVERAGE MISS LATENCY: 5168 cycles
cpu1_STLB TOTAL        ACCESS:   26204140 HIT:   26161645 MISS:      42495
cpu1_STLB LOAD         ACCESS:   26204140 HIT:   26161645 MISS:      42495
cpu1_STLB RFO          ACCESS:          0 HIT:          0 MISS:          0
cpu1_STLB PREFETCH     ACCESS:          0 HIT:          0 MISS:          0
cpu1_STLB WRITE        ACCESS:          0 HIT:          0 MISS:          0
cpu1_STLB TRANSLATION  ACCESS:          0 HIT:          0 MISS:          0
cpu1_STLB PREFETCH REQUESTED:          0 ISSUED:          0 USEFUL:          0 USELESS:          0
cpu1_STLB AVERAGE MISS LATENCY: 5168 cycles
cpu1_STLB TOTAL        ACCESS:          0 HIT:          0 MISS:          0
cpu1_STLB LOAD         ACCESS:          0 HIT:          0 MISS:          0
cpu1_STLB RFO          ACCESS:          0 HIT:          0 MISS:          0
cpu1_STLB PREFETCH     ACCESS:          0 HIT:          0 MISS:          0
cpu1_STLB WRITE        ACCESS:          0 HIT:          0 MISS:          0
cpu1_STLB TRANSLATION  ACCESS:          0 HIT:          0 MISS:          0
cpu1_STLB PREFETCH REQUESTED:          0 ISSUED:          0 USEFUL:          0 USELESS:          0
cpu1_STLB AVERAGE MISS LATENCY: 5168 cycles
cpu1_STLB TOTAL        ACCESS:          0 HIT:          0 MISS:          0
cpu1_STLB LOAD         ACCESS:          0 HIT:          0 MISS:          0
cpu1_STLB RFO          ACCESS:          0 HIT:          0 MISS:          0
cpu1_STLB PREFETCH     ACCESS:          0 HIT:          0 MISS:          0
cpu1_STLB WRITE        ACCESS:          0 HIT:          0 MISS:          0
cpu1_STLB TRANSLATION  ACCESS:          0 HIT:          0 MISS:          0
cpu1_STLB PREFETCH REQUESTED:          0 ISSUED:          0 USEFUL:          0 USELESS:          0
cpu1_STLB AVERAGE MISS LATENCY: 5168 cycles
cpu2_DTLB TOTAL        ACCESS:          0 HIT:          0 MISS:          0
cpu2_DTLB LOAD         ACCESS:          0 HIT:          0 MISS:          0
cpu2_DTLB RFO          ACCESS:          0 HIT:          0 MISS:          0
cpu2_DTLB PREFETCH     ACCESS:          0 HIT:          0 MISS:          0
cpu2_DTLB WRITE        ACCESS:          0 HIT:          0 MISS:          0
cpu2_DTLB TRANSLATION  ACCESS:          0 HIT:          0 MISS:          0
cpu2_DTLB PREFETCH REQUESTED:          0 ISSUED:          0 USEFUL:          0 USELESS:          0
cpu2_DTLB AVERAGE MISS LATENCY: 49.16 cycles
cpu2_DTLB TOTAL        ACCESS:          0 HIT:          0 MISS:          0
cpu2_DTLB LOAD         ACCESS:          0 HIT:          0 MISS:          0
cpu2_DTLB RFO          ACCESS:          0 HIT:          0 MISS:          0
cpu2_DTLB PREFETCH     ACCESS:          0 HIT:          0 MISS:          0
cpu2_DTLB WRITE        ACCESS:          0 HIT:          0 MISS:          0
cpu2_DTLB TRANSLATION  ACCESS:          0 HIT:          0 MISS:          0
cpu2_DTLB PREFETCH REQUESTED:          0 ISSUED:          0 USEFUL:          0 USELESS:          0
cpu2_DTLB AVERAGE MISS LATENCY: 49.16 cycles
cpu2_DTLB TOTAL        ACCESS:   93871777 HIT:   92889686 MISS:     982091
cpu2_DTLB LOAD         ACCESS:   93871777 HIT:   92889686 MISS:     982091
cpu2_DTLB RFO          ACCESS:          0 HIT:          0 MISS:          0
cpu2_DTLB PREFETCH     ACCESS:          0 HIT:          0 MISS:          0
cpu2_DTLB WRITE        ACCESS:          0 HIT:          0 MISS:          0
cpu2_DTLB TRANSLATION  ACCESS:          0 HIT:          0 MISS:          0
cpu2_DTLB PREFETCH REQUESTED:          0 ISSUED:          0 USEFUL:          0 USELESS:          0
cpu2_DTLB AVERAGE MISS LATENCY: 49.16 cycles
cpu2_DTLB TOTAL        ACCESS:          0 HIT:          0 MISS:          0
cpu2_DTLB LOAD         ACCESS:          0 HIT:          0 MISS:          0
cpu2_DTLB RFO          ACCESS:          0 HIT:          0 MISS:          0
cpu2_DTLB PREFETCH     ACCESS:          0 HIT:          0 MISS:          0
cpu2_DTLB WRITE        ACCESS:          0 HIT:          0 MISS:          0
cpu2_DTLB TRANSLATION  ACCESS:          0 HIT:          0 MISS:          0
cpu2_DTLB PREFETCH REQUESTED:          0 ISSUED:          0 USEFUL:          0 USELESS:          0
cpu2_DTLB AVERAGE MISS LATENCY: 49.16 cycles
cpu2_ITLB TOTAL        ACCESS:          0 HIT:          0 MISS:          0
cpu2_ITLB LOAD         ACCESS:          0 HIT:          0 MISS:          0
cpu2_ITLB RFO          ACCESS:          0 HIT:          0 MISS:          0
cpu2_ITLB PREFETCH     ACCESS:          0 HIT:          0 MISS:          0
cpu2_ITLB WRITE        ACCESS:          0 HIT:          0 MISS:          0
cpu2_ITLB TRANSLATION  ACCESS:          0 HIT:          0 MISS:          0
cpu2_ITLB PREFETCH REQUESTED:          0 ISSUED:          0 USEFUL:          0 USELESS:          0
cpu2_ITLB AVERAGE MISS LATENCY: 414.9 cycles
cpu2_ITLB TOTAL        ACCESS:          0 HIT:          0 MISS:          0
cpu2_ITLB LOAD         ACCESS:          0 HIT:          0 MISS:          0
cpu2_ITLB RFO          ACCESS:          0 HIT:          0 MISS:          0
cpu2_ITLB PREFETCH     ACCESS:          0 HIT:          0 MISS:          0
cpu2_ITLB WRITE        ACCESS:          0 HIT:          0 MISS:          0
cpu2_ITLB TRANSLATION  ACCESS:          0 HIT:          0 MISS:          0
cpu2_ITLB PREFETCH REQUESTED:          0 ISSUED:          0 USEFUL:          0 USELESS:          0
cpu2_ITLB AVERAGE MISS LATENCY: 414.9 cycles
cpu2_ITLB TOTAL        ACCESS:   13143436 HIT:   13127966 MISS:      15470
cpu2_ITLB LOAD         ACCESS:   13143436 HIT:   13127966 MISS:      15470
cpu2_ITLB RFO          ACCESS:          0 HIT:          0 MISS:          0
cpu2_ITLB PREFETCH     ACCESS:          0 HIT:          0 MISS:          0
cpu2_ITLB WRITE        ACCESS:          0 HIT:          0 MISS:          0
cpu2_ITLB TRANSLATION  ACCESS:          0 HIT:          0 MISS:          0
cpu2_ITLB PREFETCH REQUESTED:          0 ISSUED:          0 USEFUL:          0 USELESS:          0
cpu2_ITLB AVERAGE MISS LATENCY: 414.9 cycles
cpu2_ITLB TOTAL        ACCESS:          0 HIT:          0 MISS:          0
cpu2_ITLB LOAD         ACCESS:          0 HIT:          0 MISS:          0
cpu2_ITLB RFO          ACCESS:          0 HIT:          0 MISS:          0
cpu2_ITLB PREFETCH     ACCESS:          0 HIT:          0 MISS:          0
cpu2_ITLB WRITE        ACCESS:          0 HIT:          0 MISS:          0
cpu2_ITLB TRANSLATION  ACCESS:          0 HIT:          0 MISS:          0
cpu2_ITLB PREFETCH REQUESTED:          0 ISSUED:          0 USEFUL:          0 USELESS:          0
cpu2_ITLB AVERAGE MISS LATENCY: 414.9 cycles
cpu2_L1D TOTAL        ACCESS:          0 HIT:          0 MISS:          0
cpu2_L1D LOAD         ACCESS:          0 HIT:          0 MISS:          0
cpu2_L1D RFO          ACCESS:          0 HIT:          0 MISS:          0
cpu2_L1D PREFETCH     ACCESS:          0 HIT:          0 MISS:          0
cpu2_L1D WRITE        ACCESS:          0 HIT:          0 MISS:          0
cpu2_L1D TRANSLATION  ACCESS:          0 HIT:          0 MISS:          0
cpu2_L1D PREFETCH REQUESTED:          0 ISSUED:          0 USEFUL:          0 USELESS:          0
cpu2_L1D AVERAGE MISS LATENCY: 1157 cycles
cpu2_L1D TOTAL        ACCESS:          0 HIT:          0 MISS:          0
cpu2_L1D LOAD         ACCESS:          0 HIT:          0 MISS:          0
cpu2_L1D RFO          ACCESS:          0 HIT:          0 MISS:          0
cpu2_L1D PREFETCH     ACCESS:          0 HIT:          0 MISS:          0
cpu2_L1D WRITE        ACCESS:          0 HIT:          0 MISS:          0
cpu2_L1D TRANSLATION  ACCESS:          0 HIT:          0 MISS:          0
cpu2_L1D PREFETCH REQUESTED:          0 ISSUED:          0 USEFUL:          0 USELESS:          0
cpu2_L1D AVERAGE MISS LATENCY: 1157 cycles
cpu2_L1D TOTAL        ACCESS:  124551147 HIT:  104565078 MISS:   19986069
cpu2_L1D LOAD         ACCESS:   59872148 HIT:   56800436 MISS:    3071712
cpu2_L1D RFO          ACCESS:          0 HIT:          0 MISS:          0
cpu2_L1D PREFETCH     ACCESS:          0 HIT:          0 MISS:          0
cpu2_L1D WRITE        ACCESS:   64609927 HIT:   47711504 MISS:   16898423
cpu2_L1D TRANSLATION  ACCESS:      69072 HIT:      53138 MISS:      15934
cpu2_L1D PREFETCH REQUESTED:          0 ISSUED:          0 USEFUL:          0 USELESS:          0
cpu2_L1D AVERAGE MISS LATENCY: 1157 cycles
cpu2_L1D TOTAL        ACCESS:          0 HIT:          0 MISS:          0
cpu2_L1D LOAD         ACCESS:          0 HIT:          0 MISS:          0
cpu2_L1D RFO          ACCESS:          0 HIT:          0 MISS:          0
cpu2_L1D PREFETCH     ACCESS:          0 HIT:          0 MISS:          0
cpu2_L1D WRITE        ACCESS:          0 HIT:          0 MISS:          0
cpu2_L1D TRANSLATION  ACCESS:          0 HIT:          0 MISS:          0
cpu2_L1D PREFETCH REQUESTED:          0 ISSUED:          0 USEFUL:          0 USELESS:          0
cpu2_L1D AVERAGE MISS LATENCY: 1157 cycles
cpu2_L1I TOTAL        ACCESS:          0 HIT:          0 MISS:          0
cpu2_L1I LOAD         ACCESS:          0 HIT:          0 MISS:          0
cpu2_L1I RFO          ACCESS:          0 HIT:          0 MISS:          0
cpu2_L1I PREFETCH     ACCESS:          0 HIT:          0 MISS:          0
cpu2_L1I WRITE        ACCESS:          0 HIT:          0 MISS:          0
cpu2_L1I TRANSLATION  ACCESS:          0 HIT:          0 MISS:          0
cpu2_L1I PREFETCH REQUESTED:          0 ISSUED:          0 USEFUL:          0 USELESS:          0
cpu2_L1I AVERAGE MISS LATENCY: 1079 cycles
cpu2_L1I TOTAL        ACCESS:          0 HIT:          0 MISS:          0
cpu2_L1I LOAD         ACCESS:          0 HIT:          0 MISS:          0
cpu2_L1I RFO          ACCESS:          0 HIT:          0 MISS:          0
cpu2_L1I PREFETCH     ACCESS:          0 HIT:          0 MISS:          0
cpu2_L1I WRITE        ACCESS:          0 HIT:          0 MISS:          0
cpu2_L1I TRANSLATION  ACCESS:          0 HIT:          0 MISS:          0
cpu2_L1I PREFETCH REQUESTED:          0 ISSUED:          0 USEFUL:          0 USELESS:          0
cpu2_L1I AVERAGE MISS LATENCY: 1079 cycles
cpu2_L1I TOTAL        ACCESS:   16484073 HIT:   16114541 MISS:     369532
cpu2_L1I LOAD         ACCESS:   16484073 HIT:   16114541 MISS:     369532
cpu2_L1I RFO          ACCESS:          0 HIT:          0 MISS:          0
cpu2_L1I PREFETCH     ACCESS:          0 HIT:          0 MISS:          0
cpu2_L1I WRITE        ACCESS:          0 HIT:          0 MISS:          0
cpu2_L1I TRANSLATION  ACCESS:          0 HIT:          0 MISS:          0
cpu2_L1I PREFETCH REQUESTED:          0 ISSUED:          0 USEFUL:          0 USELESS:          0
cpu2_L1I AVERAGE MISS LATENCY: 1079 cycles
cpu2_L1I TOTAL        ACCESS:          0 HIT:          0 MISS:          0
cpu2_L1I LOAD         ACCESS:          0 HIT:          0 MISS:          0
cpu2_L1I RFO          ACCESS:          0 HIT:          0 MISS:          0
cpu2_L1I PREFETCH     ACCESS:          0 HIT:          0 MISS:          0
cpu2_L1I WRITE        ACCESS:          0 HIT:          0 MISS:          0
cpu2_L1I TRANSLATION  ACCESS:          0 HIT:          0 MISS:          0
cpu2_L1I PREFETCH REQUESTED:          0 ISSUED:          0 USEFUL:          0 USELESS:          0
cpu2_L1I AVERAGE MISS LATENCY: 1079 cycles
cpu2_L2C TOTAL        ACCESS:          0 HIT:          0 MISS:          0
cpu2_L2C LOAD         ACCESS:          0 HIT:          0 MISS:          0
cpu2_L2C RFO          ACCESS:          0 HIT:          0 MISS:          0
cpu2_L2C PREFETCH     ACCESS:          0 HIT:          0 MISS:          0
cpu2_L2C WRITE        ACCESS:          0 HIT:          0 MISS:          0
cpu2_L2C TRANSLATION  ACCESS:          0 HIT:          0 MISS:          0
cpu2_L2C PREFETCH REQUESTED:    1969153 ISSUED:    1535893 USEFUL:      51823 USELESS:      24826
cpu2_L2C AVERAGE MISS LATENCY: 5562 cycles
cpu2_L2C TOTAL        ACCESS:          0 HIT:          0 MISS:          0
cpu2_L2C LOAD         ACCESS:          0 HIT:          0 MISS:          0
cpu2_L2C RFO          ACCESS:          0 HIT:          0 MISS:          0
cpu2_L2C PREFETCH     ACCESS:          0 HIT:          0 MISS:          0
cpu2_L2C WRITE        ACCESS:          0 HIT:          0 MISS:          0
cpu2_L2C TRANSLATION  ACCESS:          0 HIT:          0 MISS:          0
cpu2_L2C PREFETCH REQUESTED:    1969153 ISSUED:    1535893 USEFUL:      51823 USELESS:      24826
cpu2_L2C AVERAGE MISS LATENCY: 5562 cycles
cpu2_L2C TOTAL        ACCESS:   12745479 HIT:    8450907 MISS:    4294572
cpu2_L2C LOAD         ACCESS:    2345034 HIT:    1903745 MISS:     441289
cpu2_L2C RFO          ACCESS:    4278314 HIT:     863299 MISS:    3415015
cpu2_L2C PREFETCH     ACCESS:    1535893 HIT:    1108967 MISS:     426926
cpu2_L2C WRITE        ACCESS:    4570452 HIT:    4570218 MISS:        234
cpu2_L2C TRANSLATION  ACCESS:      15786 HIT:       4678 MISS:      11108
cpu2_L2C PREFETCH REQUESTED:    1969153 ISSUED:    1535893 USEFUL:      51823 USELESS:      24826
cpu2_L2C AVERAGE MISS LATENCY: 5562 cycles
cpu2_L2C TOTAL        ACCESS:          0 HIT:          0 MISS:          0
cpu2_L2C LOAD         ACCESS:          0 HIT:          0 MISS:          0
cpu2_L2C RFO          ACCESS:          0 HIT:          0 MISS:          0
cpu2_L2C PREFETCH     ACCESS:          0 HIT:          0 MISS:          0
cpu2_L2C WRITE        ACCESS:          0 HIT:          0 MISS:          0
cpu2_L2C TRANSLATION  ACCESS:          0 HIT:          0 MISS:          0
cpu2_L2C PREFETCH REQUESTED:    1969153 ISSUED:    1535893 USEFUL:      51823 USELESS:      24826
cpu2_L2C AVERAGE MISS LATENCY: 5562 cycles
cpu2_STLB TOTAL        ACCESS:          0 HIT:          0 MISS:          0
cpu2_STLB LOAD         ACCESS:          0 HIT:          0 MISS:          0
cpu2_STLB RFO          ACCESS:          0 HIT:          0 MISS:          0
cpu2_STLB PREFETCH     ACCESS:          0 HIT:          0 MISS:          0
cpu2_STLB WRITE        ACCESS:          0 HIT:          0 MISS:          0
cpu2_STLB TRANSLATION  ACCESS:          0 HIT:          0 MISS:          0
cpu2_STLB PREFETCH REQUESTED:          0 ISSUED:          0 USEFUL:          0 USELESS:          0
cpu2_STLB AVERAGE MISS LATENCY: 872.5 cycles
cpu2_STLB TOTAL        ACCESS:          0 HIT:          0 MISS:          0
cpu2_STLB LOAD         ACCESS:          0 HIT:          0 MISS:          0
cpu2_STLB RFO          ACCESS:          0 HIT:          0 MISS:          0
cpu2_STLB PREFETCH     ACCESS:          0 HIT:          0 MISS:          0
cpu2_STLB WRITE        ACCESS:          0 HIT:          0 MISS:          0
cpu2_STLB TRANSLATION  ACCESS:          0 HIT:          0 MISS:          0
cpu2_STLB PREFETCH REQUESTED:          0 ISSUED:          0 USEFUL:          0 USELESS:          0
cpu2_STLB AVERAGE MISS LATENCY: 872.5 cycles
cpu2_STLB TOTAL        ACCESS:     408126 HIT:     340369 MISS:      67757
cpu2_STLB LOAD         ACCESS:     408126 HIT:     340369 MISS:      67757
cpu2_STLB RFO          ACCESS:          0 HIT:          0 MISS:          0
cpu2_STLB PREFETCH     ACCESS:          0 HIT:          0 MISS:          0
cpu2_STLB WRITE        ACCESS:          0 HIT:          0 MISS:          0
cpu2_STLB TRANSLATION  ACCESS:          0 HIT:          0 MISS:          0
cpu2_STLB PREFETCH REQUESTED:          0 ISSUED:          0 USEFUL:          0 USELESS:          0
cpu2_STLB AVERAGE MISS LATENCY: 872.5 cycles
cpu2_STLB TOTAL        ACCESS:          0 HIT:          0 MISS:          0
cpu2_STLB LOAD         ACCESS:          0 HIT:          0 MISS:          0
cpu2_STLB RFO          ACCESS:          0 HIT:          0 MISS:          0
cpu2_STLB PREFETCH     ACCESS:          0 HIT:          0 MISS:          0
cpu2_STLB WRITE        ACCESS:          0 HIT:          0 MISS:          0
cpu2_STLB TRANSLATION  ACCESS:          0 HIT:          0 MISS:          0
cpu2_STLB PREFETCH REQUESTED:          0 ISSUED:          0 USEFUL:          0 USELESS:          0
cpu2_STLB AVERAGE MISS LATENCY: 872.5 cycles
cpu3_DTLB TOTAL        ACCESS:          0 HIT:          0 MISS:          0
cpu3_DTLB LOAD         ACCESS:          0 HIT:          0 MISS:          0
cpu3_DTLB RFO          ACCESS:          0 HIT:          0 MISS:          0
cpu3_DTLB PREFETCH     ACCESS:          0 HIT:          0 MISS:          0
cpu3_DTLB WRITE        ACCESS:          0 HIT:          0 MISS:          0
cpu3_DTLB TRANSLATION  ACCESS:          0 HIT:          0 MISS:          0
cpu3_DTLB PREFETCH REQUESTED:          0 ISSUED:          0 USEFUL:          0 USELESS:          0
cpu3_DTLB AVERAGE MISS LATENCY: 22.34 cycles
cpu3_DTLB TOTAL        ACCESS:          0 HIT:          0 MISS:          0
cpu3_DTLB LOAD         ACCESS:          0 HIT:          0 MISS:          0
cpu3_DTLB RFO          ACCESS:          0 HIT:          0 MISS:          0
cpu3_DTLB PREFETCH     ACCESS:          0 HIT:          0 MISS:          0
cpu3_DTLB WRITE        ACCESS:          0 HIT:          0 MISS:          0
cpu3_DTLB TRANSLATION  ACCESS:          0 HIT:          0 MISS:          0
cpu3_DTLB PREFETCH REQUESTED:          0 ISSUED:          0 USEFUL:          0 USELESS:          0
cpu3_DTLB AVERAGE MISS LATENCY: 22.34 cycles
cpu3_DTLB TOTAL        ACCESS:          0 HIT:          0 MISS:          0
cpu3_DTLB LOAD         ACCESS:          0 HIT:          0 MISS:          0
[...]
cpu2_L2C PREFETCH     ACCESS:          0 HIT:          0 MISS:          0
cpu2_L2C WRITE        ACCESS:          0 HIT:          0 MISS:          0
cpu2_L2C TRANSLATION  ACCESS:          0 HIT:          0 MISS:          0
cpu2_L2C PREFETCH REQUESTED:    1969153 ISSUED:    1535893 USEFUL:      51823 USELESS:      24826
cpu2_L2C AVERAGE MISS LATENCY: 5562 cycles
cpu2_L2C TOTAL        ACCESS:          0 HIT:          0 MISS:          0
cpu2_L2C LOAD         ACCESS:          0 HIT:          0 MISS:          0
cpu2_L2C RFO          ACCESS:          0 HIT:          0 MISS:          0
cpu2_L2C PREFETCH     ACCESS:          0 HIT:          0 MISS:          0
cpu2_L2C WRITE        ACCESS:          0 HIT:          0 MISS:          0
cpu2_L2C TRANSLATION  ACCESS:          0 HIT:          0 MISS:          0
cpu2_L2C PREFETCH REQUESTED:    1969153 ISSUED:    1535893 USEFUL:      51823 USELESS:      24826
cpu2_L2C AVERAGE MISS LATENCY: 5562 cycles
cpu2_L2C TOTAL        ACCESS:    3488428 HIT:    2280923 MISS:    1207505
cpu2_L2C LOAD         ACCESS:     589896 HIT:     479199 MISS:     110697
cpu2_L2C RFO          ACCESS:    1186163 HIT:     212633 MISS:     973530
cpu2_L2C PREFETCH     ACCESS:     445279 HIT:     325124 MISS:     120155
cpu2_L2C WRITE        ACCESS:    1262876 HIT:    1262823 MISS:         53
cpu2_L2C TRANSLATION  ACCESS:       4214 HIT:       1144 MISS:       3070
cpu2_L2C PREFETCH REQUESTED:    1969153 ISSUED:    1535893 USEFUL:      51823 USELESS:      24826
cpu2_L2C AVERAGE MISS LATENCY: 5562 cycles
cpu2_L2C TOTAL        ACCESS:          0 HIT:          0 MISS:          0
cpu2_L2C LOAD         ACCESS:          0 HIT:          0 MISS:          0
cpu2_L2C RFO          ACCESS:          0 HIT:          0 MISS:          0
cpu2_L2C PREFETCH     ACCESS:          0 HIT:          0 MISS:          0
cpu2_L2C WRITE        ACCESS:          0 HIT:          0 MISS:          0
cpu2_L2C TRANSLATION  ACCESS:          0 HIT:          0 MISS:          0
cpu2_L2C PREFETCH REQUESTED:    1969153 ISSUED:    1535893 USEFUL:      51823 USELESS:      24826
cpu2_L2C AVERAGE MISS LATENCY: 5562 cycles
cpu2_STLB TOTAL        ACCESS:          0 HIT:          0 MISS:          0
cpu2_STLB LOAD         ACCESS:          0 HIT:          0 MISS:          0
cpu2_STLB RFO          ACCESS:          0 HIT:          0 MISS:          0
cpu2_STLB PREFETCH     ACCESS:          0 HIT:          0 MISS:          0
cpu2_STLB WRITE        ACCESS:          0 HIT:          0 MISS:          0
cpu2_STLB TRANSLATION  ACCESS:          0 HIT:          0 MISS:          0
cpu2_STLB PREFETCH REQUESTED:          0 ISSUED:          0 USEFUL:          0 USELESS:          0
cpu2_STLB AVERAGE MISS LATENCY: 872.5 cycles
cpu2_STLB TOTAL        ACCESS:          0 HIT:          0 MISS:          0
cpu2_STLB LOAD         ACCESS:          0 HIT:          0 MISS:          0
cpu2_STLB RFO          ACCESS:          0 HIT:          0 MISS:          0
cpu2_STLB PREFETCH     ACCESS:          0 HIT:          0 MISS:          0
cpu2_STLB WRITE        ACCESS:          0 HIT:          0 MISS:          0
cpu2_STLB TRANSLATION  ACCESS:          0 HIT:          0 MISS:          0
cpu2_STLB PREFETCH REQUESTED:          0 ISSUED:          0 USEFUL:          0 USELESS:          0
cpu2_STLB AVERAGE MISS LATENCY: 872.5 cycles
cpu2_STLB TOTAL        ACCESS:     100527 HIT:      81443 MISS:      19084
cpu2_STLB LOAD         ACCESS:     100527 HIT:      81443 MISS:      19084
cpu2_STLB RFO          ACCESS:          0 HIT:          0 MISS:          0
cpu2_STLB PREFETCH     ACCESS:          0 HIT:          0 MISS:          0
cpu2_STLB WRITE        ACCESS:          0 HIT:          0 MISS:          0
cpu2_STLB TRANSLATION  ACCESS:          0 HIT:          0 MISS:          0
cpu2_STLB PREFETCH REQUESTED:          0 ISSUED:          0 USEFUL:          0 USELESS:          0
cpu2_STLB AVERAGE MISS LATENCY: 872.5 cycles
cpu2_STLB TOTAL        ACCESS:          0 HIT:          0 MISS:          0
cpu2_STLB LOAD         ACCESS:          0 HIT:          0 MISS:          0
cpu2_STLB RFO          ACCESS:          0 HIT:          0 MISS:          0
cpu2_STLB PREFETCH     ACCESS:          0 HIT:          0 MISS:          0
cpu2_STLB WRITE        ACCESS:          0 HIT:          0 MISS:          0
cpu2_STLB TRANSLATION  ACCESS:          0 HIT:          0 MISS:          0
cpu2_STLB PREFETCH REQUESTED:          0 ISSUED:          0 USEFUL:          0 USELESS:          0
cpu2_STLB AVERAGE MISS LATENCY: 872.5 cycles
cpu3_DTLB TOTAL        ACCESS:          0 HIT:          0 MISS:          0
cpu3_DTLB LOAD         ACCESS:          0 HIT:          0 MISS:          0
cpu3_DTLB RFO          ACCESS:          0 HIT:          0 MISS:          0
cpu3_DTLB PREFETCH     ACCESS:          0 HIT:          0 MISS:          0
cpu3_DTLB WRITE        ACCESS:          0 HIT:          0 MISS:          0
cpu3_DTLB TRANSLATION  ACCESS:          0 HIT:          0 MISS:          0
cpu3_DTLB PREFETCH REQUESTED:          0 ISSUED:          0 USEFUL:          0 USELESS:          0
cpu3_DTLB AVERAGE MISS LATENCY: 22.34 cycles
cpu3_DTLB TOTAL        ACCESS:          0 HIT:          0 MISS:          0
cpu3_DTLB LOAD         ACCESS:          0 HIT:          0 MISS:          0
cpu3_DTLB RFO          ACCESS:          0 HIT:          0 MISS:          0
cpu3_DTLB PREFETCH     ACCESS:          0 HIT:          0 MISS:          0
cpu3_DTLB WRITE        ACCESS:          0 HIT:          0 MISS:          0
cpu3_DTLB TRANSLATION  ACCESS:          0 HIT:          0 MISS:          0
cpu3_DTLB PREFETCH REQUESTED:          0 ISSUED:          0 USEFUL:          0 USELESS:          0
cpu3_DTLB AVERAGE MISS LATENCY: 22.34 cycles
cpu3_DTLB TOTAL        ACCESS:          0 HIT:          0 MISS:          0
cpu3_DTLB LOAD         ACCESS:          0 HIT:          0 MISS:          0
cpu3_DTLB RFO          ACCESS:          0 HIT:          0 MISS:          0
cpu3_DTLB PREFETCH     ACCESS:          0 HIT:          0 MISS:          0
cpu3_DTLB WRITE        ACCESS:          0 HIT:          0 MISS:          0
cpu3_DTLB TRANSLATION  ACCESS:          0 HIT:          0 MISS:          0
cpu3_DTLB PREFETCH REQUESTED:          0 ISSUED:          0 USEFUL:          0 USELESS:          0
cpu3_DTLB AVERAGE MISS LATENCY: 22.34 cycles
cpu3_DTLB TOTAL        ACCESS:   17918384 HIT:   17907262 MISS:      11122
cpu3_DTLB LOAD         ACCESS:   17918384 HIT:   17907262 MISS:      11122
cpu3_DTLB RFO          ACCESS:          0 HIT:          0 MISS:          0
cpu3_DTLB PREFETCH     ACCESS:          0 HIT:          0 MISS:          0
cpu3_DTLB WRITE        ACCESS:          0 HIT:          0 MISS:          0
cpu3_DTLB TRANSLATION  ACCESS:          0 HIT:          0 MISS:          0
cpu3_DTLB PREFETCH REQUESTED:          0 ISSUED:          0 USEFUL:          0 USELESS:          0
cpu3_DTLB AVERAGE MISS LATENCY: 22.34 cycles
cpu3_ITLB TOTAL        ACCESS:          0 HIT:          0 MISS:          0
cpu3_ITLB LOAD         ACCESS:          0 HIT:          0 MISS:          0
cpu3_ITLB RFO          ACCESS:          0 HIT:          0 MISS:          0
cpu3_ITLB PREFETCH     ACCESS:          0 HIT:          0 MISS:          0
cpu3_ITLB WRITE        ACCESS:          0 HIT:          0 MISS:          0
cpu3_ITLB TRANSLATION  ACCESS:          0 HIT:          0 MISS:          0
cpu3_ITLB PREFETCH REQUESTED:          0 ISSUED:          0 USEFUL:          0 USELESS:          0
cpu3_ITLB AVERAGE MISS LATENCY: 1707 cycles
cpu3_ITLB TOTAL        ACCESS:          0 HIT:          0 MISS:          0
cpu3_ITLB LOAD         ACCESS:          0 HIT:          0 MISS:          0
cpu3_ITLB RFO          ACCESS:          0 HIT:          0 MISS:          0
cpu3_ITLB PREFETCH     ACCESS:          0 HIT:          0 MISS:          0
cpu3_ITLB WRITE        ACCESS:          0 HIT:          0 MISS:          0
cpu3_ITLB TRANSLATION  ACCESS:          0 HIT:          0 MISS:          0
cpu3_ITLB PREFETCH REQUESTED:          0 ISSUED:          0 USEFUL:          0 USELESS:          0
cpu3_ITLB AVERAGE MISS LATENCY: 1707 cycles
cpu3_ITLB TOTAL        ACCESS:          0 HIT:          0 MISS:          0
cpu3_ITLB LOAD         ACCESS:          0 HIT:          0 MISS:          0
cpu3_ITLB RFO          ACCESS:          0 HIT:          0 MISS:          0
cpu3_ITLB PREFETCH     ACCESS:          0 HIT:          0 MISS:          0
cpu3_ITLB WRITE        ACCESS:          0 HIT:          0 MISS:          0
cpu3_ITLB TRANSLATION  ACCESS:          0 HIT:          0 MISS:          0
cpu3_ITLB PREFETCH REQUESTED:          0 ISSUED:          0 USEFUL:          0 USELESS:          0
cpu3_ITLB AVERAGE MISS LATENCY: 1707 cycles
cpu3_ITLB TOTAL        ACCESS:     515254 HIT:     515254 MISS:          0
cpu3_ITLB LOAD         ACCESS:     515254 HIT:     515254 MISS:          0
cpu3_ITLB RFO          ACCESS:          0 HIT:          0 MISS:          0
cpu3_ITLB PREFETCH     ACCESS:          0 HIT:          0 MISS:          0
cpu3_ITLB WRITE        ACCESS:          0 HIT:          0 MISS:          0
cpu3_ITLB TRANSLATION  ACCESS:          0 HIT:          0 MISS:          0
cpu3_ITLB PREFETCH REQUESTED:          0 ISSUED:          0 USEFUL:          0 USELESS:          0
cpu3_ITLB AVERAGE MISS LATENCY: 1707 cycles
cpu3_L1D TOTAL        ACCESS:          0 HIT:          0 MISS:          0
cpu3_L1D LOAD         ACCESS:          0 HIT:          0 MISS:          0
cpu3_L1D RFO          ACCESS:          0 HIT:          0 MISS:          0
cpu3_L1D PREFETCH     ACCESS:          0 HIT:          0 MISS:          0
cpu3_L1D WRITE        ACCESS:          0 HIT:          0 MISS:          0
cpu3_L1D TRANSLATION  ACCESS:          0 HIT:          0 MISS:          0
cpu3_L1D PREFETCH REQUESTED:          0 ISSUED:          0 USEFUL:          0 USELESS:          0
cpu3_L1D AVERAGE MISS LATENCY: 599.7 cycles
cpu3_L1D TOTAL        ACCESS:          0 HIT:          0 MISS:          0
cpu3_L1D LOAD         ACCESS:          0 HIT:          0 MISS:          0
cpu3_L1D RFO          ACCESS:          0 HIT:          0 MISS:          0
cpu3_L1D PREFETCH     ACCESS:          0 HIT:          0 MISS:          0
cpu3_L1D WRITE        ACCESS:          0 HIT:          0 MISS:          0
cpu3_L1D TRANSLATION  ACCESS:          0 HIT:          0 MISS:          0
cpu3_L1D PREFETCH REQUESTED:          0 ISSUED:          0 USEFUL:          0 USELESS:          0
cpu3_L1D AVERAGE MISS LATENCY: 599.7 cycles
cpu3_L1D TOTAL        ACCESS:          0 HIT:          0 MISS:          0
cpu3_L1D LOAD         ACCESS:          0 HIT:          0 MISS:          0
cpu3_L1D RFO          ACCESS:          0 HIT:          0 MISS:          0
cpu3_L1D PREFETCH     ACCESS:          0 HIT:          0 MISS:          0
cpu3_L1D WRITE        ACCESS:          0 HIT:          0 MISS:          0
cpu3_L1D TRANSLATION  ACCESS:          0 HIT:          0 MISS:          0
cpu3_L1D PREFETCH REQUESTED:          0 ISSUED:          0 USEFUL:          0 USELESS:          0
cpu3_L1D AVERAGE MISS LATENCY: 599.7 cycles
cpu3_L1D TOTAL        ACCESS:   21983715 HIT:   21960535 MISS:      23180
cpu3_L1D LOAD         ACCESS:   16401734 HIT:   16399010 MISS:       2724
cpu3_L1D RFO          ACCESS:          0 HIT:          0 MISS:          0
cpu3_L1D PREFETCH     ACCESS:          0 HIT:          0 MISS:          0
cpu3_L1D WRITE        ACCESS:    5581813 HIT:    5561507 MISS:      20306
cpu3_L1D TRANSLATION  ACCESS:        168 HIT:         18 MISS:        150
cpu3_L1D PREFETCH REQUESTED:          0 ISSUED:          0 USEFUL:          0 USELESS:          0
cpu3_L1D AVERAGE MISS LATENCY: 599.7 cycles
cpu3_L1I TOTAL        ACCESS:          0 HIT:          0 MISS:          0
cpu3_L1I LOAD         ACCESS:          0 HIT:          0 MISS:          0
cpu3_L1I RFO          ACCESS:          0 HIT:          0 MISS:          0
cpu3_L1I PREFETCH     ACCESS:          0 HIT:          0 MISS:          0
cpu3_L1I WRITE        ACCESS:          0 HIT:          0 MISS:          0
cpu3_L1I TRANSLATION  ACCESS:          0 HIT:          0 MISS:          0
cpu3_L1I PREFETCH REQUESTED:          0 ISSUED:          0 USEFUL:          0 USELESS:          0
cpu3_L1I AVERAGE MISS LATENCY: 69.87 cycles
cpu3_L1I TOTAL        ACCESS:          0 HIT:          0 MISS:          0
cpu3_L1I LOAD         ACCESS:          0 HIT:          0 MISS:          0
cpu3_L1I RFO          ACCESS:          0 HIT:          0 MISS:          0
cpu3_L1I PREFETCH     ACCESS:          0 HIT:          0 MISS:          0
cpu3_L1I WRITE        ACCESS:          0 HIT:          0 MISS:          0
cpu3_L1I TRANSLATION  ACCESS:          0 HIT:          0 MISS:          0
cpu3_L1I PREFETCH REQUESTED:          0 ISSUED:          0 USEFUL:          0 USELESS:          0
cpu3_L1I AVERAGE MISS LATENCY: 69.87 cycles
cpu3_L1I TOTAL        ACCESS:          0 HIT:          0 MISS:          0
cpu3_L1I LOAD         ACCESS:          0 HIT:          0 MISS:          0
cpu3_L1I RFO          ACCESS:          0 HIT:          0 MISS:          0
cpu3_L1I PREFETCH     ACCESS:          0 HIT:          0 MISS:          0
cpu3_L1I WRITE        ACCESS:          0 HIT:          0 MISS:          0
cpu3_L1I TRANSLATION  ACCESS:          0 HIT:          0 MISS:          0
cpu3_L1I PREFETCH REQUESTED:          0 ISSUED:          0 USEFUL:          0 USELESS:          0
cpu3_L1I AVERAGE MISS LATENCY: 69.87 cycles
cpu3_L1I TOTAL        ACCESS:     570354 HIT:     568936 MISS:       1418
cpu3_L1I LOAD         ACCESS:     570354 HIT:     568936 MISS:       1418
cpu3_L1I RFO          ACCESS:          0 HIT:          0 MISS:          0
cpu3_L1I PREFETCH     ACCESS:          0 HIT:          0 MISS:          0
cpu3_L1I WRITE        ACCESS:          0 HIT:          0 MISS:          0
cpu3_L1I TRANSLATION  ACCESS:          0 HIT:          0 MISS:          0
cpu3_L1I PREFETCH REQUESTED:          0 ISSUED:          0 USEFUL:          0 USELESS:          0
cpu3_L1I AVERAGE MISS LATENCY: 69.87 cycles
cpu3_L2C TOTAL        ACCESS:          0 HIT:          0 MISS:          0
cpu3_L2C LOAD         ACCESS:          0 HIT:          0 MISS:          0
cpu3_L2C RFO          ACCESS:          0 HIT:          0 MISS:          0
cpu3_L2C PREFETCH     ACCESS:          0 HIT:          0 MISS:          0
cpu3_L2C WRITE        ACCESS:          0 HIT:          0 MISS:          0
cpu3_L2C TRANSLATION  ACCESS:          0 HIT:          0 MISS:          0
cpu3_L2C PREFETCH REQUESTED:   19577000 ISSUED:   16792714 USEFUL:    1897847 USELESS:     367577
cpu3_L2C AVERAGE MISS LATENCY: 1955 cycles
cpu3_L2C TOTAL        ACCESS:          0 HIT:          0 MISS:          0
cpu3_L2C LOAD         ACCESS:          0 HIT:          0 MISS:          0
cpu3_L2C RFO          ACCESS:          0 HIT:          0 MISS:          0
cpu3_L2C PREFETCH     ACCESS:          0 HIT:          0 MISS:          0
cpu3_L2C WRITE        ACCESS:          0 HIT:          0 MISS:          0
cpu3_L2C TRANSLATION  ACCESS:          0 HIT:          0 MISS:          0
cpu3_L2C PREFETCH REQUESTED:   19577000 ISSUED:   16792714 USEFUL:    1897847 USELESS:     367577
cpu3_L2C AVERAGE MISS LATENCY: 1955 cycles
cpu3_L2C TOTAL        ACCESS:          0 HIT:          0 MISS:          0
cpu3_L2C LOAD         ACCESS:          0 HIT:          0 MISS:          0
cpu3_L2C RFO          ACCESS:          0 HIT:          0 MISS:          0
cpu3_L2C PREFETCH     ACCESS:          0 HIT:          0 MISS:          0
cpu3_L2C WRITE        ACCESS:          0 HIT:          0 MISS:          0
cpu3_L2C TRANSLATION  ACCESS:          0 HIT:          0 MISS:          0
cpu3_L2C PREFETCH REQUESTED:   19577000 ISSUED:   16792714 USEFUL:    1897847 USELESS:     367577
cpu3_L2C AVERAGE MISS LATENCY: 1955 cycles
cpu3_L2C TOTAL        ACCESS:      11747 HIT:       5314 MISS:       6433
cpu3_L2C LOAD         ACCESS:       2775 HIT:       1792 MISS:        983
cpu3_L2C RFO          ACCESS:       2558 HIT:        100 MISS:       2458
cpu3_L2C PREFETCH     ACCESS:       3230 HIT:        345 MISS:       2885
cpu3_L2C WRITE        ACCESS:       3034 HIT:       3024 MISS:         10
cpu3_L2C TRANSLATION  ACCESS:        150 HIT:         53 MISS:         97
cpu3_L2C PREFETCH REQUESTED:   19577000 ISSUED:   16792714 USEFUL:    1897847 USELESS:     367577
cpu3_L2C AVERAGE MISS LATENCY: 1955 cycles
cpu3_STLB TOTAL        ACCESS:          0 HIT:          0 MISS:          0
cpu3_STLB LOAD         ACCESS:          0 HIT:          0 MISS:          0
cpu3_STLB RFO          ACCESS:          0 HIT:          0 MISS:          0
cpu3_STLB PREFETCH     ACCESS:          0 HIT:          0 MISS:          0
cpu3_STLB WRITE        ACCESS:          0 HIT:          0 MISS:          0
cpu3_STLB TRANSLATION  ACCESS:          0 HIT:          0 MISS:          0
cpu3_STLB PREFETCH REQUESTED:          0 ISSUED:          0 USEFUL:          0 USELESS:          0
cpu3_STLB AVERAGE MISS LATENCY: 1026 cycles
cpu3_STLB TOTAL        ACCESS:          0 HIT:          0 MISS:          0
cpu3_STLB LOAD         ACCESS:          0 HIT:          0 MISS:          0
cpu3_STLB RFO          ACCESS:          0 HIT:          0 MISS:          0
cpu3_STLB PREFETCH     ACCESS:          0 HIT:          0 MISS:          0
cpu3_STLB WRITE        ACCESS:          0 HIT:          0 MISS:          0
cpu3_STLB TRANSLATION  ACCESS:          0 HIT:          0 MISS:          0
cpu3_STLB PREFETCH REQUESTED:          0 ISSUED:          0 USEFUL:          0 USELESS:          0
cpu3_STLB AVERAGE MISS LATENCY: 1026 cycles
cpu3_STLB TOTAL        ACCESS:          0 HIT:          0 MISS:          0
cpu3_STLB LOAD         ACCESS:          0 HIT:          0 MISS:          0
cpu3_STLB RFO          ACCESS:          0 HIT:          0 MISS:          0
cpu3_STLB PREFETCH     ACCESS:          0 HIT:          0 MISS:          0
cpu3_STLB WRITE        ACCESS:          0 HIT:          0 MISS:          0
cpu3_STLB TRANSLATION  ACCESS:          0 HIT:          0 MISS:          0
cpu3_STLB PREFETCH REQUESTED:          0 ISSUED:          0 USEFUL:          0 USELESS:          0
cpu3_STLB AVERAGE MISS LATENCY: 1026 cycles
cpu3_STLB TOTAL        ACCESS:       9844 HIT:       9676 MISS:        168
cpu3_STLB LOAD         ACCESS:       9844 HIT:       9676 MISS:        168
cpu3_STLB RFO          ACCESS:          0 HIT:          0 MISS:          0
cpu3_STLB PREFETCH     ACCESS:          0 HIT:          0 MISS:          0
cpu3_STLB WRITE        ACCESS:          0 HIT:          0 MISS:          0
cpu3_STLB TRANSLATION  ACCESS:          0 HIT:          0 MISS:          0
cpu3_STLB PREFETCH REQUESTED:          0 ISSUED:          0 USEFUL:          0 USELESS:          0
cpu3_STLB AVERAGE MISS LATENCY: 1026 cycles

DRAM Statistics

Channel 0 RQ ROW_BUFFER_HIT:    2327773
  ROW_BUFFER_MISS:   14606391
 AVG DBUS CONGESTED CYCLE: 3.995
WQ ROW_BUFFER_HIT: Channel 0 
  ROW_BUFFER_MISS:     301672
  FULL:   10111946
BERTI TO_L1: 15472060 TO_L2: 17941971 TO_L2_BC_MSHR: 758286
BERTI AVG_LAT: 773.367 NUM_TRACK_LATENCY: 4878548 NUM_CANT_TRACK_LATENCY: 4441109
BERTI CROSS_PAGE 7022038 NO_CROSS_PAGE: 26391993
BERTI FOUND_BERTI: 14041044 NO_FOUND_BERTI: 39152725
BERTI AVERAGE_ISSUED: 4.81252
BERTI TO_L1: 15472060 TO_L2: 17941971 TO_L2_BC_MSHR: 758286
BERTI AVG_LAT: 773.367 NUM_TRACK_LATENCY: 4878548 NUM_CANT_TRACK_LATENCY: 4441109
BERTI CROSS_PAGE 7022038 NO_CROSS_PAGE: 26391993
BERTI FOUND_BERTI: 14041044 NO_FOUND_BERTI: 39152725
BERTI AVERAGE_ISSUED: 4.81252
BERTI TO_L1: 15472060 TO_L2: 17941971 TO_L2_BC_MSHR: 758286
BERTI AVG_LAT: 773.367 NUM_TRACK_LATENCY: 4878548 NUM_CANT_TRACK_LATENCY: 4441109
BERTI CROSS_PAGE 7022038 NO_CROSS_PAGE: 26391993
BERTI FOUND_BERTI: 14041044 NO_FOUND_BERTI: 39152725
BERTI AVERAGE_ISSUED: 4.81252
BERTI TO_L1: 15472060 TO_L2: 17941971 TO_L2_BC_MSHR: 758286
BERTI AVG_LAT: 773.367 NUM_TRACK_LATENCY: 4878548 NUM_CANT_TRACK_LATENCY: 4441109
BERTI CROSS_PAGE 7022038 NO_CROSS_PAGE: 26391993
BERTI FOUND_BERTI: 14041044 NO_FOUND_BERTI: 39152725
BERTI AVERAGE_ISSUED: 4.81252
