WARNING: physical memory size is smaller than virtual memory size.
WARNING: option --warmup_instructions is deprecated. Use --warmup-instructions instead.
WARNING: option --simulation_instructions is deprecated. Use --simulation-instructions instead.

*** ChampSim Multicore Out-of-Order Simulator ***
Warmup Instructions: 50000000
Simulation Instructions: 150000000
Number of CPUs: 4
Page size: 4096

Berti Prefetcher
BERTI HASH ORIGINAL
BERTI IP MASK ffff
Berti Prefetcher
BERTI HASH ORIGINAL
BERTI IP MASK ffff
Berti Prefetcher
BERTI HASH ORIGINAL
BERTI IP MASK ffff
Berti Prefetcher
BERTI HASH ORIGINAL
BERTI IP MASK ffff
Off-chip DRAM Size: 4 GiB Channels: 1 Width: 64-bit Data Race: 3200 MT/s
Heartbeat CPU 2 instructions: 10000003 cycles: 2507130 heartbeat IPC: 3.989 cumulative IPC: 3.989 (Simulation time: 00 hr 03 min 28 sec)
Heartbeat CPU 3 instructions: 10000004 cycles: 3099502 heartbeat IPC: 3.226 cumulative IPC: 3.226 (Simulation time: 00 hr 04 min 17 sec)
Heartbeat CPU 1 instructions: 10000001 cycles: 3680881 heartbeat IPC: 2.717 cumulative IPC: 2.717 (Simulation time: 00 hr 05 min 15 sec)
Heartbeat CPU 0 instructions: 10000001 cycles: 4175235 heartbeat IPC: 2.395 cumulative IPC: 2.395 (Simulation time: 00 hr 05 min 57 sec)
Heartbeat CPU 2 instructions: 20000000 cycles: 5016902 heartbeat IPC: 3.984 cumulative IPC: 3.987 (Simulation time: 00 hr 07 min 18 sec)
Heartbeat CPU 3 instructions: 20000004 cycles: 6205821 heartbeat IPC: 3.219 cumulative IPC: 3.223 (Simulation time: 00 hr 08 min 55 sec)
Heartbeat CPU 1 instructions: 20000003 cycles: 7362309 heartbeat IPC: 2.716 cumulative IPC: 2.717 (Simulation time: 00 hr 10 min 26 sec)
Heartbeat CPU 2 instructions: 30000002 cycles: 7521331 heartbeat IPC: 3.993 cumulative IPC: 3.989 (Simulation time: 00 hr 10 min 37 sec)
Heartbeat CPU 0 instructions: 20000003 cycles: 8347481 heartbeat IPC: 2.397 cumulative IPC: 2.396 (Simulation time: 00 hr 11 min 44 sec)
Heartbeat CPU 3 instructions: 30000004 cycles: 9305008 heartbeat IPC: 3.227 cumulative IPC: 3.224 (Simulation time: 00 hr 13 min 16 sec)
Heartbeat CPU 2 instructions: 40000001 cycles: 10032000 heartbeat IPC: 3.983 cumulative IPC: 3.987 (Simulation time: 00 hr 14 min 17 sec)
Heartbeat CPU 1 instructions: 30000003 cycles: 11043979 heartbeat IPC: 2.716 cumulative IPC: 2.716 (Simulation time: 00 hr 15 min 49 sec)
Heartbeat CPU 3 instructions: 40000002 cycles: 12402311 heartbeat IPC: 3.229 cumulative IPC: 3.225 (Simulation time: 00 hr 17 min 32 sec)
Heartbeat CPU 0 instructions: 30000001 cycles: 12521629 heartbeat IPC: 2.396 cumulative IPC: 2.396 (Simulation time: 00 hr 17 min 42 sec)
Heartbeat CPU 2 instructions: 50000000 cycles: 12555938 heartbeat IPC: 3.962 cumulative IPC: 3.982 (Simulation time: 00 hr 17 min 45 sec)
Warmup finished CPU 2 instructions: 50000000 cycles: 12555939 cumulative IPC: 3.982 (Simulation time: 00 hr 17 min 45 sec)
Heartbeat CPU 1 instructions: 40000003 cycles: 14724109 heartbeat IPC: 2.717 cumulative IPC: 2.717 (Simulation time: 00 hr 20 min 56 sec)
Heartbeat CPU 2 instructions: 60000001 cycles: 15063902 heartbeat IPC: 3.987 cumulative IPC: 3.983 (Simulation time: 00 hr 21 min 30 sec)
Heartbeat CPU 3 instructions: 50000003 cycles: 15488463 heartbeat IPC: 3.24 cumulative IPC: 3.228 (Simulation time: 00 hr 22 min 11 sec)
Warmup finished CPU 3 instructions: 50000003 cycles: 15488464 cumulative IPC: 3.228 (Simulation time: 00 hr 22 min 11 sec)
Heartbeat CPU 0 instructions: 40000004 cycles: 16707428 heartbeat IPC: 2.389 cumulative IPC: 2.394 (Simulation time: 00 hr 24 min 10 sec)
Heartbeat CPU 2 instructions: 70000000 cycles: 17570978 heartbeat IPC: 3.989 cumulative IPC: 3.984 (Simulation time: 00 hr 25 min 27 sec)
Heartbeat CPU 1 instructions: 50000001 cycles: 18405863 heartbeat IPC: 2.716 cumulative IPC: 2.717 (Simulation time: 00 hr 26 min 49 sec)
Warmup finished CPU 1 instructions: 50000001 cycles: 18405864 cumulative IPC: 2.717 (Simulation time: 00 hr 26 min 49 sec)
Heartbeat CPU 3 instructions: 60000002 cycles: 18586550 heartbeat IPC: 3.228 cumulative IPC: 3.228 (Simulation time: 00 hr 27 min 08 sec)
Heartbeat CPU 2 instructions: 80000003 cycles: 20078973 heartbeat IPC: 3.987 cumulative IPC: 3.984 (Simulation time: 00 hr 29 min 38 sec)
Heartbeat CPU 0 instructions: 50000003 cycles: 20872698 heartbeat IPC: 2.401 cumulative IPC: 2.395 (Simulation time: 00 hr 30 min 35 sec)
Warmup finished CPU 0 instructions: 50000003 cycles: 20872699 cumulative IPC: 2.395 (Simulation time: 00 hr 30 min 35 sec)
Warmup complete CPU 0 instructions: 50000003 cycles: 20872699 cumulative IPC: 2.395 (Simulation time: 00 hr 30 min 35 sec)
Warmup complete CPU 1 instructions: 56456551 cycles: 20872699 cumulative IPC: 2.705 (Simulation time: 00 hr 30 min 35 sec)
Warmup complete CPU 2 instructions: 83174903 cycles: 20872699 cumulative IPC: 3.985 (Simulation time: 00 hr 30 min 35 sec)
Warmup complete CPU 3 instructions: 67388863 cycles: 20872699 cumulative IPC: 3.229 (Simulation time: 00 hr 30 min 35 sec)
Heartbeat CPU 2 instructions: 90000001 cycles: 23244472 heartbeat IPC: 3.159 cumulative IPC: 2.878 (Simulation time: 00 hr 32 min 02 sec)
Heartbeat CPU 1 instructions: 60000004 cycles: 25095844 heartbeat IPC: 1.495 cumulative IPC: 0.8391 (Simulation time: 00 hr 33 min 08 sec)
Heartbeat CPU 2 instructions: 100000002 cycles: 26646014 heartbeat IPC: 2.94 cumulative IPC: 2.914 (Simulation time: 00 hr 34 min 13 sec)
Heartbeat CPU 3 instructions: 70000000 cycles: 30020278 heartbeat IPC: 0.8746 cumulative IPC: 0.2854 (Simulation time: 00 hr 36 min 49 sec)
Heartbeat CPU 2 instructions: 110000001 cycles: 30082203 heartbeat IPC: 2.91 cumulative IPC: 2.913 (Simulation time: 00 hr 36 min 52 sec)
Heartbeat CPU 2 instructions: 120000002 cycles: 33521323 heartbeat IPC: 2.908 cumulative IPC: 2.911 (Simulation time: 00 hr 39 min 46 sec)
Heartbeat CPU 2 instructions: 130000003 cycles: 36928056 heartbeat IPC: 2.935 cumulative IPC: 2.916 (Simulation time: 00 hr 41 min 58 sec)
Heartbeat CPU 1 instructions: 70000000 cycles: 37225119 heartbeat IPC: 0.8245 cumulative IPC: 0.8282 (Simulation time: 00 hr 42 min 09 sec)
Heartbeat CPU 2 instructions: 140000003 cycles: 40378389 heartbeat IPC: 2.898 cumulative IPC: 2.913 (Simulation time: 00 hr 44 min 02 sec)
Heartbeat CPU 2 instructions: 150000002 cycles: 43754221 heartbeat IPC: 2.962 cumulative IPC: 2.92 (Simulation time: 00 hr 46 min 23 sec)
Heartbeat CPU 2 instructions: 160000001 cycles: 47048310 heartbeat IPC: 3.036 cumulative IPC: 2.935 (Simulation time: 00 hr 48 min 26 sec)
Heartbeat CPU 1 instructions: 80000000 cycles: 49172896 heartbeat IPC: 0.837 cumulative IPC: 0.8319 (Simulation time: 00 hr 50 min 10 sec)
Heartbeat CPU 2 instructions: 170000004 cycles: 50381237 heartbeat IPC: 3 cumulative IPC: 2.942 (Simulation time: 00 hr 51 min 09 sec)
Heartbeat CPU 2 instructions: 180000003 cycles: 53858774 heartbeat IPC: 2.876 cumulative IPC: 2.935 (Simulation time: 00 hr 53 min 29 sec)
Heartbeat CPU 2 instructions: 190000001 cycles: 57345252 heartbeat IPC: 2.868 cumulative IPC: 2.929 (Simulation time: 00 hr 55 min 37 sec)
Heartbeat CPU 2 instructions: 200000004 cycles: 60816731 heartbeat IPC: 2.881 cumulative IPC: 2.925 (Simulation time: 00 hr 57 min 47 sec)
Heartbeat CPU 1 instructions: 90000000 cycles: 60929174 heartbeat IPC: 0.8506 cumulative IPC: 0.8374 (Simulation time: 00 hr 57 min 51 sec)
Heartbeat CPU 0 instructions: 60000000 cycles: 63429857 heartbeat IPC: 0.235 cumulative IPC: 0.235 (Simulation time: 00 hr 59 min 20 sec)
Heartbeat CPU 2 instructions: 210000004 cycles: 64316563 heartbeat IPC: 2.857 cumulative IPC: 2.919 (Simulation time: 00 hr 59 min 51 sec)
Heartbeat CPU 2 instructions: 220000001 cycles: 67775373 heartbeat IPC: 2.891 cumulative IPC: 2.917 (Simulation time: 01 hr 02 min 07 sec)
Heartbeat CPU 3 instructions: 80000000 cycles: 68047239 heartbeat IPC: 0.263 cumulative IPC: 0.2673 (Simulation time: 01 hr 02 min 20 sec)
Heartbeat CPU 2 instructions: 230000000 cycles: 71226983 heartbeat IPC: 2.897 cumulative IPC: 2.916 (Simulation time: 01 hr 04 min 21 sec)
Simulation finished CPU 2 instructions: 150000004 cycles: 51452160 cumulative IPC: 2.915 (Simulation time: 01 hr 05 min 00 sec)
Heartbeat CPU 1 instructions: 100000000 cycles: 72423002 heartbeat IPC: 0.87 cumulative IPC: 0.8447 (Simulation time: 01 hr 05 min 03 sec)
Heartbeat CPU 2 instructions: 240000002 cycles: 74704152 heartbeat IPC: 2.876 cumulative IPC: 2.913 (Simulation time: 01 hr 06 min 27 sec)
Heartbeat CPU 2 instructions: 250000004 cycles: 78150937 heartbeat IPC: 2.901 cumulative IPC: 2.913 (Simulation time: 01 hr 08 min 31 sec)
Heartbeat CPU 2 instructions: 260000002 cycles: 81604452 heartbeat IPC: 2.896 cumulative IPC: 2.912 (Simulation time: 01 hr 10 min 29 sec)
Heartbeat CPU 1 instructions: 110000003 cycles: 84198591 heartbeat IPC: 0.8492 cumulative IPC: 0.8455 (Simulation time: 01 hr 12 min 29 sec)
Heartbeat CPU 2 instructions: 270000004 cycles: 85045395 heartbeat IPC: 2.906 cumulative IPC: 2.911 (Simulation time: 01 hr 13 min 08 sec)
Heartbeat CPU 2 instructions: 280000004 cycles: 88470137 heartbeat IPC: 2.92 cumulative IPC: 2.912 (Simulation time: 01 hr 15 min 21 sec)
Heartbeat CPU 2 instructions: 290000003 cycles: 91912638 heartbeat IPC: 2.905 cumulative IPC: 2.911 (Simulation time: 01 hr 17 min 31 sec)
Heartbeat CPU 2 instructions: 300000000 cycles: 95336770 heartbeat IPC: 2.92 cumulative IPC: 2.912 (Simulation time: 01 hr 19 min 44 sec)
Heartbeat CPU 1 instructions: 120000004 cycles: 95831833 heartbeat IPC: 0.8596 cumulative IPC: 0.8477 (Simulation time: 01 hr 20 min 04 sec)
Heartbeat CPU 2 instructions: 310000004 cycles: 98771344 heartbeat IPC: 2.912 cumulative IPC: 2.912 (Simulation time: 01 hr 21 min 52 sec)
Heartbeat CPU 2 instructions: 320000001 cycles: 102198278 heartbeat IPC: 2.918 cumulative IPC: 2.912 (Simulation time: 01 hr 24 min 01 sec)
Heartbeat CPU 3 instructions: 90000004 cycles: 104221382 heartbeat IPC: 0.2764 cumulative IPC: 0.2713 (Simulation time: 01 hr 25 min 26 sec)
Heartbeat CPU 0 instructions: 70000002 cycles: 105385976 heartbeat IPC: 0.2383 cumulative IPC: 0.2366 (Simulation time: 01 hr 26 min 14 sec)
Heartbeat CPU 2 instructions: 330000001 cycles: 105622348 heartbeat IPC: 2.921 cumulative IPC: 2.912 (Simulation time: 01 hr 26 min 22 sec)
Heartbeat CPU 1 instructions: 130000001 cycles: 107716799 heartbeat IPC: 0.8414 cumulative IPC: 0.8468 (Simulation time: 01 hr 27 min 43 sec)
Heartbeat CPU 2 instructions: 340000002 cycles: 109084621 heartbeat IPC: 2.888 cumulative IPC: 2.911 (Simulation time: 01 hr 28 min 55 sec)
Heartbeat CPU 2 instructions: 350000001 cycles: 112544645 heartbeat IPC: 2.89 cumulative IPC: 2.911 (Simulation time: 01 hr 31 min 51 sec)
Heartbeat CPU 2 instructions: 360000001 cycles: 115990482 heartbeat IPC: 2.902 cumulative IPC: 2.91 (Simulation time: 01 hr 34 min 45 sec)
Heartbeat CPU 1 instructions: 140000002 cycles: 119294358 heartbeat IPC: 0.8637 cumulative IPC: 0.8488 (Simulation time: 01 hr 37 min 43 sec)
Heartbeat CPU 2 instructions: 370000001 cycles: 119414468 heartbeat IPC: 2.921 cumulative IPC: 2.911 (Simulation time: 01 hr 37 min 49 sec)
Heartbeat CPU 2 instructions: 380000001 cycles: 122853789 heartbeat IPC: 2.908 cumulative IPC: 2.911 (Simulation time: 01 hr 40 min 49 sec)
Heartbeat CPU 2 instructions: 390000000 cycles: 126327142 heartbeat IPC: 2.879 cumulative IPC: 2.91 (Simulation time: 01 hr 43 min 12 sec)
Heartbeat CPU 2 instructions: 400000002 cycles: 129662514 heartbeat IPC: 2.998 cumulative IPC: 2.912 (Simulation time: 01 hr 45 min 14 sec)
Heartbeat CPU 1 instructions: 150000004 cycles: 131286162 heartbeat IPC: 0.8339 cumulative IPC: 0.8472 (Simulation time: 01 hr 46 min 13 sec)
Heartbeat CPU 2 instructions: 410000004 cycles: 133166816 heartbeat IPC: 2.854 cumulative IPC: 2.91 (Simulation time: 01 hr 47 min 19 sec)
Heartbeat CPU 3 instructions: 100000000 cycles: 133882422 heartbeat IPC: 0.3371 cumulative IPC: 0.2886 (Simulation time: 01 hr 47 min 43 sec)
Heartbeat CPU 2 instructions: 420000001 cycles: 136570741 heartbeat IPC: 2.938 cumulative IPC: 2.911 (Simulation time: 01 hr 49 min 18 sec)
Heartbeat CPU 2 instructions: 430000003 cycles: 140228353 heartbeat IPC: 2.734 cumulative IPC: 2.906 (Simulation time: 01 hr 51 min 25 sec)
Heartbeat CPU 1 instructions: 160000004 cycles: 142874751 heartbeat IPC: 0.8629 cumulative IPC: 0.8487 (Simulation time: 01 hr 53 min 03 sec)
Heartbeat CPU 2 instructions: 440000000 cycles: 143701073 heartbeat IPC: 2.88 cumulative IPC: 2.905 (Simulation time: 01 hr 53 min 30 sec)
Heartbeat CPU 2 instructions: 450000001 cycles: 147750576 heartbeat IPC: 2.469 cumulative IPC: 2.891 (Simulation time: 01 hr 55 min 55 sec)
Heartbeat CPU 0 instructions: 80000002 cycles: 148218455 heartbeat IPC: 0.2335 cumulative IPC: 0.2356 (Simulation time: 01 hr 56 min 22 sec)
Heartbeat CPU 2 instructions: 460000000 cycles: 151121835 heartbeat IPC: 2.966 cumulative IPC: 2.893 (Simulation time: 01 hr 58 min 16 sec)
Heartbeat CPU 2 instructions: 470000002 cycles: 154528254 heartbeat IPC: 2.936 cumulative IPC: 2.894 (Simulation time: 02 hr 00 min 19 sec)
Heartbeat CPU 1 instructions: 170000000 cycles: 154982472 heartbeat IPC: 0.8259 cumulative IPC: 0.8466 (Simulation time: 02 hr 00 min 35 sec)
Heartbeat CPU 2 instructions: 480000002 cycles: 157942165 heartbeat IPC: 2.929 cumulative IPC: 2.895 (Simulation time: 02 hr 02 min 28 sec)
Heartbeat CPU 1 instructions: 180000001 cycles: 172978952 heartbeat IPC: 0.5557 cumulative IPC: 0.8122 (Simulation time: 02 hr 09 min 20 sec)
Heartbeat CPU 3 instructions: 110000000 cycles: 178262418 heartbeat IPC: 0.2253 cumulative IPC: 0.2707 (Simulation time: 02 hr 12 min 22 sec)
Heartbeat CPU 2 instructions: 490000001 cycles: 178853727 heartbeat IPC: 0.4782 cumulative IPC: 2.575 (Simulation time: 02 hr 12 min 54 sec)
Heartbeat CPU 2 instructions: 500000003 cycles: 183378932 heartbeat IPC: 2.21 cumulative IPC: 2.565 (Simulation time: 02 hr 15 min 46 sec)
Heartbeat CPU 2 instructions: 510000001 cycles: 187994854 heartbeat IPC: 2.166 cumulative IPC: 2.554 (Simulation time: 02 hr 18 min 26 sec)
Heartbeat CPU 1 instructions: 190000002 cycles: 188825530 heartbeat IPC: 0.6311 cumulative IPC: 0.7951 (Simulation time: 02 hr 19 min 06 sec)
Heartbeat CPU 2 instructions: 520000001 cycles: 192405189 heartbeat IPC: 2.267 cumulative IPC: 2.547 (Simulation time: 02 hr 21 min 25 sec)
Heartbeat CPU 2 instructions: 530000000 cycles: 196848087 heartbeat IPC: 2.251 cumulative IPC: 2.539 (Simulation time: 02 hr 24 min 05 sec)
Heartbeat CPU 2 instructions: 540000004 cycles: 201261481 heartbeat IPC: 2.266 cumulative IPC: 2.532 (Simulation time: 02 hr 26 min 49 sec)
Heartbeat CPU 1 instructions: 200000002 cycles: 202195494 heartbeat IPC: 0.7479 cumulative IPC: 0.7916 (Simulation time: 02 hr 27 min 22 sec)
Heartbeat CPU 2 instructions: 550000001 cycles: 205669670 heartbeat IPC: 2.269 cumulative IPC: 2.526 (Simulation time: 02 hr 29 min 34 sec)
Heartbeat CPU 0 instructions: 90000001 cycles: 209735932 heartbeat IPC: 0.1626 cumulative IPC: 0.2118 (Simulation time: 02 hr 31 min 59 sec)
Simulation finished CPU 1 instructions: 150000001 cycles: 190454641 cumulative IPC: 0.7876 (Simulation time: 02 hr 32 min 44 sec)
Heartbeat CPU 2 instructions: 560000000 cycles: 212269309 heartbeat IPC: 1.515 cumulative IPC: 2.491 (Simulation time: 02 hr 33 min 07 sec)
Heartbeat CPU 1 instructions: 210000003 cycles: 219152165 heartbeat IPC: 0.5897 cumulative IPC: 0.7744 (Simulation time: 02 hr 35 min 59 sec)
Heartbeat CPU 2 instructions: 570000003 cycles: 232415933 heartbeat IPC: 0.4964 cumulative IPC: 2.301 (Simulation time: 02 hr 42 min 53 sec)
Heartbeat CPU 3 instructions: 120000003 cycles: 232841209 heartbeat IPC: 0.1832 cumulative IPC: 0.2482 (Simulation time: 02 hr 43 min 11 sec)
Heartbeat CPU 2 instructions: 580000000 cycles: 236978630 heartbeat IPC: 2.192 cumulative IPC: 2.299 (Simulation time: 02 hr 45 min 58 sec)
Heartbeat CPU 1 instructions: 220000000 cycles: 237668693 heartbeat IPC: 0.5401 cumulative IPC: 0.7544 (Simulation time: 02 hr 46 min 25 sec)
Heartbeat CPU 2 instructions: 590000004 cycles: 241393355 heartbeat IPC: 2.265 cumulative IPC: 2.298 (Simulation time: 02 hr 49 min 02 sec)
Heartbeat CPU 2 instructions: 600000004 cycles: 245765677 heartbeat IPC: 2.287 cumulative IPC: 2.298 (Simulation time: 02 hr 51 min 42 sec)
Heartbeat CPU 2 instructions: 610000000 cycles: 250156808 heartbeat IPC: 2.277 cumulative IPC: 2.298 (Simulation time: 02 hr 54 min 09 sec)
Heartbeat CPU 1 instructions: 230000002 cycles: 251074434 heartbeat IPC: 0.7459 cumulative IPC: 0.7539 (Simulation time: 02 hr 54 min 39 sec)
Heartbeat CPU 2 instructions: 620000002 cycles: 254542681 heartbeat IPC: 2.28 cumulative IPC: 2.297 (Simulation time: 02 hr 56 min 38 sec)
Heartbeat CPU 2 instructions: 630000004 cycles: 258962784 heartbeat IPC: 2.262 cumulative IPC: 2.297 (Simulation time: 02 hr 59 min 12 sec)
Heartbeat CPU 1 instructions: 240000003 cycles: 266989155 heartbeat IPC: 0.6283 cumulative IPC: 0.7458 (Simulation time: 03 hr 03 min 28 sec)
Heartbeat CPU 2 instructions: 640000004 cycles: 281238986 heartbeat IPC: 0.4489 cumulative IPC: 2.139 (Simulation time: 03 hr 10 min 11 sec)
Heartbeat CPU 2 instructions: 650000003 cycles: 285723158 heartbeat IPC: 2.23 cumulative IPC: 2.14 (Simulation time: 03 hr 12 min 39 sec)
Heartbeat CPU 3 instructions: 130000000 cycles: 286693786 heartbeat IPC: 0.1857 cumulative IPC: 0.2355 (Simulation time: 03 hr 13 min 09 sec)
Heartbeat CPU 1 instructions: 250000003 cycles: 286696193 heartbeat IPC: 0.5074 cumulative IPC: 0.7281 (Simulation time: 03 hr 13 min 09 sec)
Heartbeat CPU 2 instructions: 660000003 cycles: 290248589 heartbeat IPC: 2.21 cumulative IPC: 2.141 (Simulation time: 03 hr 15 min 09 sec)
Heartbeat CPU 0 instructions: 100000000 cycles: 291901789 heartbeat IPC: 0.1217 cumulative IPC: 0.1845 (Simulation time: 03 hr 16 min 06 sec)
Heartbeat CPU 2 instructions: 670000002 cycles: 294624708 heartbeat IPC: 2.285 cumulative IPC: 2.144 (Simulation time: 03 hr 17 min 41 sec)
Heartbeat CPU 2 instructions: 680000002 cycles: 299074652 heartbeat IPC: 2.247 cumulative IPC: 2.145 (Simulation time: 03 hr 20 min 15 sec)
Heartbeat CPU 1 instructions: 260000001 cycles: 300435983 heartbeat IPC: 0.7278 cumulative IPC: 0.7281 (Simulation time: 03 hr 21 min 00 sec)
Heartbeat CPU 2 instructions: 690000000 cycles: 303500197 heartbeat IPC: 2.26 cumulative IPC: 2.147 (Simulation time: 03 hr 22 min 45 sec)
Heartbeat CPU 2 instructions: 700000000 cycles: 307988157 heartbeat IPC: 2.228 cumulative IPC: 2.148 (Simulation time: 03 hr 25 min 16 sec)
Heartbeat CPU 1 instructions: 270000002 cycles: 315138264 heartbeat IPC: 0.6802 cumulative IPC: 0.7257 (Simulation time: 03 hr 28 min 51 sec)
Heartbeat CPU 2 instructions: 710000002 cycles: 326155817 heartbeat IPC: 0.5504 cumulative IPC: 2.053 (Simulation time: 03 hr 33 min 48 sec)
Heartbeat CPU 2 instructions: 720000002 cycles: 334879340 heartbeat IPC: 1.146 cumulative IPC: 2.028 (Simulation time: 03 hr 38 min 11 sec)
Heartbeat CPU 1 instructions: 280000000 cycles: 335853928 heartbeat IPC: 0.4827 cumulative IPC: 0.7097 (Simulation time: 03 hr 38 min 42 sec)
Heartbeat CPU 2 instructions: 730000004 cycles: 339485396 heartbeat IPC: 2.171 cumulative IPC: 2.03 (Simulation time: 03 hr 40 min 41 sec)
Heartbeat CPU 3 instructions: 140000002 cycles: 342530165 heartbeat IPC: 0.1791 cumulative IPC: 0.2257 (Simulation time: 03 hr 42 min 34 sec)
Heartbeat CPU 2 instructions: 740000001 cycles: 343929639 heartbeat IPC: 2.25 cumulative IPC: 2.033 (Simulation time: 03 hr 43 min 26 sec)
Heartbeat CPU 2 instructions: 750000000 cycles: 348345560 heartbeat IPC: 2.265 cumulative IPC: 2.036 (Simulation time: 03 hr 46 min 09 sec)
Heartbeat CPU 1 instructions: 290000003 cycles: 349746409 heartbeat IPC: 0.7198 cumulative IPC: 0.7101 (Simulation time: 03 hr 46 min 59 sec)
Heartbeat CPU 2 instructions: 760000002 cycles: 352793503 heartbeat IPC: 2.248 cumulative IPC: 2.039 (Simulation time: 03 hr 48 min 40 sec)
Heartbeat CPU 2 instructions: 770000004 cycles: 357269184 heartbeat IPC: 2.234 cumulative IPC: 2.042 (Simulation time: 03 hr 51 min 03 sec)
Heartbeat CPU 0 instructions: 110000004 cycles: 359371516 heartbeat IPC: 0.1482 cumulative IPC: 0.1773 (Simulation time: 03 hr 52 min 12 sec)
Heartbeat CPU 2 instructions: 780000003 cycles: 361708258 heartbeat IPC: 2.253 cumulative IPC: 2.044 (Simulation time: 03 hr 53 min 29 sec)
Heartbeat CPU 1 instructions: 300000001 cycles: 363314145 heartbeat IPC: 0.737 cumulative IPC: 0.7112 (Simulation time: 03 hr 54 min 23 sec)
Heartbeat CPU 2 instructions: 790000003 cycles: 383622688 heartbeat IPC: 0.4563 cumulative IPC: 1.949 (Simulation time: 04 hr 03 min 54 sec)
Heartbeat CPU 1 instructions: 310000000 cycles: 384246483 heartbeat IPC: 0.4777 cumulative IPC: 0.6977 (Simulation time: 04 hr 04 min 16 sec)
Heartbeat CPU 2 instructions: 800000003 cycles: 388101118 heartbeat IPC: 2.233 cumulative IPC: 1.952 (Simulation time: 04 hr 06 min 30 sec)
Heartbeat CPU 2 instructions: 810000004 cycles: 392558202 heartbeat IPC: 2.244 cumulative IPC: 1.955 (Simulation time: 04 hr 09 min 02 sec)
Heartbeat CPU 3 instructions: 150000000 cycles: 395849285 heartbeat IPC: 0.1875 cumulative IPC: 0.2203 (Simulation time: 04 hr 10 min 50 sec)
Heartbeat CPU 2 instructions: 820000004 cycles: 396889777 heartbeat IPC: 2.309 cumulative IPC: 1.96 (Simulation time: 04 hr 11 min 24 sec)
Heartbeat CPU 1 instructions: 320000001 cycles: 397956161 heartbeat IPC: 0.7294 cumulative IPC: 0.6989 (Simulation time: 04 hr 11 min 58 sec)
Heartbeat CPU 2 instructions: 830000003 cycles: 401358077 heartbeat IPC: 2.238 cumulative IPC: 1.963 (Simulation time: 04 hr 13 min 51 sec)
Heartbeat CPU 2 instructions: 840000000 cycles: 405677888 heartbeat IPC: 2.315 cumulative IPC: 1.967 (Simulation time: 04 hr 16 min 10 sec)
Heartbeat CPU 2 instructions: 850000002 cycles: 410058761 heartbeat IPC: 2.283 cumulative IPC: 1.97 (Simulation time: 04 hr 18 min 35 sec)
Heartbeat CPU 1 instructions: 330000001 cycles: 411333361 heartbeat IPC: 0.7475 cumulative IPC: 0.7006 (Simulation time: 04 hr 19 min 18 sec)
Heartbeat CPU 2 instructions: 860000002 cycles: 432112935 heartbeat IPC: 0.4534 cumulative IPC: 1.889 (Simulation time: 04 hr 28 min 57 sec)
Heartbeat CPU 1 instructions: 340000000 cycles: 432875183 heartbeat IPC: 0.4642 cumulative IPC: 0.6882 (Simulation time: 04 hr 29 min 22 sec)
Heartbeat CPU 2 instructions: 870000001 cycles: 436601792 heartbeat IPC: 2.228 cumulative IPC: 1.893 (Simulation time: 04 hr 31 min 22 sec)
Heartbeat CPU 0 instructions: 120000004 cycles: 439185993 heartbeat IPC: 0.1253 cumulative IPC: 0.1673 (Simulation time: 04 hr 32 min 47 sec)
Heartbeat CPU 2 instructions: 880000000 cycles: 441150750 heartbeat IPC: 2.198 cumulative IPC: 1.896 (Simulation time: 04 hr 33 min 52 sec)
Heartbeat CPU 2 instructions: 890000002 cycles: 445600730 heartbeat IPC: 2.247 cumulative IPC: 1.9 (Simulation time: 04 hr 36 min 22 sec)
Heartbeat CPU 1 instructions: 350000000 cycles: 446563912 heartbeat IPC: 0.7305 cumulative IPC: 0.6896 (Simulation time: 04 hr 36 min 55 sec)
Heartbeat CPU 3 instructions: 160000002 cycles: 447956138 heartbeat IPC: 0.1919 cumulative IPC: 0.2168 (Simulation time: 04 hr 37 min 45 sec)
Heartbeat CPU 2 instructions: 900000002 cycles: 450052514 heartbeat IPC: 2.246 cumulative IPC: 1.903 (Simulation time: 04 hr 38 min 54 sec)
Heartbeat CPU 2 instructions: 910000001 cycles: 454497709 heartbeat IPC: 2.25 cumulative IPC: 1.907 (Simulation time: 04 hr 41 min 22 sec)
Heartbeat CPU 2 instructions: 920000004 cycles: 458844240 heartbeat IPC: 2.301 cumulative IPC: 1.911 (Simulation time: 04 hr 43 min 45 sec)
Heartbeat CPU 1 instructions: 360000000 cycles: 459812922 heartbeat IPC: 0.7548 cumulative IPC: 0.6915 (Simulation time: 04 hr 44 min 15 sec)
Heartbeat CPU 2 instructions: 930000000 cycles: 463239780 heartbeat IPC: 2.275 cumulative IPC: 1.914 (Simulation time: 04 hr 46 min 09 sec)
Heartbeat CPU 1 instructions: 370000001 cycles: 480096972 heartbeat IPC: 0.493 cumulative IPC: 0.6828 (Simulation time: 04 hr 53 min 11 sec)
Heartbeat CPU 2 instructions: 940000000 cycles: 485337545 heartbeat IPC: 0.4525 cumulative IPC: 1.845 (Simulation time: 04 hr 55 min 41 sec)
Heartbeat CPU 2 instructions: 950000002 cycles: 489899193 heartbeat IPC: 2.192 cumulative IPC: 1.848 (Simulation time: 04 hr 58 min 02 sec)
Heartbeat CPU 2 instructions: 960000000 cycles: 494378367 heartbeat IPC: 2.233 cumulative IPC: 1.852 (Simulation time: 05 hr 00 min 21 sec)
Heartbeat CPU 1 instructions: 380000002 cycles: 495044919 heartbeat IPC: 0.669 cumulative IPC: 0.6823 (Simulation time: 05 hr 00 min 42 sec)
Heartbeat CPU 2 instructions: 970000000 cycles: 498808462 heartbeat IPC: 2.257 cumulative IPC: 1.856 (Simulation time: 05 hr 02 min 40 sec)
Heartbeat CPU 3 instructions: 170000000 cycles: 501960096 heartbeat IPC: 0.1852 cumulative IPC: 0.2133 (Simulation time: 05 hr 04 min 20 sec)
Heartbeat CPU 2 instructions: 980000000 cycles: 503251690 heartbeat IPC: 2.251 cumulative IPC: 1.859 (Simulation time: 05 hr 05 min 01 sec)
Heartbeat CPU 0 instructions: 130000002 cycles: 506472749 heartbeat IPC: 0.1486 cumulative IPC: 0.1647 (Simulation time: 05 hr 06 min 43 sec)
Heartbeat CPU 2 instructions: 990000004 cycles: 507620810 heartbeat IPC: 2.289 cumulative IPC: 1.863 (Simulation time: 05 hr 07 min 21 sec)
Heartbeat CPU 1 instructions: 390000004 cycles: 508525375 heartbeat IPC: 0.7418 cumulative IPC: 0.684 (Simulation time: 05 hr 07 min 48 sec)
Heartbeat CPU 2 instructions: 1000000003 cycles: 512086184 heartbeat IPC: 2.239 cumulative IPC: 1.866 (Simulation time: 05 hr 09 min 36 sec)
Heartbeat CPU 1 instructions: 400000003 cycles: 526781333 heartbeat IPC: 0.5478 cumulative IPC: 0.6791 (Simulation time: 05 hr 15 min 38 sec)
Heartbeat CPU 2 instructions: 1010000003 cycles: 534332556 heartbeat IPC: 0.4495 cumulative IPC: 1.805 (Simulation time: 05 hr 18 min 48 sec)
Heartbeat CPU 2 instructions: 1020000001 cycles: 538833370 heartbeat IPC: 2.222 cumulative IPC: 1.809 (Simulation time: 05 hr 21 min 03 sec)
Heartbeat CPU 2 instructions: 1030000000 cycles: 543444270 heartbeat IPC: 2.169 cumulative IPC: 1.812 (Simulation time: 05 hr 23 min 23 sec)
Heartbeat CPU 1 instructions: 410000002 cycles: 543773757 heartbeat IPC: 0.5885 cumulative IPC: 0.6761 (Simulation time: 05 hr 23 min 34 sec)
Heartbeat CPU 2 instructions: 1040000001 cycles: 547813904 heartbeat IPC: 2.289 cumulative IPC: 1.816 (Simulation time: 05 hr 25 min 40 sec)
Heartbeat CPU 2 instructions: 1050000000 cycles: 552244561 heartbeat IPC: 2.257 cumulative IPC: 1.819 (Simulation time: 05 hr 27 min 56 sec)
Heartbeat CPU 3 instructions: 180000004 cycles: 554586679 heartbeat IPC: 0.19 cumulative IPC: 0.211 (Simulation time: 05 hr 29 min 08 sec)
Heartbeat CPU 2 instructions: 1060000003 cycles: 556620941 heartbeat IPC: 2.285 cumulative IPC: 1.823 (Simulation time: 05 hr 30 min 09 sec)
Heartbeat CPU 1 instructions: 420000000 cycles: 557057016 heartbeat IPC: 0.7528 cumulative IPC: 0.678 (Simulation time: 05 hr 30 min 22 sec)
Heartbeat CPU 2 instructions: 1070000002 cycles: 561032693 heartbeat IPC: 2.267 cumulative IPC: 1.827 (Simulation time: 05 hr 32 min 23 sec)
Heartbeat CPU 2 instructions: 1080000002 cycles: 572147107 heartbeat IPC: 0.8997 cumulative IPC: 1.808 (Simulation time: 05 hr 37 min 10 sec)
Heartbeat CPU 1 instructions: 430000003 cycles: 573974014 heartbeat IPC: 0.5911 cumulative IPC: 0.6754 (Simulation time: 05 hr 37 min 52 sec)
Heartbeat CPU 0 instructions: 140000001 cycles: 585682018 heartbeat IPC: 0.1262 cumulative IPC: 0.1593 (Simulation time: 05 hr 42 min 43 sec)
Heartbeat CPU 2 instructions: 1090000001 cycles: 587435491 heartbeat IPC: 0.6541 cumulative IPC: 1.777 (Simulation time: 05 hr 43 min 36 sec)
Heartbeat CPU 2 instructions: 1100000000 cycles: 592018121 heartbeat IPC: 2.182 cumulative IPC: 1.78 (Simulation time: 05 hr 45 min 52 sec)
Heartbeat CPU 1 instructions: 440000002 cycles: 592437056 heartbeat IPC: 0.5416 cumulative IPC: 0.671 (Simulation time: 05 hr 46 min 05 sec)
Heartbeat CPU 2 instructions: 1110000000 cycles: 596528676 heartbeat IPC: 2.217 cumulative IPC: 1.784 (Simulation time: 05 hr 48 min 10 sec)
Heartbeat CPU 2 instructions: 1120000000 cycles: 600922163 heartbeat IPC: 2.276 cumulative IPC: 1.787 (Simulation time: 05 hr 50 min 25 sec)
Heartbeat CPU 2 instructions: 1130000001 cycles: 605368501 heartbeat IPC: 2.249 cumulative IPC: 1.791 (Simulation time: 05 hr 52 min 39 sec)
Heartbeat CPU 1 instructions: 450000000 cycles: 605912870 heartbeat IPC: 0.7421 cumulative IPC: 0.6727 (Simulation time: 05 hr 52 min 57 sec)
Heartbeat CPU 3 instructions: 190000003 cycles: 608401364 heartbeat IPC: 0.1858 cumulative IPC: 0.2087 (Simulation time: 05 hr 54 min 14 sec)
Heartbeat CPU 2 instructions: 1140000001 cycles: 609711465 heartbeat IPC: 2.303 cumulative IPC: 1.795 (Simulation time: 05 hr 54 min 53 sec)
Heartbeat CPU 2 instructions: 1150000002 cycles: 614110559 heartbeat IPC: 2.273 cumulative IPC: 1.798 (Simulation time: 05 hr 57 min 10 sec)
Heartbeat CPU 1 instructions: 460000001 cycles: 621423185 heartbeat IPC: 0.6447 cumulative IPC: 0.672 (Simulation time: 06 hr 00 min 06 sec)
Heartbeat CPU 2 instructions: 1160000002 cycles: 636275802 heartbeat IPC: 0.4512 cumulative IPC: 1.75 (Simulation time: 06 hr 06 min 38 sec)
Heartbeat CPU 2 instructions: 1170000000 cycles: 640716543 heartbeat IPC: 2.252 cumulative IPC: 1.753 (Simulation time: 06 hr 08 min 56 sec)
Heartbeat CPU 1 instructions: 470000001 cycles: 641273215 heartbeat IPC: 0.5038 cumulative IPC: 0.6666 (Simulation time: 06 hr 09 min 12 sec)
Heartbeat CPU 2 instructions: 1180000001 cycles: 645224868 heartbeat IPC: 2.218 cumulative IPC: 1.757 (Simulation time: 06 hr 11 min 13 sec)
Heartbeat CPU 2 instructions: 1190000000 cycles: 649521651 heartbeat IPC: 2.327 cumulative IPC: 1.761 (Simulation time: 06 hr 13 min 26 sec)
Heartbeat CPU 0 instructions: 150000003 cycles: 652884902 heartbeat IPC: 0.1488 cumulative IPC: 0.1582 (Simulation time: 06 hr 15 min 09 sec)
Heartbeat CPU 2 instructions: 1200000000 cycles: 653936934 heartbeat IPC: 2.265 cumulative IPC: 1.764 (Simulation time: 06 hr 15 min 41 sec)
Heartbeat CPU 1 instructions: 480000002 cycles: 654608175 heartbeat IPC: 0.7499 cumulative IPC: 0.6683 (Simulation time: 06 hr 16 min 03 sec)
Heartbeat CPU 2 instructions: 1210000000 cycles: 658313474 heartbeat IPC: 2.285 cumulative IPC: 1.768 (Simulation time: 06 hr 17 min 59 sec)
Heartbeat CPU 3 instructions: 200000000 cycles: 662247875 heartbeat IPC: 0.1857 cumulative IPC: 0.2068 (Simulation time: 06 hr 20 min 01 sec)
Heartbeat CPU 2 instructions: 1220000001 cycles: 662695377 heartbeat IPC: 2.282 cumulative IPC: 1.771 (Simulation time: 06 hr 20 min 16 sec)
Heartbeat CPU 1 instructions: 490000001 cycles: 669166530 heartbeat IPC: 0.6869 cumulative IPC: 0.6687 (Simulation time: 06 hr 23 min 09 sec)
Heartbeat CPU 2 instructions: 1230000000 cycles: 679894847 heartbeat IPC: 0.5814 cumulative IPC: 1.74 (Simulation time: 06 hr 27 min 37 sec)
Heartbeat CPU 1 instructions: 500000001 cycles: 690773487 heartbeat IPC: 0.4628 cumulative IPC: 0.6621 (Simulation time: 06 hr 32 min 26 sec)
Heartbeat CPU 2 instructions: 1240000003 cycles: 701215691 heartbeat IPC: 0.469 cumulative IPC: 1.7 (Simulation time: 06 hr 36 min 49 sec)
Heartbeat CPU 1 instructions: 510000004 cycles: 713560731 heartbeat IPC: 0.4388 cumulative IPC: 0.6548 (Simulation time: 06 hr 41 min 55 sec)
Heartbeat CPU 2 instructions: 1250000003 cycles: 726710846 heartbeat IPC: 0.3922 cumulative IPC: 1.653 (Simulation time: 06 hr 47 min 22 sec)
Heartbeat CPU 1 instructions: 520000001 cycles: 738254652 heartbeat IPC: 0.405 cumulative IPC: 0.6462 (Simulation time: 06 hr 52 min 05 sec)
Heartbeat CPU 2 instructions: 1260000000 cycles: 760240442 heartbeat IPC: 0.2982 cumulative IPC: 1.592 (Simulation time: 07 hr 01 min 17 sec)
Heartbeat CPU 1 instructions: 530000001 cycles: 761740191 heartbeat IPC: 0.4258 cumulative IPC: 0.6392 (Simulation time: 07 hr 01 min 56 sec)
Heartbeat CPU 1 instructions: 540000000 cycles: 783424763 heartbeat IPC: 0.4612 cumulative IPC: 0.6341 (Simulation time: 07 hr 11 min 07 sec)
Heartbeat CPU 2 instructions: 1270000004 cycles: 784964117 heartbeat IPC: 0.4045 cumulative IPC: 1.553 (Simulation time: 07 hr 11 min 46 sec)
Heartbeat CPU 0 instructions: 160000002 cycles: 788951381 heartbeat IPC: 0.07349 cumulative IPC: 0.1432 (Simulation time: 07 hr 13 min 28 sec)
Heartbeat CPU 1 instructions: 550000000 cycles: 805054362 heartbeat IPC: 0.4623 cumulative IPC: 0.6294 (Simulation time: 07 hr 20 min 42 sec)
Heartbeat CPU 2 instructions: 1280000002 cycles: 809773244 heartbeat IPC: 0.4031 cumulative IPC: 1.517 (Simulation time: 07 hr 22 min 46 sec)
Heartbeat CPU 3 instructions: 210000000 cycles: 813144290 heartbeat IPC: 0.06627 cumulative IPC: 0.18 (Simulation time: 07 hr 24 min 19 sec)
Heartbeat CPU 1 instructions: 560000002 cycles: 828714493 heartbeat IPC: 0.4227 cumulative IPC: 0.6233 (Simulation time: 07 hr 31 min 12 sec)
Heartbeat CPU 2 instructions: 1290000001 cycles: 837971291 heartbeat IPC: 0.3546 cumulative IPC: 1.477 (Simulation time: 07 hr 35 min 10 sec)
Heartbeat CPU 1 instructions: 570000001 cycles: 850031743 heartbeat IPC: 0.4691 cumulative IPC: 0.6194 (Simulation time: 07 hr 40 min 18 sec)
Heartbeat CPU 2 instructions: 1300000001 cycles: 866927600 heartbeat IPC: 0.3453 cumulative IPC: 1.438 (Simulation time: 07 hr 47 min 40 sec)
Heartbeat CPU 1 instructions: 580000000 cycles: 873640643 heartbeat IPC: 0.4236 cumulative IPC: 0.6139 (Simulation time: 07 hr 50 min 31 sec)
Heartbeat CPU 2 instructions: 1310000004 cycles: 893432545 heartbeat IPC: 0.3773 cumulative IPC: 1.406 (Simulation time: 07 hr 59 min 31 sec)
Heartbeat CPU 1 instructions: 590000003 cycles: 895665136 heartbeat IPC: 0.454 cumulative IPC: 0.6099 (Simulation time: 08 hr 00 min 29 sec)
Heartbeat CPU 2 instructions: 1320000003 cycles: 920671281 heartbeat IPC: 0.3671 cumulative IPC: 1.375 (Simulation time: 08 hr 11 min 22 sec)
Heartbeat CPU 1 instructions: 600000004 cycles: 922306215 heartbeat IPC: 0.3754 cumulative IPC: 0.603 (Simulation time: 08 hr 12 min 05 sec)
Simulation finished CPU 3 instructions: 150000001 cycles: 911477851 cumulative IPC: 0.1646 (Simulation time: 08 hr 16 min 33 sec)
Heartbeat CPU 1 instructions: 610000001 cycles: 944947594 heartbeat IPC: 0.4417 cumulative IPC: 0.599 (Simulation time: 08 hr 22 min 02 sec)
Heartbeat CPU 0 instructions: 170000001 cycles: 950964665 heartbeat IPC: 0.06172 cumulative IPC: 0.129 (Simulation time: 08 hr 24 min 42 sec)
Heartbeat CPU 2 instructions: 1330000000 cycles: 954078974 heartbeat IPC: 0.2993 cumulative IPC: 1.336 (Simulation time: 08 hr 26 min 07 sec)
Heartbeat CPU 1 instructions: 620000000 cycles: 968521242 heartbeat IPC: 0.4242 cumulative IPC: 0.5947 (Simulation time: 08 hr 32 min 31 sec)
Heartbeat CPU 3 instructions: 220000004 cycles: 976963251 heartbeat IPC: 0.06104 cumulative IPC: 0.1596 (Simulation time: 08 hr 36 min 12 sec)
Heartbeat CPU 2 instructions: 1340000000 cycles: 979839139 heartbeat IPC: 0.3882 cumulative IPC: 1.311 (Simulation time: 08 hr 37 min 33 sec)
Heartbeat CPU 1 instructions: 630000003 cycles: 991532276 heartbeat IPC: 0.4346 cumulative IPC: 0.5909 (Simulation time: 08 hr 42 min 37 sec)
Heartbeat CPU 2 instructions: 1350000001 cycles: 1001964006 heartbeat IPC: 0.452 cumulative IPC: 1.291 (Simulation time: 08 hr 47 min 02 sec)
Heartbeat CPU 1 instructions: 640000004 cycles: 1015927896 heartbeat IPC: 0.4099 cumulative IPC: 0.5864 (Simulation time: 08 hr 52 min 52 sec)
Heartbeat CPU 1 instructions: 650000000 cycles: 1037392997 heartbeat IPC: 0.4659 cumulative IPC: 0.5839 (Simulation time: 09 hr 01 min 55 sec)
Heartbeat CPU 2 instructions: 1360000002 cycles: 1040077185 heartbeat IPC: 0.2624 cumulative IPC: 1.253 (Simulation time: 09 hr 03 min 05 sec)
Heartbeat CPU 1 instructions: 660000002 cycles: 1060499386 heartbeat IPC: 0.4328 cumulative IPC: 0.5805 (Simulation time: 09 hr 11 min 54 sec)
Heartbeat CPU 2 instructions: 1370000004 cycles: 1060890142 heartbeat IPC: 0.4805 cumulative IPC: 1.237 (Simulation time: 09 hr 12 min 04 sec)
Heartbeat CPU 1 instructions: 670000003 cycles: 1082777579 heartbeat IPC: 0.4489 cumulative IPC: 0.5778 (Simulation time: 09 hr 22 min 24 sec)
Heartbeat CPU 2 instructions: 1380000001 cycles: 1086216109 heartbeat IPC: 0.3949 cumulative IPC: 1.217 (Simulation time: 09 hr 24 min 05 sec)
Heartbeat CPU 1 instructions: 680000002 cycles: 1106204753 heartbeat IPC: 0.4269 cumulative IPC: 0.5745 (Simulation time: 09 hr 32 min 41 sec)
Heartbeat CPU 0 instructions: 180000001 cycles: 1118799348 heartbeat IPC: 0.05958 cumulative IPC: 0.1184 (Simulation time: 09 hr 37 min 54 sec)
Heartbeat CPU 2 instructions: 1390000001 cycles: 1121892173 heartbeat IPC: 0.2803 cumulative IPC: 1.187 (Simulation time: 09 hr 39 min 14 sec)
Heartbeat CPU 1 instructions: 690000004 cycles: 1127161899 heartbeat IPC: 0.4772 cumulative IPC: 0.5727 (Simulation time: 09 hr 41 min 27 sec)
Heartbeat CPU 2 instructions: 1400000004 cycles: 1144950197 heartbeat IPC: 0.4337 cumulative IPC: 1.171 (Simulation time: 09 hr 48 min 47 sec)
Heartbeat CPU 3 instructions: 230000000 cycles: 1150253405 heartbeat IPC: 0.05771 cumulative IPC: 0.144 (Simulation time: 09 hr 51 min 04 sec)
Heartbeat CPU 1 instructions: 700000002 cycles: 1151150298 heartbeat IPC: 0.4169 cumulative IPC: 0.5694 (Simulation time: 09 hr 51 min 27 sec)
Heartbeat CPU 2 instructions: 1410000004 cycles: 1170117984 heartbeat IPC: 0.3973 cumulative IPC: 1.155 (Simulation time: 09 hr 59 min 46 sec)
Heartbeat CPU 1 instructions: 710000000 cycles: 1173797108 heartbeat IPC: 0.4416 cumulative IPC: 0.5669 (Simulation time: 10 hr 01 min 21 sec)
Heartbeat CPU 1 instructions: 720000002 cycles: 1196852449 heartbeat IPC: 0.4337 cumulative IPC: 0.5642 (Simulation time: 10 hr 11 min 04 sec)
Heartbeat CPU 2 instructions: 1420000004 cycles: 1200866637 heartbeat IPC: 0.3252 cumulative IPC: 1.133 (Simulation time: 10 hr 12 min 47 sec)
Heartbeat CPU 1 instructions: 730000003 cycles: 1217926687 heartbeat IPC: 0.4745 cumulative IPC: 0.5627 (Simulation time: 10 hr 20 min 13 sec)
Heartbeat CPU 2 instructions: 1430000004 cycles: 1227991906 heartbeat IPC: 0.3687 cumulative IPC: 1.116 (Simulation time: 10 hr 24 min 15 sec)
Heartbeat CPU 1 instructions: 740000002 cycles: 1242965258 heartbeat IPC: 0.3994 cumulative IPC: 0.5593 (Simulation time: 10 hr 31 min 43 sec)
Heartbeat CPU 2 instructions: 1440000004 cycles: 1254041176 heartbeat IPC: 0.3839 cumulative IPC: 1.1 (Simulation time: 10 hr 36 min 37 sec)
Heartbeat CPU 1 instructions: 750000001 cycles: 1267363384 heartbeat IPC: 0.4099 cumulative IPC: 0.5564 (Simulation time: 10 hr 42 min 02 sec)
Heartbeat CPU 2 instructions: 1450000000 cycles: 1283460891 heartbeat IPC: 0.3399 cumulative IPC: 1.083 (Simulation time: 10 hr 48 min 37 sec)
Heartbeat CPU 0 instructions: 190000003 cycles: 1283906670 heartbeat IPC: 0.06057 cumulative IPC: 0.1108 (Simulation time: 10 hr 48 min 49 sec)
Heartbeat CPU 1 instructions: 760000004 cycles: 1291559002 heartbeat IPC: 0.4133 cumulative IPC: 0.5537 (Simulation time: 10 hr 52 min 14 sec)
Heartbeat CPU 3 instructions: 240000002 cycles: 1303319167 heartbeat IPC: 0.06533 cumulative IPC: 0.1346 (Simulation time: 10 hr 57 min 14 sec)
Heartbeat CPU 1 instructions: 770000003 cycles: 1312188277 heartbeat IPC: 0.4847 cumulative IPC: 0.5526 (Simulation time: 11 hr 01 min 04 sec)
Heartbeat CPU 2 instructions: 1460000000 cycles: 1313576951 heartbeat IPC: 0.332 cumulative IPC: 1.065 (Simulation time: 11 hr 01 min 41 sec)
Heartbeat CPU 1 instructions: 780000002 cycles: 1335083021 heartbeat IPC: 0.4368 cumulative IPC: 0.5506 (Simulation time: 11 hr 10 min 54 sec)
Heartbeat CPU 2 instructions: 1470000004 cycles: 1339075242 heartbeat IPC: 0.3922 cumulative IPC: 1.052 (Simulation time: 11 hr 12 min 37 sec)
Heartbeat CPU 1 instructions: 790000001 cycles: 1359072831 heartbeat IPC: 0.4168 cumulative IPC: 0.5482 (Simulation time: 11 hr 20 min 57 sec)
Heartbeat CPU 2 instructions: 1480000001 cycles: 1363481028 heartbeat IPC: 0.4097 cumulative IPC: 1.04 (Simulation time: 11 hr 22 min 48 sec)
Heartbeat CPU 1 instructions: 800000000 cycles: 1384351973 heartbeat IPC: 0.3956 cumulative IPC: 0.5453 (Simulation time: 11 hr 31 min 24 sec)
Heartbeat CPU 2 instructions: 1490000002 cycles: 1398259849 heartbeat IPC: 0.2875 cumulative IPC: 1.021 (Simulation time: 11 hr 37 min 21 sec)
Heartbeat CPU 1 instructions: 810000004 cycles: 1406096309 heartbeat IPC: 0.4599 cumulative IPC: 0.544 (Simulation time: 11 hr 40 min 36 sec)
Heartbeat CPU 2 instructions: 1500000002 cycles: 1422058438 heartbeat IPC: 0.4202 cumulative IPC: 1.011 (Simulation time: 11 hr 47 min 10 sec)
Heartbeat CPU 1 instructions: 820000002 cycles: 1427564430 heartbeat IPC: 0.4658 cumulative IPC: 0.5428 (Simulation time: 11 hr 49 min 30 sec)
Heartbeat CPU 0 instructions: 200000001 cycles: 1441092654 heartbeat IPC: 0.06362 cumulative IPC: 0.1056 (Simulation time: 11 hr 55 min 05 sec)
Simulation finished CPU 0 instructions: 150000003 cycles: 1420219957 cumulative IPC: 0.1056 (Simulation time: 11 hr 55 min 05 sec)
Simulation complete CPU 0 instructions: 150000003 cycles: 1420219957 cumulative IPC: 0.1056 (Simulation time: 11 hr 55 min 05 sec)
Simulation complete CPU 1 instructions: 769231100 cycles: 1420219957 cumulative IPC: 0.5416 (Simulation time: 11 hr 55 min 05 sec)
Simulation complete CPU 2 instructions: 1425648468 cycles: 1420219957 cumulative IPC: 1.004 (Simulation time: 11 hr 55 min 05 sec)
Simulation complete CPU 3 instructions: 181438924 cycles: 1420219957 cumulative IPC: 0.1278 (Simulation time: 11 hr 55 min 05 sec)

ChampSim completed all CPUs

=== Simulation ===
CPU 0 runs /home/das/dpc3_traces/620.omnetpp_s-874B.champsimtrace.xzCPU 1 runs /home/das/dpc3_traces/607.cactuBSSN_s-2421B.champsimtrace.xzCPU 2 runs /home/das/dpc3_traces/654.roms_s-842B.champsimtrace.xzCPU 3 runs /home/das/dpc3_traces/605.mcf_s-665B.champsimtrace.xz
Total Simulation Statistics (not including warmup)

CPU 0 cumulative IPC: 0.1056 instructions: 150000003 cycles: 1420219957
CPU 0 Branch Prediction Accuracy: 94.9% MPKI: 10.6 Average ROB Occupancy at Mispredict: 85.02
Branch type MPKI
BRANCH_DIRECT_JUMP: 0.923
BRANCH_INDIRECT: 0.128
BRANCH_CONDITIONAL: 8.42
BRANCH_DIRECT_CALL: 0.00016
BRANCH_INDIRECT_CALL: 0.734
BRANCH_RETURN: 0.399


CPU 1 cumulative IPC: 0.5416 instructions: 769231100 cycles: 1420219957
CPU 1 Branch Prediction Accuracy: 99.85% MPKI: 0.0018 Average ROB Occupancy at Mispredict: 348.8
Branch type MPKI
BRANCH_DIRECT_JUMP: 1.3e-06
BRANCH_INDIRECT: 6.5e-06
BRANCH_CONDITIONAL: 0.00179
BRANCH_DIRECT_CALL: 0
BRANCH_INDIRECT_CALL: 0
BRANCH_RETURN: 0


CPU 2 cumulative IPC: 1.004 instructions: 1425648468 cycles: 1420219957
CPU 2 Branch Prediction Accuracy: 91.39% MPKI: 9.695 Average ROB Occupancy at Mispredict: 86.31
Branch type MPKI
BRANCH_DIRECT_JUMP: 0.0437
BRANCH_INDIRECT: 0
BRANCH_CONDITIONAL: 5.63
BRANCH_DIRECT_CALL: 5.61e-06
BRANCH_INDIRECT_CALL: 0
BRANCH_RETURN: 4.02


CPU 3 cumulative IPC: 0.1278 instructions: 181438924 cycles: 1420219957
CPU 3 Branch Prediction Accuracy: 90.39% MPKI: 23.75 Average ROB Occupancy at Mispredict: 18.91
Branch type MPKI
BRANCH_DIRECT_JUMP: 0.258
BRANCH_INDIRECT: 0
BRANCH_CONDITIONAL: 23.5
BRANCH_DIRECT_CALL: 0
BRANCH_INDIRECT_CALL: 0.000562
BRANCH_RETURN: 0

LLC TOTAL        ACCESS:    3540773 HIT:    1162606 MISS:    2378167
LLC LOAD         ACCESS:    1686124 HIT:     266236 MISS:    1419888
LLC RFO          ACCESS:     257226 HIT:      68757 MISS:     188469
LLC PREFETCH     ACCESS:      33898 HIT:      10651 MISS:      23247
LLC WRITE        ACCESS:     967506 HIT:     783236 MISS:     184270
LLC TRANSLATION  ACCESS:     596019 HIT:      33726 MISS:     562293
LLC PREFETCH REQUESTED:          0 ISSUED:          0 USEFUL:          0 USELESS:          0
LLC AVERAGE MISS LATENCY: 1908 cycles
LLC TOTAL        ACCESS:    9014768 HIT:    3038793 MISS:    5975975
LLC LOAD         ACCESS:    7949602 HIT:    2180830 MISS:    5768772
LLC RFO          ACCESS:      23953 HIT:      23953 MISS:          0
LLC PREFETCH     ACCESS:     153162 HIT:      16874 MISS:     136288
LLC WRITE        ACCESS:     772223 HIT:     772057 MISS:        166
LLC TRANSLATION  ACCESS:     115828 HIT:      45079 MISS:      70749
LLC PREFETCH REQUESTED:          0 ISSUED:          0 USEFUL:          0 USELESS:          0
LLC AVERAGE MISS LATENCY: 1908 cycles
LLC TOTAL        ACCESS:   26788382 HIT:    7147219 MISS:   19641163
LLC LOAD         ACCESS:    1493537 HIT:     572526 MISS:     921011
LLC RFO          ACCESS:    3104992 HIT:     122750 MISS:    2982242
LLC PREFETCH     ACCESS:   19032533 HIT:    3353475 MISS:   15679058
LLC WRITE        ACCESS:    3107775 HIT:    3084296 MISS:      23479
LLC TRANSLATION  ACCESS:      49545 HIT:      14172 MISS:      35373
LLC PREFETCH REQUESTED:          0 ISSUED:          0 USEFUL:          0 USELESS:          0
LLC AVERAGE MISS LATENCY: 1908 cycles
LLC TOTAL        ACCESS:    6693725 HIT:    3745284 MISS:    2948441
LLC LOAD         ACCESS:    2432476 HIT:    1406977 MISS:    1025499
LLC RFO          ACCESS:     290603 HIT:     259570 MISS:      31033
LLC PREFETCH     ACCESS:    3486209 HIT:    1682984 MISS:    1803225
LLC WRITE        ACCESS:     467828 HIT:     388085 MISS:      79743
LLC TRANSLATION  ACCESS:      16609 HIT:       7668 MISS:       8941
LLC PREFETCH REQUESTED:          0 ISSUED:          0 USEFUL:          0 USELESS:          0
LLC AVERAGE MISS LATENCY: 1908 cycles
cpu0_DTLB TOTAL        ACCESS:   38362116 HIT:   35059903 MISS:    3302213
cpu0_DTLB LOAD         ACCESS:   38362116 HIT:   35059903 MISS:    3302213
cpu0_DTLB RFO          ACCESS:          0 HIT:          0 MISS:          0
cpu0_DTLB PREFETCH     ACCESS:          0 HIT:          0 MISS:          0
cpu0_DTLB WRITE        ACCESS:          0 HIT:          0 MISS:          0
cpu0_DTLB TRANSLATION  ACCESS:          0 HIT:          0 MISS:          0
cpu0_DTLB PREFETCH REQUESTED:          0 ISSUED:          0 USEFUL:          0 USELESS:          0
cpu0_DTLB AVERAGE MISS LATENCY: 310.7 cycles
cpu0_DTLB TOTAL        ACCESS:          0 HIT:          0 MISS:          0
cpu0_DTLB LOAD         ACCESS:          0 HIT:          0 MISS:          0
cpu0_DTLB RFO          ACCESS:          0 HIT:          0 MISS:          0
cpu0_DTLB PREFETCH     ACCESS:          0 HIT:          0 MISS:          0
cpu0_DTLB WRITE        ACCESS:          0 HIT:          0 MISS:          0
cpu0_DTLB TRANSLATION  ACCESS:          0 HIT:          0 MISS:          0
cpu0_DTLB PREFETCH REQUESTED:          0 ISSUED:          0 USEFUL:          0 USELESS:          0
cpu0_DTLB AVERAGE MISS LATENCY: 310.7 cycles
cpu0_DTLB TOTAL        ACCESS:          0 HIT:          0 MISS:          0
cpu0_DTLB LOAD         ACCESS:          0 HIT:          0 MISS:          0
cpu0_DTLB RFO          ACCESS:          0 HIT:          0 MISS:          0
cpu0_DTLB PREFETCH     ACCESS:          0 HIT:          0 MISS:          0
cpu0_DTLB WRITE        ACCESS:          0 HIT:          0 MISS:          0
cpu0_DTLB TRANSLATION  ACCESS:          0 HIT:          0 MISS:          0
cpu0_DTLB PREFETCH REQUESTED:          0 ISSUED:          0 USEFUL:          0 USELESS:          0
cpu0_DTLB AVERAGE MISS LATENCY: 310.7 cycles
cpu0_DTLB TOTAL        ACCESS:          0 HIT:          0 MISS:          0
cpu0_DTLB LOAD         ACCESS:          0 HIT:          0 MISS:          0
cpu0_DTLB RFO          ACCESS:          0 HIT:          0 MISS:          0
cpu0_DTLB PREFETCH     ACCESS:          0 HIT:          0 MISS:          0
cpu0_DTLB WRITE        ACCESS:          0 HIT:          0 MISS:          0
cpu0_DTLB TRANSLATION  ACCESS:          0 HIT:          0 MISS:          0
cpu0_DTLB PREFETCH REQUESTED:          0 ISSUED:          0 USEFUL:          0 USELESS:          0
cpu0_DTLB AVERAGE MISS LATENCY: 310.7 cycles
cpu0_ITLB TOTAL        ACCESS:   10776757 HIT:   10505906 MISS:     270851
cpu0_ITLB LOAD         ACCESS:   10776757 HIT:   10505906 MISS:     270851
cpu0_ITLB RFO          ACCESS:          0 HIT:          0 MISS:          0
cpu0_ITLB PREFETCH     ACCESS:          0 HIT:          0 MISS:          0
cpu0_ITLB WRITE        ACCESS:          0 HIT:          0 MISS:          0
cpu0_ITLB TRANSLATION  ACCESS:          0 HIT:          0 MISS:          0
cpu0_ITLB PREFETCH REQUESTED:          0 ISSUED:          0 USEFUL:          0 USELESS:          0
cpu0_ITLB AVERAGE MISS LATENCY: 21.75 cycles
cpu0_ITLB TOTAL        ACCESS:          0 HIT:          0 MISS:          0
cpu0_ITLB LOAD         ACCESS:          0 HIT:          0 MISS:          0
cpu0_ITLB RFO          ACCESS:          0 HIT:          0 MISS:          0
cpu0_ITLB PREFETCH     ACCESS:          0 HIT:          0 MISS:          0
cpu0_ITLB WRITE        ACCESS:          0 HIT:          0 MISS:          0
cpu0_ITLB TRANSLATION  ACCESS:          0 HIT:          0 MISS:          0
cpu0_ITLB PREFETCH REQUESTED:          0 ISSUED:          0 USEFUL:          0 USELESS:          0
cpu0_ITLB AVERAGE MISS LATENCY: 21.75 cycles
cpu0_ITLB TOTAL        ACCESS:          0 HIT:          0 MISS:          0
cpu0_ITLB LOAD         ACCESS:          0 HIT:          0 MISS:          0
cpu0_ITLB RFO          ACCESS:          0 HIT:          0 MISS:          0
cpu0_ITLB PREFETCH     ACCESS:          0 HIT:          0 MISS:          0
cpu0_ITLB WRITE        ACCESS:          0 HIT:          0 MISS:          0
cpu0_ITLB TRANSLATION  ACCESS:          0 HIT:          0 MISS:          0
cpu0_ITLB PREFETCH REQUESTED:          0 ISSUED:          0 USEFUL:          0 USELESS:          0
cpu0_ITLB AVERAGE MISS LATENCY: 21.75 cycles
cpu0_ITLB TOTAL        ACCESS:          0 HIT:          0 MISS:          0
cpu0_ITLB LOAD         ACCESS:          0 HIT:          0 MISS:          0
cpu0_ITLB RFO          ACCESS:          0 HIT:          0 MISS:          0
cpu0_ITLB PREFETCH     ACCESS:          0 HIT:          0 MISS:          0
cpu0_ITLB WRITE        ACCESS:          0 HIT:          0 MISS:          0
cpu0_ITLB TRANSLATION  ACCESS:          0 HIT:          0 MISS:          0
cpu0_ITLB PREFETCH REQUESTED:          0 ISSUED:          0 USEFUL:          0 USELESS:          0
cpu0_ITLB AVERAGE MISS LATENCY: 21.75 cycles
cpu0_L1D TOTAL        ACCESS:   49911225 HIT:   44946545 MISS:    4964680
cpu0_L1D LOAD         ACCESS:   23033552 HIT:   19933998 MISS:    3099554
cpu0_L1D RFO          ACCESS:          0 HIT:          0 MISS:          0
cpu0_L1D PREFETCH     ACCESS:          0 HIT:          0 MISS:          0
cpu0_L1D WRITE        ACCESS:   25986530 HIT:   24867387 MISS:    1119143
cpu0_L1D TRANSLATION  ACCESS:     891143 HIT:     145160 MISS:     745983
cpu0_L1D PREFETCH REQUESTED:          0 ISSUED:          0 USEFUL:          0 USELESS:          0
cpu0_L1D AVERAGE MISS LATENCY: 794.2 cycles
cpu0_L1D TOTAL        ACCESS:          0 HIT:          0 MISS:          0
cpu0_L1D LOAD         ACCESS:          0 HIT:          0 MISS:          0
cpu0_L1D RFO          ACCESS:          0 HIT:          0 MISS:          0
cpu0_L1D PREFETCH     ACCESS:          0 HIT:          0 MISS:          0
cpu0_L1D WRITE        ACCESS:          0 HIT:          0 MISS:          0
cpu0_L1D TRANSLATION  ACCESS:          0 HIT:          0 MISS:          0
cpu0_L1D PREFETCH REQUESTED:          0 ISSUED:          0 USEFUL:          0 USELESS:          0
cpu0_L1D AVERAGE MISS LATENCY: 794.2 cycles
cpu0_L1D TOTAL        ACCESS:          0 HIT:          0 MISS:          0
cpu0_L1D LOAD         ACCESS:          0 HIT:          0 MISS:          0
cpu0_L1D RFO          ACCESS:          0 HIT:          0 MISS:          0
cpu0_L1D PREFETCH     ACCESS:          0 HIT:          0 MISS:          0
cpu0_L1D WRITE        ACCESS:          0 HIT:          0 MISS:          0
cpu0_L1D TRANSLATION  ACCESS:          0 HIT:          0 MISS:          0
cpu0_L1D PREFETCH REQUESTED:          0 ISSUED:          0 USEFUL:          0 USELESS:          0
cpu0_L1D AVERAGE MISS LATENCY: 794.2 cycles
cpu0_L1D TOTAL        ACCESS:          0 HIT:          0 MISS:          0
cpu0_L1D LOAD         ACCESS:          0 HIT:          0 MISS:          0
cpu0_L1D RFO          ACCESS:          0 HIT:          0 MISS:          0
cpu0_L1D PREFETCH     ACCESS:          0 HIT:          0 MISS:          0
cpu0_L1D WRITE        ACCESS:          0 HIT:          0 MISS:          0
cpu0_L1D TRANSLATION  ACCESS:          0 HIT:          0 MISS:          0
cpu0_L1D PREFETCH REQUESTED:          0 ISSUED:          0 USEFUL:          0 USELESS:          0
cpu0_L1D AVERAGE MISS LATENCY: 794.2 cycles
cpu0_L1I TOTAL        ACCESS:   12878579 HIT:   12804438 MISS:      74141
cpu0_L1I LOAD         ACCESS:   12878579 HIT:   12804438 MISS:      74141
cpu0_L1I RFO          ACCESS:          0 HIT:          0 MISS:          0
cpu0_L1I PREFETCH     ACCESS:          0 HIT:          0 MISS:          0
cpu0_L1I WRITE        ACCESS:          0 HIT:          0 MISS:          0
cpu0_L1I TRANSLATION  ACCESS:          0 HIT:          0 MISS:          0
cpu0_L1I PREFETCH REQUESTED:          0 ISSUED:          0 USEFUL:          0 USELESS:          0
cpu0_L1I AVERAGE MISS LATENCY: 183.9 cycles
cpu0_L1I TOTAL        ACCESS:          0 HIT:          0 MISS:          0
cpu0_L1I LOAD         ACCESS:          0 HIT:          0 MISS:          0
cpu0_L1I RFO          ACCESS:          0 HIT:          0 MISS:          0
cpu0_L1I PREFETCH     ACCESS:          0 HIT:          0 MISS:          0
cpu0_L1I WRITE        ACCESS:          0 HIT:          0 MISS:          0
cpu0_L1I TRANSLATION  ACCESS:          0 HIT:          0 MISS:          0
cpu0_L1I PREFETCH REQUESTED:          0 ISSUED:          0 USEFUL:          0 USELESS:          0
cpu0_L1I AVERAGE MISS LATENCY: 183.9 cycles
cpu0_L1I TOTAL        ACCESS:          0 HIT:          0 MISS:          0
cpu0_L1I LOAD         ACCESS:          0 HIT:          0 MISS:          0
cpu0_L1I RFO          ACCESS:          0 HIT:          0 MISS:          0
cpu0_L1I PREFETCH     ACCESS:          0 HIT:          0 MISS:          0
cpu0_L1I WRITE        ACCESS:          0 HIT:          0 MISS:          0
cpu0_L1I TRANSLATION  ACCESS:          0 HIT:          0 MISS:          0
cpu0_L1I PREFETCH REQUESTED:          0 ISSUED:          0 USEFUL:          0 USELESS:          0
cpu0_L1I AVERAGE MISS LATENCY: 183.9 cycles
cpu0_L1I TOTAL        ACCESS:          0 HIT:          0 MISS:          0
cpu0_L1I LOAD         ACCESS:          0 HIT:          0 MISS:          0
cpu0_L1I RFO          ACCESS:          0 HIT:          0 MISS:          0
cpu0_L1I PREFETCH     ACCESS:          0 HIT:          0 MISS:          0
cpu0_L1I WRITE        ACCESS:          0 HIT:          0 MISS:          0
cpu0_L1I TRANSLATION  ACCESS:          0 HIT:          0 MISS:          0
cpu0_L1I PREFETCH REQUESTED:          0 ISSUED:          0 USEFUL:          0 USELESS:          0
cpu0_L1I AVERAGE MISS LATENCY: 183.9 cycles
cpu0_L2C TOTAL        ACCESS:    5092212 HIT:    2515505 MISS:    2576707
cpu0_L2C LOAD         ACCESS:    2539903 HIT:     853579 MISS:    1686324
cpu0_L2C RFO          ACCESS:     365071 HIT:     107844 MISS:     257227
cpu0_L2C PREFETCH     ACCESS:      44310 HIT:       9531 MISS:      34779
cpu0_L2C WRITE        ACCESS:    1397736 HIT:    1395378 MISS:       2358
cpu0_L2C TRANSLATION  ACCESS:     745192 HIT:     149173 MISS:     596019
cpu0_L2C PREFETCH REQUESTED:      44310 ISSUED:      44310 USEFUL:       4032 USELESS:       2595
cpu0_L2C AVERAGE MISS LATENCY: 1554 cycles
cpu0_L2C TOTAL        ACCESS:          0 HIT:          0 MISS:          0
cpu0_L2C LOAD         ACCESS:          0 HIT:          0 MISS:          0
cpu0_L2C RFO          ACCESS:          0 HIT:          0 MISS:          0
cpu0_L2C PREFETCH     ACCESS:          0 HIT:          0 MISS:          0
cpu0_L2C WRITE        ACCESS:          0 HIT:          0 MISS:          0
cpu0_L2C TRANSLATION  ACCESS:          0 HIT:          0 MISS:          0
cpu0_L2C PREFETCH REQUESTED:      44310 ISSUED:      44310 USEFUL:       4032 USELESS:       2595
cpu0_L2C AVERAGE MISS LATENCY: 1554 cycles
cpu0_L2C TOTAL        ACCESS:          0 HIT:          0 MISS:          0
cpu0_L2C LOAD         ACCESS:          0 HIT:          0 MISS:          0
cpu0_L2C RFO          ACCESS:          0 HIT:          0 MISS:          0
cpu0_L2C PREFETCH     ACCESS:          0 HIT:          0 MISS:          0
cpu0_L2C WRITE        ACCESS:          0 HIT:          0 MISS:          0
cpu0_L2C TRANSLATION  ACCESS:          0 HIT:          0 MISS:          0
cpu0_L2C PREFETCH REQUESTED:      44310 ISSUED:      44310 USEFUL:       4032 USELESS:       2595
cpu0_L2C AVERAGE MISS LATENCY: 1554 cycles
cpu0_L2C TOTAL        ACCESS:          0 HIT:          0 MISS:          0
cpu0_L2C LOAD         ACCESS:          0 HIT:          0 MISS:          0
cpu0_L2C RFO          ACCESS:          0 HIT:          0 MISS:          0
cpu0_L2C PREFETCH     ACCESS:          0 HIT:          0 MISS:          0
cpu0_L2C WRITE        ACCESS:          0 HIT:          0 MISS:          0
cpu0_L2C TRANSLATION  ACCESS:          0 HIT:          0 MISS:          0
cpu0_L2C PREFETCH REQUESTED:      44310 ISSUED:      44310 USEFUL:       4032 USELESS:       2595
cpu0_L2C AVERAGE MISS LATENCY: 1554 cycles
cpu0_STLB TOTAL        ACCESS:    3015041 HIT:    2372606 MISS:     642435
cpu0_STLB LOAD         ACCESS:    3015041 HIT:    2372606 MISS:     642435
cpu0_STLB RFO          ACCESS:          0 HIT:          0 MISS:          0
cpu0_STLB PREFETCH     ACCESS:          0 HIT:          0 MISS:          0
cpu0_STLB WRITE        ACCESS:          0 HIT:          0 MISS:          0
cpu0_STLB TRANSLATION  ACCESS:          0 HIT:          0 MISS:          0
cpu0_STLB PREFETCH REQUESTED:          0 ISSUED:          0 USEFUL:          0 USELESS:          0
cpu0_STLB AVERAGE MISS LATENCY: 1603 cycles
cpu0_STLB TOTAL        ACCESS:          0 HIT:          0 MISS:          0
cpu0_STLB LOAD         ACCESS:          0 HIT:          0 MISS:          0
cpu0_STLB RFO          ACCESS:          0 HIT:          0 MISS:          0
cpu0_STLB PREFETCH     ACCESS:          0 HIT:          0 MISS:          0
cpu0_STLB WRITE        ACCESS:          0 HIT:          0 MISS:          0
cpu0_STLB TRANSLATION  ACCESS:          0 HIT:          0 MISS:          0
cpu0_STLB PREFETCH REQUESTED:          0 ISSUED:          0 USEFUL:          0 USELESS:          0
cpu0_STLB AVERAGE MISS LATENCY: 1603 cycles
cpu0_STLB TOTAL        ACCESS:          0 HIT:          0 MISS:          0
cpu0_STLB LOAD         ACCESS:          0 HIT:          0 MISS:          0
cpu0_STLB RFO          ACCESS:          0 HIT:          0 MISS:          0
cpu0_STLB PREFETCH     ACCESS:          0 HIT:          0 MISS:          0
cpu0_STLB WRITE        ACCESS:          0 HIT:          0 MISS:          0
cpu0_STLB TRANSLATION  ACCESS:          0 HIT:          0 MISS:          0
cpu0_STLB PREFETCH REQUESTED:          0 ISSUED:          0 USEFUL:          0 USELESS:          0
cpu0_STLB AVERAGE MISS LATENCY: 1603 cycles
cpu0_STLB TOTAL        ACCESS:          0 HIT:          0 MISS:          0
cpu0_STLB LOAD         ACCESS:          0 HIT:          0 MISS:          0
cpu0_STLB RFO          ACCESS:          0 HIT:          0 MISS:          0
cpu0_STLB PREFETCH     ACCESS:          0 HIT:          0 MISS:          0
cpu0_STLB WRITE        ACCESS:          0 HIT:          0 MISS:          0
cpu0_STLB TRANSLATION  ACCESS:          0 HIT:          0 MISS:          0
cpu0_STLB PREFETCH REQUESTED:          0 ISSUED:          0 USEFUL:          0 USELESS:          0
cpu0_STLB AVERAGE MISS LATENCY: 1603 cycles
cpu1_DTLB TOTAL        ACCESS:          0 HIT:          0 MISS:          0
cpu1_DTLB LOAD         ACCESS:          0 HIT:          0 MISS:          0
cpu1_DTLB RFO          ACCESS:          0 HIT:          0 MISS:          0
cpu1_DTLB PREFETCH     ACCESS:          0 HIT:          0 MISS:          0
cpu1_DTLB WRITE        ACCESS:          0 HIT:          0 MISS:          0
cpu1_DTLB TRANSLATION  ACCESS:          0 HIT:          0 MISS:          0
cpu1_DTLB PREFETCH REQUESTED:          0 ISSUED:          0 USEFUL:          0 USELESS:          0
cpu1_DTLB AVERAGE MISS LATENCY: 9.204 cycles
cpu1_DTLB TOTAL        ACCESS:  161830878 HIT:   94492169 MISS:   67338709
cpu1_DTLB LOAD         ACCESS:  161830878 HIT:   94492169 MISS:   67338709
cpu1_DTLB RFO          ACCESS:          0 HIT:          0 MISS:          0
cpu1_DTLB PREFETCH     ACCESS:          0 HIT:          0 MISS:          0
cpu1_DTLB WRITE        ACCESS:          0 HIT:          0 MISS:          0
cpu1_DTLB TRANSLATION  ACCESS:          0 HIT:          0 MISS:          0
cpu1_DTLB PREFETCH REQUESTED:          0 ISSUED:          0 USEFUL:          0 USELESS:          0
cpu1_DTLB AVERAGE MISS LATENCY: 9.204 cycles
cpu1_DTLB TOTAL        ACCESS:          0 HIT:          0 MISS:          0
cpu1_DTLB LOAD         ACCESS:          0 HIT:          0 MISS:          0
cpu1_DTLB RFO          ACCESS:          0 HIT:          0 MISS:          0
cpu1_DTLB PREFETCH     ACCESS:          0 HIT:          0 MISS:          0
cpu1_DTLB WRITE        ACCESS:          0 HIT:          0 MISS:          0
cpu1_DTLB TRANSLATION  ACCESS:          0 HIT:          0 MISS:          0
cpu1_DTLB PREFETCH REQUESTED:          0 ISSUED:          0 USEFUL:          0 USELESS:          0
cpu1_DTLB AVERAGE MISS LATENCY: 9.204 cycles
cpu1_DTLB TOTAL        ACCESS:          0 HIT:          0 MISS:          0
cpu1_DTLB LOAD         ACCESS:          0 HIT:          0 MISS:          0
cpu1_DTLB RFO          ACCESS:          0 HIT:          0 MISS:          0
cpu1_DTLB PREFETCH     ACCESS:          0 HIT:          0 MISS:          0
cpu1_DTLB WRITE        ACCESS:          0 HIT:          0 MISS:          0
cpu1_DTLB TRANSLATION  ACCESS:          0 HIT:          0 MISS:          0
cpu1_DTLB PREFETCH REQUESTED:          0 ISSUED:          0 USEFUL:          0 USELESS:          0
cpu1_DTLB AVERAGE MISS LATENCY: 9.204 cycles
cpu1_ITLB TOTAL        ACCESS:          0 HIT:          0 MISS:          0
cpu1_ITLB LOAD         ACCESS:          0 HIT:          0 MISS:          0
cpu1_ITLB RFO          ACCESS:          0 HIT:          0 MISS:          0
cpu1_ITLB PREFETCH     ACCESS:          0 HIT:          0 MISS:          0
cpu1_ITLB WRITE        ACCESS:          0 HIT:          0 MISS:          0
cpu1_ITLB TRANSLATION  ACCESS:          0 HIT:          0 MISS:          0
cpu1_ITLB PREFETCH REQUESTED:          0 ISSUED:          0 USEFUL:          0 USELESS:          0
cpu1_ITLB AVERAGE MISS LATENCY: -nan cycles
cpu1_ITLB TOTAL        ACCESS:  100593442 HIT:  100593442 MISS:          0
cpu1_ITLB LOAD         ACCESS:  100593442 HIT:  100593442 MISS:          0
cpu1_ITLB RFO          ACCESS:          0 HIT:          0 MISS:          0
cpu1_ITLB PREFETCH     ACCESS:          0 HIT:          0 MISS:          0
cpu1_ITLB WRITE        ACCESS:          0 HIT:          0 MISS:          0
cpu1_ITLB TRANSLATION  ACCESS:          0 HIT:          0 MISS:          0
cpu1_ITLB PREFETCH REQUESTED:          0 ISSUED:          0 USEFUL:          0 USELESS:          0
cpu1_ITLB AVERAGE MISS LATENCY: -nan cycles
cpu1_ITLB TOTAL        ACCESS:          0 HIT:          0 MISS:          0
cpu1_ITLB LOAD         ACCESS:          0 HIT:          0 MISS:          0
cpu1_ITLB RFO          ACCESS:          0 HIT:          0 MISS:          0
cpu1_ITLB PREFETCH     ACCESS:          0 HIT:          0 MISS:          0
cpu1_ITLB WRITE        ACCESS:          0 HIT:          0 MISS:          0
cpu1_ITLB TRANSLATION  ACCESS:          0 HIT:          0 MISS:          0
cpu1_ITLB PREFETCH REQUESTED:          0 ISSUED:          0 USEFUL:          0 USELESS:          0
cpu1_ITLB AVERAGE MISS LATENCY: -nan cycles
cpu1_ITLB TOTAL        ACCESS:          0 HIT:          0 MISS:          0
cpu1_ITLB LOAD         ACCESS:          0 HIT:          0 MISS:          0
cpu1_ITLB RFO          ACCESS:          0 HIT:          0 MISS:          0
cpu1_ITLB PREFETCH     ACCESS:          0 HIT:          0 MISS:          0
cpu1_ITLB WRITE        ACCESS:          0 HIT:          0 MISS:          0
cpu1_ITLB TRANSLATION  ACCESS:          0 HIT:          0 MISS:          0
cpu1_ITLB PREFETCH REQUESTED:          0 ISSUED:          0 USEFUL:          0 USELESS:          0
cpu1_ITLB AVERAGE MISS LATENCY: -nan cycles
cpu1_L1D TOTAL        ACCESS:          0 HIT:          0 MISS:          0
cpu1_L1D LOAD         ACCESS:          0 HIT:          0 MISS:          0
cpu1_L1D RFO          ACCESS:          0 HIT:          0 MISS:          0
cpu1_L1D PREFETCH     ACCESS:          0 HIT:          0 MISS:          0
cpu1_L1D WRITE        ACCESS:          0 HIT:          0 MISS:          0
cpu1_L1D TRANSLATION  ACCESS:          0 HIT:          0 MISS:          0
cpu1_L1D PREFETCH REQUESTED:          0 ISSUED:          0 USEFUL:          0 USELESS:          0
cpu1_L1D AVERAGE MISS LATENCY: 200.9 cycles
cpu1_L1D TOTAL        ACCESS:  201358651 HIT:  111912384 MISS:   89446267
cpu1_L1D LOAD         ACCESS:  113327196 HIT:   28587229 MISS:   84739967
cpu1_L1D RFO          ACCESS:          0 HIT:          0 MISS:          0
cpu1_L1D PREFETCH     ACCESS:          0 HIT:          0 MISS:          0
cpu1_L1D WRITE        ACCESS:   87885813 HIT:   83323874 MISS:    4561939
cpu1_L1D TRANSLATION  ACCESS:     145642 HIT:       1281 MISS:     144361
cpu1_L1D PREFETCH REQUESTED:          0 ISSUED:          0 USEFUL:          0 USELESS:          0
cpu1_L1D AVERAGE MISS LATENCY: 200.9 cycles
cpu1_L1D TOTAL        ACCESS:          0 HIT:          0 MISS:          0
cpu1_L1D LOAD         ACCESS:          0 HIT:          0 MISS:          0
cpu1_L1D RFO          ACCESS:          0 HIT:          0 MISS:          0
cpu1_L1D PREFETCH     ACCESS:          0 HIT:          0 MISS:          0
cpu1_L1D WRITE        ACCESS:          0 HIT:          0 MISS:          0
cpu1_L1D TRANSLATION  ACCESS:          0 HIT:          0 MISS:          0
cpu1_L1D PREFETCH REQUESTED:          0 ISSUED:          0 USEFUL:          0 USELESS:          0
cpu1_L1D AVERAGE MISS LATENCY: 200.9 cycles
cpu1_L1D TOTAL        ACCESS:          0 HIT:          0 MISS:          0
cpu1_L1D LOAD         ACCESS:          0 HIT:          0 MISS:          0
cpu1_L1D RFO          ACCESS:          0 HIT:          0 MISS:          0
cpu1_L1D PREFETCH     ACCESS:          0 HIT:          0 MISS:          0
cpu1_L1D WRITE        ACCESS:          0 HIT:          0 MISS:          0
cpu1_L1D TRANSLATION  ACCESS:          0 HIT:          0 MISS:          0
cpu1_L1D PREFETCH REQUESTED:          0 ISSUED:          0 USEFUL:          0 USELESS:          0
cpu1_L1D AVERAGE MISS LATENCY: 200.9 cycles
cpu1_L1I TOTAL        ACCESS:          0 HIT:          0 MISS:          0
cpu1_L1I LOAD         ACCESS:          0 HIT:          0 MISS:          0
cpu1_L1I RFO          ACCESS:          0 HIT:          0 MISS:          0
cpu1_L1I PREFETCH     ACCESS:          0 HIT:          0 MISS:          0
cpu1_L1I WRITE        ACCESS:          0 HIT:          0 MISS:          0
cpu1_L1I TRANSLATION  ACCESS:          0 HIT:          0 MISS:          0
cpu1_L1I PREFETCH REQUESTED:          0 ISSUED:          0 USEFUL:          0 USELESS:          0
cpu1_L1I AVERAGE MISS LATENCY: -nan cycles
cpu1_L1I TOTAL        ACCESS:  131740248 HIT:  131740248 MISS:          0
cpu1_L1I LOAD         ACCESS:  131740248 HIT:  131740248 MISS:          0
cpu1_L1I RFO          ACCESS:          0 HIT:          0 MISS:          0
cpu1_L1I PREFETCH     ACCESS:          0 HIT:          0 MISS:          0
cpu1_L1I WRITE        ACCESS:          0 HIT:          0 MISS:          0
cpu1_L1I TRANSLATION  ACCESS:          0 HIT:          0 MISS:          0
cpu1_L1I PREFETCH REQUESTED:          0 ISSUED:          0 USEFUL:          0 USELESS:          0
cpu1_L1I AVERAGE MISS LATENCY: -nan cycles
cpu1_L1I TOTAL        ACCESS:          0 HIT:          0 MISS:          0
cpu1_L1I LOAD         ACCESS:          0 HIT:          0 MISS:          0
cpu1_L1I RFO          ACCESS:          0 HIT:          0 MISS:          0
cpu1_L1I PREFETCH     ACCESS:          0 HIT:          0 MISS:          0
cpu1_L1I WRITE        ACCESS:          0 HIT:          0 MISS:          0
cpu1_L1I TRANSLATION  ACCESS:          0 HIT:          0 MISS:          0
cpu1_L1I PREFETCH REQUESTED:          0 ISSUED:          0 USEFUL:          0 USELESS:          0
cpu1_L1I AVERAGE MISS LATENCY: -nan cycles
cpu1_L1I TOTAL        ACCESS:          0 HIT:          0 MISS:          0
cpu1_L1I LOAD         ACCESS:          0 HIT:          0 MISS:          0
cpu1_L1I RFO          ACCESS:          0 HIT:          0 MISS:          0
cpu1_L1I PREFETCH     ACCESS:          0 HIT:          0 MISS:          0
cpu1_L1I WRITE        ACCESS:          0 HIT:          0 MISS:          0
cpu1_L1I TRANSLATION  ACCESS:          0 HIT:          0 MISS:          0
cpu1_L1I PREFETCH REQUESTED:          0 ISSUED:          0 USEFUL:          0 USELESS:          0
cpu1_L1I AVERAGE MISS LATENCY: -nan cycles
cpu1_L2C TOTAL        ACCESS:          0 HIT:          0 MISS:          0
cpu1_L2C LOAD         ACCESS:          0 HIT:          0 MISS:          0
cpu1_L2C RFO          ACCESS:          0 HIT:          0 MISS:          0
cpu1_L2C PREFETCH     ACCESS:          0 HIT:          0 MISS:          0
cpu1_L2C WRITE        ACCESS:          0 HIT:          0 MISS:          0
cpu1_L2C TRANSLATION  ACCESS:          0 HIT:          0 MISS:          0
cpu1_L2C PREFETCH REQUESTED:    1398502 ISSUED:    1398502 USEFUL:     142898 USELESS:      10268
cpu1_L2C AVERAGE MISS LATENCY: 2106 cycles
cpu1_L2C TOTAL        ACCESS:   95347491 HIT:   87103960 MISS:    8243531
cpu1_L2C LOAD         ACCESS:   83760876 HIT:   75811127 MISS:    7949749
cpu1_L2C RFO          ACCESS:    3387476 HIT:    3363401 MISS:      24075
cpu1_L2C PREFETCH     ACCESS:    1398502 HIT:    1244623 MISS:     153879
cpu1_L2C WRITE        ACCESS:    6656379 HIT:    6656379 MISS:          0
cpu1_L2C TRANSLATION  ACCESS:     144258 HIT:      28430 MISS:     115828
cpu1_L2C PREFETCH REQUESTED:    1398502 ISSUED:    1398502 USEFUL:     142898 USELESS:      10268
cpu1_L2C AVERAGE MISS LATENCY: 2106 cycles
cpu1_L2C TOTAL        ACCESS:          0 HIT:          0 MISS:          0
cpu1_L2C LOAD         ACCESS:          0 HIT:          0 MISS:          0
cpu1_L2C RFO          ACCESS:          0 HIT:          0 MISS:          0
cpu1_L2C PREFETCH     ACCESS:          0 HIT:          0 MISS:          0
cpu1_L2C WRITE        ACCESS:          0 HIT:          0 MISS:          0
cpu1_L2C TRANSLATION  ACCESS:          0 HIT:          0 MISS:          0
cpu1_L2C PREFETCH REQUESTED:    1398502 ISSUED:    1398502 USEFUL:     142898 USELESS:      10268
cpu1_L2C AVERAGE MISS LATENCY: 2106 cycles
cpu1_L2C TOTAL        ACCESS:          0 HIT:          0 MISS:          0
cpu1_L2C LOAD         ACCESS:          0 HIT:          0 MISS:          0
cpu1_L2C RFO          ACCESS:          0 HIT:          0 MISS:          0
cpu1_L2C PREFETCH     ACCESS:          0 HIT:          0 MISS:          0
cpu1_L2C WRITE        ACCESS:          0 HIT:          0 MISS:          0
cpu1_L2C TRANSLATION  ACCESS:          0 HIT:          0 MISS:          0
cpu1_L2C PREFETCH REQUESTED:    1398502 ISSUED:    1398502 USEFUL:     142898 USELESS:      10268
cpu1_L2C AVERAGE MISS LATENCY: 2106 cycles
cpu1_STLB TOTAL        ACCESS:          0 HIT:          0 MISS:          0
cpu1_STLB LOAD         ACCESS:          0 HIT:          0 MISS:          0
cpu1_STLB RFO          ACCESS:          0 HIT:          0 MISS:          0
cpu1_STLB PREFETCH     ACCESS:          0 HIT:          0 MISS:          0
cpu1_STLB WRITE        ACCESS:          0 HIT:          0 MISS:          0
cpu1_STLB TRANSLATION  ACCESS:          0 HIT:          0 MISS:          0
cpu1_STLB PREFETCH REQUESTED:          0 ISSUED:          0 USEFUL:          0 USELESS:          0
cpu1_STLB AVERAGE MISS LATENCY: 2189 cycles
cpu1_STLB TOTAL        ACCESS:   58041041 HIT:   57947343 MISS:      93698
cpu1_STLB LOAD         ACCESS:   58041041 HIT:   57947343 MISS:      93698
cpu1_STLB RFO          ACCESS:          0 HIT:          0 MISS:          0
cpu1_STLB PREFETCH     ACCESS:          0 HIT:          0 MISS:          0
cpu1_STLB WRITE        ACCESS:          0 HIT:          0 MISS:          0
cpu1_STLB TRANSLATION  ACCESS:          0 HIT:          0 MISS:          0
cpu1_STLB PREFETCH REQUESTED:          0 ISSUED:          0 USEFUL:          0 USELESS:          0
cpu1_STLB AVERAGE MISS LATENCY: 2189 cycles
cpu1_STLB TOTAL        ACCESS:          0 HIT:          0 MISS:          0
cpu1_STLB LOAD         ACCESS:          0 HIT:          0 MISS:          0
cpu1_STLB RFO          ACCESS:          0 HIT:          0 MISS:          0
cpu1_STLB PREFETCH     ACCESS:          0 HIT:          0 MISS:          0
cpu1_STLB WRITE        ACCESS:          0 HIT:          0 MISS:          0
cpu1_STLB TRANSLATION  ACCESS:          0 HIT:          0 MISS:          0
cpu1_STLB PREFETCH REQUESTED:          0 ISSUED:          0 USEFUL:          0 USELESS:          0
cpu1_STLB AVERAGE MISS LATENCY: 2189 cycles
cpu1_STLB TOTAL        ACCESS:          0 HIT:          0 MISS:          0
cpu1_STLB LOAD         ACCESS:          0 HIT:          0 MISS:          0
cpu1_STLB RFO          ACCESS:          0 HIT:          0 MISS:          0
cpu1_STLB PREFETCH     ACCESS:          0 HIT:          0 MISS:          0
cpu1_STLB WRITE        ACCESS:          0 HIT:          0 MISS:          0
cpu1_STLB TRANSLATION  ACCESS:          0 HIT:          0 MISS:          0
cpu1_STLB PREFETCH REQUESTED:          0 ISSUED:          0 USEFUL:          0 USELESS:          0
cpu1_STLB AVERAGE MISS LATENCY: 2189 cycles
cpu2_DTLB TOTAL        ACCESS:          0 HIT:          0 MISS:          0
cpu2_DTLB LOAD         ACCESS:          0 HIT:          0 MISS:          0
cpu2_DTLB RFO          ACCESS:          0 HIT:          0 MISS:          0
cpu2_DTLB PREFETCH     ACCESS:          0 HIT:          0 MISS:          0
cpu2_DTLB WRITE        ACCESS:          0 HIT:          0 MISS:          0
cpu2_DTLB TRANSLATION  ACCESS:          0 HIT:          0 MISS:          0
cpu2_DTLB PREFETCH REQUESTED:          0 ISSUED:          0 USEFUL:          0 USELESS:          0
cpu2_DTLB AVERAGE MISS LATENCY: 102.6 cycles
cpu2_DTLB TOTAL        ACCESS:          0 HIT:          0 MISS:          0
cpu2_DTLB LOAD         ACCESS:          0 HIT:          0 MISS:          0
cpu2_DTLB RFO          ACCESS:          0 HIT:          0 MISS:          0
cpu2_DTLB PREFETCH     ACCESS:          0 HIT:          0 MISS:          0
cpu2_DTLB WRITE        ACCESS:          0 HIT:          0 MISS:          0
cpu2_DTLB TRANSLATION  ACCESS:          0 HIT:          0 MISS:          0
cpu2_DTLB PREFETCH REQUESTED:          0 ISSUED:          0 USEFUL:          0 USELESS:          0
cpu2_DTLB AVERAGE MISS LATENCY: 102.6 cycles
cpu2_DTLB TOTAL        ACCESS:  203808460 HIT:  202750342 MISS:    1058118
cpu2_DTLB LOAD         ACCESS:  203808460 HIT:  202750342 MISS:    1058118
cpu2_DTLB RFO          ACCESS:          0 HIT:          0 MISS:          0
cpu2_DTLB PREFETCH     ACCESS:          0 HIT:          0 MISS:          0
cpu2_DTLB WRITE        ACCESS:          0 HIT:          0 MISS:          0
cpu2_DTLB TRANSLATION  ACCESS:          0 HIT:          0 MISS:          0
cpu2_DTLB PREFETCH REQUESTED:          0 ISSUED:          0 USEFUL:          0 USELESS:          0
cpu2_DTLB AVERAGE MISS LATENCY: 102.6 cycles
cpu2_DTLB TOTAL        ACCESS:          0 HIT:          0 MISS:          0
cpu2_DTLB LOAD         ACCESS:          0 HIT:          0 MISS:          0
cpu2_DTLB RFO          ACCESS:          0 HIT:          0 MISS:          0
cpu2_DTLB PREFETCH     ACCESS:          0 HIT:          0 MISS:          0
cpu2_DTLB WRITE        ACCESS:          0 HIT:          0 MISS:          0
cpu2_DTLB TRANSLATION  ACCESS:          0 HIT:          0 MISS:          0
cpu2_DTLB PREFETCH REQUESTED:          0 ISSUED:          0 USEFUL:          0 USELESS:          0
cpu2_DTLB AVERAGE MISS LATENCY: 102.6 cycles
cpu2_ITLB TOTAL        ACCESS:          0 HIT:          0 MISS:          0
cpu2_ITLB LOAD         ACCESS:          0 HIT:          0 MISS:          0
cpu2_ITLB RFO          ACCESS:          0 HIT:          0 MISS:          0
cpu2_ITLB PREFETCH     ACCESS:          0 HIT:          0 MISS:          0
cpu2_ITLB WRITE        ACCESS:          0 HIT:          0 MISS:          0
cpu2_ITLB TRANSLATION  ACCESS:          0 HIT:          0 MISS:          0
cpu2_ITLB PREFETCH REQUESTED:          0 ISSUED:          0 USEFUL:          0 USELESS:          0
cpu2_ITLB AVERAGE MISS LATENCY: 1375 cycles
cpu2_ITLB TOTAL        ACCESS:          0 HIT:          0 MISS:          0
cpu2_ITLB LOAD         ACCESS:          0 HIT:          0 MISS:          0
cpu2_ITLB RFO          ACCESS:          0 HIT:          0 MISS:          0
cpu2_ITLB PREFETCH     ACCESS:          0 HIT:          0 MISS:          0
cpu2_ITLB WRITE        ACCESS:          0 HIT:          0 MISS:          0
cpu2_ITLB TRANSLATION  ACCESS:          0 HIT:          0 MISS:          0
cpu2_ITLB PREFETCH REQUESTED:          0 ISSUED:          0 USEFUL:          0 USELESS:          0
cpu2_ITLB AVERAGE MISS LATENCY: 1375 cycles
cpu2_ITLB TOTAL        ACCESS:    3922762 HIT:    3922752 MISS:         10
cpu2_ITLB LOAD         ACCESS:    3922762 HIT:    3922752 MISS:         10
cpu2_ITLB RFO          ACCESS:          0 HIT:          0 MISS:          0
cpu2_ITLB PREFETCH     ACCESS:          0 HIT:          0 MISS:          0
cpu2_ITLB WRITE        ACCESS:          0 HIT:          0 MISS:          0
cpu2_ITLB TRANSLATION  ACCESS:          0 HIT:          0 MISS:          0
cpu2_ITLB PREFETCH REQUESTED:          0 ISSUED:          0 USEFUL:          0 USELESS:          0
cpu2_ITLB AVERAGE MISS LATENCY: 1375 cycles
cpu2_ITLB TOTAL        ACCESS:          0 HIT:          0 MISS:          0
cpu2_ITLB LOAD         ACCESS:          0 HIT:          0 MISS:          0
cpu2_ITLB RFO          ACCESS:          0 HIT:          0 MISS:          0
cpu2_ITLB PREFETCH     ACCESS:          0 HIT:          0 MISS:          0
cpu2_ITLB WRITE        ACCESS:          0 HIT:          0 MISS:          0
cpu2_ITLB TRANSLATION  ACCESS:          0 HIT:          0 MISS:          0
cpu2_ITLB PREFETCH REQUESTED:          0 ISSUED:          0 USEFUL:          0 USELESS:          0
cpu2_ITLB AVERAGE MISS LATENCY: 1375 cycles
cpu2_L1D TOTAL        ACCESS:          0 HIT:          0 MISS:          0
cpu2_L1D LOAD         ACCESS:          0 HIT:          0 MISS:          0
cpu2_L1D RFO          ACCESS:          0 HIT:          0 MISS:          0
cpu2_L1D PREFETCH     ACCESS:          0 HIT:          0 MISS:          0
cpu2_L1D WRITE        ACCESS:          0 HIT:          0 MISS:          0
cpu2_L1D TRANSLATION  ACCESS:          0 HIT:          0 MISS:          0
cpu2_L1D PREFETCH REQUESTED:          0 ISSUED:          0 USEFUL:          0 USELESS:          0
cpu2_L1D AVERAGE MISS LATENCY: 335.3 cycles
cpu2_L1D TOTAL        ACCESS:          0 HIT:          0 MISS:          0
cpu2_L1D LOAD         ACCESS:          0 HIT:          0 MISS:          0
cpu2_L1D RFO          ACCESS:          0 HIT:          0 MISS:          0
cpu2_L1D PREFETCH     ACCESS:          0 HIT:          0 MISS:          0
cpu2_L1D WRITE        ACCESS:          0 HIT:          0 MISS:          0
cpu2_L1D TRANSLATION  ACCESS:          0 HIT:          0 MISS:          0
cpu2_L1D PREFETCH REQUESTED:          0 ISSUED:          0 USEFUL:          0 USELESS:          0
cpu2_L1D AVERAGE MISS LATENCY: 335.3 cycles
cpu2_L1D TOTAL        ACCESS:  262760694 HIT:  231068872 MISS:   31691822
cpu2_L1D LOAD         ACCESS:  145246409 HIT:  135007148 MISS:   10239261
cpu2_L1D RFO          ACCESS:          0 HIT:          0 MISS:          0
cpu2_L1D PREFETCH     ACCESS:          0 HIT:          0 MISS:          0
[...]
cpu2_L2C PREFETCH     ACCESS:          0 HIT:          0 MISS:          0
cpu2_L2C WRITE        ACCESS:          0 HIT:          0 MISS:          0
cpu2_L2C TRANSLATION  ACCESS:          0 HIT:          0 MISS:          0
cpu2_L2C PREFETCH REQUESTED:   39317987 ISSUED:   37335633 USEFUL:    4918178 USELESS:    1085960
cpu2_L2C AVERAGE MISS LATENCY: 916.6 cycles
cpu2_L2C TOTAL        ACCESS:          0 HIT:          0 MISS:          0
cpu2_L2C LOAD         ACCESS:          0 HIT:          0 MISS:          0
cpu2_L2C RFO          ACCESS:          0 HIT:          0 MISS:          0
cpu2_L2C PREFETCH     ACCESS:          0 HIT:          0 MISS:          0
cpu2_L2C WRITE        ACCESS:          0 HIT:          0 MISS:          0
cpu2_L2C TRANSLATION  ACCESS:          0 HIT:          0 MISS:          0
cpu2_L2C PREFETCH REQUESTED:   39317987 ISSUED:   37335633 USEFUL:    4918178 USELESS:    1085960
cpu2_L2C AVERAGE MISS LATENCY: 916.6 cycles
cpu2_L2C TOTAL        ACCESS:     163518 HIT:     111417 MISS:      52101
cpu2_L2C LOAD         ACCESS:      12738 HIT:      10631 MISS:       2107
cpu2_L2C RFO          ACCESS:       8735 HIT:        456 MISS:       8279
cpu2_L2C PREFETCH     ACCESS:     133252 HIT:      91587 MISS:      41665
cpu2_L2C WRITE        ACCESS:       8744 HIT:       8743 MISS:          1
cpu2_L2C TRANSLATION  ACCESS:         49 HIT:          0 MISS:         49
cpu2_L2C PREFETCH REQUESTED:   39317987 ISSUED:   37335633 USEFUL:    4918178 USELESS:    1085960
cpu2_L2C AVERAGE MISS LATENCY: 916.6 cycles
cpu2_L2C TOTAL        ACCESS:          0 HIT:          0 MISS:          0
cpu2_L2C LOAD         ACCESS:          0 HIT:          0 MISS:          0
cpu2_L2C RFO          ACCESS:          0 HIT:          0 MISS:          0
cpu2_L2C PREFETCH     ACCESS:          0 HIT:          0 MISS:          0
cpu2_L2C WRITE        ACCESS:          0 HIT:          0 MISS:          0
cpu2_L2C TRANSLATION  ACCESS:          0 HIT:          0 MISS:          0
cpu2_L2C PREFETCH REQUESTED:   39317987 ISSUED:   37335633 USEFUL:    4918178 USELESS:    1085960
cpu2_L2C AVERAGE MISS LATENCY: 916.6 cycles
cpu2_STLB TOTAL        ACCESS:          0 HIT:          0 MISS:          0
cpu2_STLB LOAD         ACCESS:          0 HIT:          0 MISS:          0
cpu2_STLB RFO          ACCESS:          0 HIT:          0 MISS:          0
cpu2_STLB PREFETCH     ACCESS:          0 HIT:          0 MISS:          0
cpu2_STLB WRITE        ACCESS:          0 HIT:          0 MISS:          0
cpu2_STLB TRANSLATION  ACCESS:          0 HIT:          0 MISS:          0
cpu2_STLB PREFETCH REQUESTED:          0 ISSUED:          0 USEFUL:          0 USELESS:          0
cpu2_STLB AVERAGE MISS LATENCY: 698.4 cycles
cpu2_STLB TOTAL        ACCESS:          0 HIT:          0 MISS:          0
cpu2_STLB LOAD         ACCESS:          0 HIT:          0 MISS:          0
cpu2_STLB RFO          ACCESS:          0 HIT:          0 MISS:          0
cpu2_STLB PREFETCH     ACCESS:          0 HIT:          0 MISS:          0
cpu2_STLB WRITE        ACCESS:          0 HIT:          0 MISS:          0
cpu2_STLB TRANSLATION  ACCESS:          0 HIT:          0 MISS:          0
cpu2_STLB PREFETCH REQUESTED:          0 ISSUED:          0 USEFUL:          0 USELESS:          0
cpu2_STLB AVERAGE MISS LATENCY: 698.4 cycles
cpu2_STLB TOTAL        ACCESS:        483 HIT:         48 MISS:        435
cpu2_STLB LOAD         ACCESS:        483 HIT:         48 MISS:        435
cpu2_STLB RFO          ACCESS:          0 HIT:          0 MISS:          0
cpu2_STLB PREFETCH     ACCESS:          0 HIT:          0 MISS:          0
cpu2_STLB WRITE        ACCESS:          0 HIT:          0 MISS:          0
cpu2_STLB TRANSLATION  ACCESS:          0 HIT:          0 MISS:          0
cpu2_STLB PREFETCH REQUESTED:          0 ISSUED:          0 USEFUL:          0 USELESS:          0
cpu2_STLB AVERAGE MISS LATENCY: 698.4 cycles
cpu2_STLB TOTAL        ACCESS:          0 HIT:          0 MISS:          0
cpu2_STLB LOAD         ACCESS:          0 HIT:          0 MISS:          0
cpu2_STLB RFO          ACCESS:          0 HIT:          0 MISS:          0
cpu2_STLB PREFETCH     ACCESS:          0 HIT:          0 MISS:          0
cpu2_STLB WRITE        ACCESS:          0 HIT:          0 MISS:          0
cpu2_STLB TRANSLATION  ACCESS:          0 HIT:          0 MISS:          0
cpu2_STLB PREFETCH REQUESTED:          0 ISSUED:          0 USEFUL:          0 USELESS:          0
cpu2_STLB AVERAGE MISS LATENCY: 698.4 cycles
cpu3_DTLB TOTAL        ACCESS:          0 HIT:          0 MISS:          0
cpu3_DTLB LOAD         ACCESS:          0 HIT:          0 MISS:          0
cpu3_DTLB RFO          ACCESS:          0 HIT:          0 MISS:          0
cpu3_DTLB PREFETCH     ACCESS:          0 HIT:          0 MISS:          0
cpu3_DTLB WRITE        ACCESS:          0 HIT:          0 MISS:          0
cpu3_DTLB TRANSLATION  ACCESS:          0 HIT:          0 MISS:          0
cpu3_DTLB PREFETCH REQUESTED:          0 ISSUED:          0 USEFUL:          0 USELESS:          0
cpu3_DTLB AVERAGE MISS LATENCY: 13.74 cycles
cpu3_DTLB TOTAL        ACCESS:          0 HIT:          0 MISS:          0
cpu3_DTLB LOAD         ACCESS:          0 HIT:          0 MISS:          0
cpu3_DTLB RFO          ACCESS:          0 HIT:          0 MISS:          0
cpu3_DTLB PREFETCH     ACCESS:          0 HIT:          0 MISS:          0
cpu3_DTLB WRITE        ACCESS:          0 HIT:          0 MISS:          0
cpu3_DTLB TRANSLATION  ACCESS:          0 HIT:          0 MISS:          0
cpu3_DTLB PREFETCH REQUESTED:          0 ISSUED:          0 USEFUL:          0 USELESS:          0
cpu3_DTLB AVERAGE MISS LATENCY: 13.74 cycles
cpu3_DTLB TOTAL        ACCESS:          0 HIT:          0 MISS:          0
cpu3_DTLB LOAD         ACCESS:          0 HIT:          0 MISS:          0
cpu3_DTLB RFO          ACCESS:          0 HIT:          0 MISS:          0
cpu3_DTLB PREFETCH     ACCESS:          0 HIT:          0 MISS:          0
cpu3_DTLB WRITE        ACCESS:          0 HIT:          0 MISS:          0
cpu3_DTLB TRANSLATION  ACCESS:          0 HIT:          0 MISS:          0
cpu3_DTLB PREFETCH REQUESTED:          0 ISSUED:          0 USEFUL:          0 USELESS:          0
cpu3_DTLB AVERAGE MISS LATENCY: 13.74 cycles
cpu3_DTLB TOTAL        ACCESS:   40824333 HIT:   38267598 MISS:    2556735
cpu3_DTLB LOAD         ACCESS:   40824333 HIT:   38267598 MISS:    2556735
cpu3_DTLB RFO          ACCESS:          0 HIT:          0 MISS:          0
cpu3_DTLB PREFETCH     ACCESS:          0 HIT:          0 MISS:          0
cpu3_DTLB WRITE        ACCESS:          0 HIT:          0 MISS:          0
cpu3_DTLB TRANSLATION  ACCESS:          0 HIT:          0 MISS:          0
cpu3_DTLB PREFETCH REQUESTED:          0 ISSUED:          0 USEFUL:          0 USELESS:          0
cpu3_DTLB AVERAGE MISS LATENCY: 13.74 cycles
cpu3_ITLB TOTAL        ACCESS:          0 HIT:          0 MISS:          0
cpu3_ITLB LOAD         ACCESS:          0 HIT:          0 MISS:          0
cpu3_ITLB RFO          ACCESS:          0 HIT:          0 MISS:          0
cpu3_ITLB PREFETCH     ACCESS:          0 HIT:          0 MISS:          0
cpu3_ITLB WRITE        ACCESS:          0 HIT:          0 MISS:          0
cpu3_ITLB TRANSLATION  ACCESS:          0 HIT:          0 MISS:          0
cpu3_ITLB PREFETCH REQUESTED:          0 ISSUED:          0 USEFUL:          0 USELESS:          0
cpu3_ITLB AVERAGE MISS LATENCY: -nan cycles
cpu3_ITLB TOTAL        ACCESS:          0 HIT:          0 MISS:          0
cpu3_ITLB LOAD         ACCESS:          0 HIT:          0 MISS:          0
cpu3_ITLB RFO          ACCESS:          0 HIT:          0 MISS:          0
cpu3_ITLB PREFETCH     ACCESS:          0 HIT:          0 MISS:          0
cpu3_ITLB WRITE        ACCESS:          0 HIT:          0 MISS:          0
cpu3_ITLB TRANSLATION  ACCESS:          0 HIT:          0 MISS:          0
cpu3_ITLB PREFETCH REQUESTED:          0 ISSUED:          0 USEFUL:          0 USELESS:          0
cpu3_ITLB AVERAGE MISS LATENCY: -nan cycles
cpu3_ITLB TOTAL        ACCESS:          0 HIT:          0 MISS:          0
cpu3_ITLB LOAD         ACCESS:          0 HIT:          0 MISS:          0
cpu3_ITLB RFO          ACCESS:          0 HIT:          0 MISS:          0
cpu3_ITLB PREFETCH     ACCESS:          0 HIT:          0 MISS:          0
cpu3_ITLB WRITE        ACCESS:          0 HIT:          0 MISS:          0
cpu3_ITLB TRANSLATION  ACCESS:          0 HIT:          0 MISS:          0
cpu3_ITLB PREFETCH REQUESTED:          0 ISSUED:          0 USEFUL:          0 USELESS:          0
cpu3_ITLB AVERAGE MISS LATENCY: -nan cycles
cpu3_ITLB TOTAL        ACCESS:      47983 HIT:      47983 MISS:          0
cpu3_ITLB LOAD         ACCESS:      47983 HIT:      47983 MISS:          0
cpu3_ITLB RFO          ACCESS:          0 HIT:          0 MISS:          0
cpu3_ITLB PREFETCH     ACCESS:          0 HIT:          0 MISS:          0
cpu3_ITLB WRITE        ACCESS:          0 HIT:          0 MISS:          0
cpu3_ITLB TRANSLATION  ACCESS:          0 HIT:          0 MISS:          0
cpu3_ITLB PREFETCH REQUESTED:          0 ISSUED:          0 USEFUL:          0 USELESS:          0
cpu3_ITLB AVERAGE MISS LATENCY: -nan cycles
cpu3_L1D TOTAL        ACCESS:          0 HIT:          0 MISS:          0
cpu3_L1D LOAD         ACCESS:          0 HIT:          0 MISS:          0
cpu3_L1D RFO          ACCESS:          0 HIT:          0 MISS:          0
cpu3_L1D PREFETCH     ACCESS:          0 HIT:          0 MISS:          0
cpu3_L1D WRITE        ACCESS:          0 HIT:          0 MISS:          0
cpu3_L1D TRANSLATION  ACCESS:          0 HIT:          0 MISS:          0
cpu3_L1D PREFETCH REQUESTED:          0 ISSUED:          0 USEFUL:          0 USELESS:          0
cpu3_L1D AVERAGE MISS LATENCY: 292.4 cycles
cpu3_L1D TOTAL        ACCESS:          0 HIT:          0 MISS:          0
cpu3_L1D LOAD         ACCESS:          0 HIT:          0 MISS:          0
cpu3_L1D RFO          ACCESS:          0 HIT:          0 MISS:          0
cpu3_L1D PREFETCH     ACCESS:          0 HIT:          0 MISS:          0
cpu3_L1D WRITE        ACCESS:          0 HIT:          0 MISS:          0
cpu3_L1D TRANSLATION  ACCESS:          0 HIT:          0 MISS:          0
cpu3_L1D PREFETCH REQUESTED:          0 ISSUED:          0 USEFUL:          0 USELESS:          0
cpu3_L1D AVERAGE MISS LATENCY: 292.4 cycles
cpu3_L1D TOTAL        ACCESS:          0 HIT:          0 MISS:          0
cpu3_L1D LOAD         ACCESS:          0 HIT:          0 MISS:          0
cpu3_L1D RFO          ACCESS:          0 HIT:          0 MISS:          0
cpu3_L1D PREFETCH     ACCESS:          0 HIT:          0 MISS:          0
cpu3_L1D WRITE        ACCESS:          0 HIT:          0 MISS:          0
cpu3_L1D TRANSLATION  ACCESS:          0 HIT:          0 MISS:          0
cpu3_L1D PREFETCH REQUESTED:          0 ISSUED:          0 USEFUL:          0 USELESS:          0
cpu3_L1D AVERAGE MISS LATENCY: 292.4 cycles
cpu3_L1D TOTAL        ACCESS:   52631261 HIT:   45572007 MISS:    7059254
cpu3_L1D LOAD         ACCESS:   34902978 HIT:   29434009 MISS:    5468969
cpu3_L1D RFO          ACCESS:          0 HIT:          0 MISS:          0
cpu3_L1D PREFETCH     ACCESS:          0 HIT:          0 MISS:          0
cpu3_L1D WRITE        ACCESS:   17696867 HIT:   16123534 MISS:    1573333
cpu3_L1D TRANSLATION  ACCESS:      31416 HIT:      14464 MISS:      16952
cpu3_L1D PREFETCH REQUESTED:          0 ISSUED:          0 USEFUL:          0 USELESS:          0
cpu3_L1D AVERAGE MISS LATENCY: 292.4 cycles
cpu3_L1I TOTAL        ACCESS:          0 HIT:          0 MISS:          0
cpu3_L1I LOAD         ACCESS:          0 HIT:          0 MISS:          0
cpu3_L1I RFO          ACCESS:          0 HIT:          0 MISS:          0
cpu3_L1I PREFETCH     ACCESS:          0 HIT:          0 MISS:          0
cpu3_L1I WRITE        ACCESS:          0 HIT:          0 MISS:          0
cpu3_L1I TRANSLATION  ACCESS:          0 HIT:          0 MISS:          0
cpu3_L1I PREFETCH REQUESTED:          0 ISSUED:          0 USEFUL:          0 USELESS:          0
cpu3_L1I AVERAGE MISS LATENCY: 1347 cycles
cpu3_L1I TOTAL        ACCESS:          0 HIT:          0 MISS:          0
cpu3_L1I LOAD         ACCESS:          0 HIT:          0 MISS:          0
cpu3_L1I RFO          ACCESS:          0 HIT:          0 MISS:          0
cpu3_L1I PREFETCH     ACCESS:          0 HIT:          0 MISS:          0
cpu3_L1I WRITE        ACCESS:          0 HIT:          0 MISS:          0
cpu3_L1I TRANSLATION  ACCESS:          0 HIT:          0 MISS:          0
cpu3_L1I PREFETCH REQUESTED:          0 ISSUED:          0 USEFUL:          0 USELESS:          0
cpu3_L1I AVERAGE MISS LATENCY: 1347 cycles
cpu3_L1I TOTAL        ACCESS:          0 HIT:          0 MISS:          0
cpu3_L1I LOAD         ACCESS:          0 HIT:          0 MISS:          0
cpu3_L1I RFO          ACCESS:          0 HIT:          0 MISS:          0
cpu3_L1I PREFETCH     ACCESS:          0 HIT:          0 MISS:          0
cpu3_L1I WRITE        ACCESS:          0 HIT:          0 MISS:          0
cpu3_L1I TRANSLATION  ACCESS:          0 HIT:          0 MISS:          0
cpu3_L1I PREFETCH REQUESTED:          0 ISSUED:          0 USEFUL:          0 USELESS:          0
cpu3_L1I AVERAGE MISS LATENCY: 1347 cycles
cpu3_L1I TOTAL        ACCESS:      53832 HIT:      53830 MISS:          2
cpu3_L1I LOAD         ACCESS:      53832 HIT:      53830 MISS:          2
cpu3_L1I RFO          ACCESS:          0 HIT:          0 MISS:          0
cpu3_L1I PREFETCH     ACCESS:          0 HIT:          0 MISS:          0
cpu3_L1I WRITE        ACCESS:          0 HIT:          0 MISS:          0
cpu3_L1I TRANSLATION  ACCESS:          0 HIT:          0 MISS:          0
cpu3_L1I PREFETCH REQUESTED:          0 ISSUED:          0 USEFUL:          0 USELESS:          0
cpu3_L1I AVERAGE MISS LATENCY: 1347 cycles
cpu3_L2C TOTAL        ACCESS:          0 HIT:          0 MISS:          0
cpu3_L2C LOAD         ACCESS:          0 HIT:          0 MISS:          0
cpu3_L2C RFO          ACCESS:          0 HIT:          0 MISS:          0
cpu3_L2C PREFETCH     ACCESS:          0 HIT:          0 MISS:          0
cpu3_L2C WRITE        ACCESS:          0 HIT:          0 MISS:          0
cpu3_L2C TRANSLATION  ACCESS:          0 HIT:          0 MISS:          0
cpu3_L2C PREFETCH REQUESTED:   10725605 ISSUED:   10718411 USEFUL:    1192604 USELESS:     102444
cpu3_L2C AVERAGE MISS LATENCY: 563.9 cycles
cpu3_L2C TOTAL        ACCESS:          0 HIT:          0 MISS:          0
cpu3_L2C LOAD         ACCESS:          0 HIT:          0 MISS:          0
cpu3_L2C RFO          ACCESS:          0 HIT:          0 MISS:          0
cpu3_L2C PREFETCH     ACCESS:          0 HIT:          0 MISS:          0
cpu3_L2C WRITE        ACCESS:          0 HIT:          0 MISS:          0
cpu3_L2C TRANSLATION  ACCESS:          0 HIT:          0 MISS:          0
cpu3_L2C PREFETCH REQUESTED:   10725605 ISSUED:   10718411 USEFUL:    1192604 USELESS:     102444
cpu3_L2C AVERAGE MISS LATENCY: 563.9 cycles
cpu3_L2C TOTAL        ACCESS:          0 HIT:          0 MISS:          0
cpu3_L2C LOAD         ACCESS:          0 HIT:          0 MISS:          0
cpu3_L2C RFO          ACCESS:          0 HIT:          0 MISS:          0
cpu3_L2C PREFETCH     ACCESS:          0 HIT:          0 MISS:          0
cpu3_L2C WRITE        ACCESS:          0 HIT:          0 MISS:          0
cpu3_L2C TRANSLATION  ACCESS:          0 HIT:          0 MISS:          0
cpu3_L2C PREFETCH REQUESTED:   10725605 ISSUED:   10718411 USEFUL:    1192604 USELESS:     102444
cpu3_L2C AVERAGE MISS LATENCY: 563.9 cycles
cpu3_L2C TOTAL        ACCESS:   14960705 HIT:    9920417 MISS:    5040288
cpu3_L2C LOAD         ACCESS:    4618984 HIT:    2591080 MISS:    2027904
cpu3_L2C RFO          ACCESS:     572975 HIT:     332611 MISS:     240364
cpu3_L2C PREFETCH     ACCESS:    8966962 HIT:    6209510 MISS:    2757452
cpu3_L2C WRITE        ACCESS:     784835 HIT:     784398 MISS:        437
cpu3_L2C TRANSLATION  ACCESS:      16949 HIT:       2818 MISS:      14131
cpu3_L2C PREFETCH REQUESTED:   10725605 ISSUED:   10718411 USEFUL:    1192604 USELESS:     102444
cpu3_L2C AVERAGE MISS LATENCY: 563.9 cycles
cpu3_STLB TOTAL        ACCESS:          0 HIT:          0 MISS:          0
cpu3_STLB LOAD         ACCESS:          0 HIT:          0 MISS:          0
cpu3_STLB RFO          ACCESS:          0 HIT:          0 MISS:          0
cpu3_STLB PREFETCH     ACCESS:          0 HIT:          0 MISS:          0
cpu3_STLB WRITE        ACCESS:          0 HIT:          0 MISS:          0
cpu3_STLB TRANSLATION  ACCESS:          0 HIT:          0 MISS:          0
cpu3_STLB PREFETCH REQUESTED:          0 ISSUED:          0 USEFUL:          0 USELESS:          0
cpu3_STLB AVERAGE MISS LATENCY: 629.7 cycles
cpu3_STLB TOTAL        ACCESS:          0 HIT:          0 MISS:          0
cpu3_STLB LOAD         ACCESS:          0 HIT:          0 MISS:          0
cpu3_STLB RFO          ACCESS:          0 HIT:          0 MISS:          0
cpu3_STLB PREFETCH     ACCESS:          0 HIT:          0 MISS:          0
cpu3_STLB WRITE        ACCESS:          0 HIT:          0 MISS:          0
cpu3_STLB TRANSLATION  ACCESS:          0 HIT:          0 MISS:          0
cpu3_STLB PREFETCH REQUESTED:          0 ISSUED:          0 USEFUL:          0 USELESS:          0
cpu3_STLB AVERAGE MISS LATENCY: 629.7 cycles
cpu3_STLB TOTAL        ACCESS:          0 HIT:          0 MISS:          0
cpu3_STLB LOAD         ACCESS:          0 HIT:          0 MISS:          0
cpu3_STLB RFO          ACCESS:          0 HIT:          0 MISS:          0
cpu3_STLB PREFETCH     ACCESS:          0 HIT:          0 MISS:          0
cpu3_STLB WRITE        ACCESS:          0 HIT:          0 MISS:          0
cpu3_STLB TRANSLATION  ACCESS:          0 HIT:          0 MISS:          0
cpu3_STLB PREFETCH REQUESTED:          0 ISSUED:          0 USEFUL:          0 USELESS:          0
cpu3_STLB AVERAGE MISS LATENCY: 629.7 cycles
cpu3_STLB TOTAL        ACCESS:    2225714 HIT:    2194535 MISS:      31179
cpu3_STLB LOAD         ACCESS:    2225714 HIT:    2194535 MISS:      31179
cpu3_STLB RFO          ACCESS:          0 HIT:          0 MISS:          0
cpu3_STLB PREFETCH     ACCESS:          0 HIT:          0 MISS:          0
cpu3_STLB WRITE        ACCESS:          0 HIT:          0 MISS:          0
cpu3_STLB TRANSLATION  ACCESS:          0 HIT:          0 MISS:          0
cpu3_STLB PREFETCH REQUESTED:          0 ISSUED:          0 USEFUL:          0 USELESS:          0
cpu3_STLB AVERAGE MISS LATENCY: 629.7 cycles

DRAM Statistics

Channel 0 RQ ROW_BUFFER_HIT:    2969499
  ROW_BUFFER_MISS:   18022045
 AVG DBUS CONGESTED CYCLE: 3.986
WQ ROW_BUFFER_HIT: Channel 0 
  ROW_BUFFER_MISS:      92931
  FULL:    4622400
BERTI TO_L1: 28161522 TO_L2: 26848817 TO_L2_BC_MSHR: 2150231
BERTI AVG_LAT: 1761.03 NUM_TRACK_LATENCY: 20352034 NUM_CANT_TRACK_LATENCY: 2585888
BERTI CROSS_PAGE 7201802 NO_CROSS_PAGE: 47808537
BERTI FOUND_BERTI: 30572337 NO_FOUND_BERTI: 76259728
BERTI AVERAGE_ISSUED: 5.37965
BERTI TO_L1: 28161522 TO_L2: 26848817 TO_L2_BC_MSHR: 2150231
BERTI AVG_LAT: 1761.03 NUM_TRACK_LATENCY: 20352034 NUM_CANT_TRACK_LATENCY: 2585888
BERTI CROSS_PAGE 7201802 NO_CROSS_PAGE: 47808537
BERTI FOUND_BERTI: 30572337 NO_FOUND_BERTI: 76259728
BERTI AVERAGE_ISSUED: 5.37965
BERTI TO_L1: 28161522 TO_L2: 26848817 TO_L2_BC_MSHR: 2150231
BERTI AVG_LAT: 1761.03 NUM_TRACK_LATENCY: 20352034 NUM_CANT_TRACK_LATENCY: 2585888
BERTI CROSS_PAGE 7201802 NO_CROSS_PAGE: 47808537
BERTI FOUND_BERTI: 30572337 NO_FOUND_BERTI: 76259728
BERTI AVERAGE_ISSUED: 5.37965
BERTI TO_L1: 28161522 TO_L2: 26848817 TO_L2_BC_MSHR: 2150231
BERTI AVG_LAT: 1761.03 NUM_TRACK_LATENCY: 20352034 NUM_CANT_TRACK_LATENCY: 2585888
BERTI CROSS_PAGE 7201802 NO_CROSS_PAGE: 47808537
BERTI FOUND_BERTI: 30572337 NO_FOUND_BERTI: 76259728
BERTI AVERAGE_ISSUED: 5.37965
