WARNING: physical memory size is smaller than virtual memory size.
WARNING: option --warmup_instructions is deprecated. Use --warmup-instructions instead.
WARNING: option --simulation_instructions is deprecated. Use --simulation-instructions instead.

*** ChampSim Multicore Out-of-Order Simulator ***
Warmup Instructions: 50000000
Simulation Instructions: 150000000
Number of CPUs: 4
Page size: 4096

Berti Prefetcher
BERTI HASH ORIGINAL
BERTI IP MASK ffff
Berti Prefetcher
BERTI HASH ORIGINAL
BERTI IP MASK ffff
Berti Prefetcher
BERTI HASH ORIGINAL
BERTI IP MASK ffff
Berti Prefetcher
BERTI HASH ORIGINAL
BERTI IP MASK ffff
Off-chip DRAM Size: 4 GiB Channels: 1 Width: 64-bit Data Race: 3200 MT/s
Heartbeat CPU 3 instructions: 10000001 cycles: 2502909 heartbeat IPC: 3.995 cumulative IPC: 3.995 (Simulation time: 00 hr 03 min 14 sec)
Heartbeat CPU 1 instructions: 10000001 cycles: 2991568 heartbeat IPC: 3.343 cumulative IPC: 3.343 (Simulation time: 00 hr 03 min 46 sec)
Heartbeat CPU 2 instructions: 10000002 cycles: 3063961 heartbeat IPC: 3.264 cumulative IPC: 3.264 (Simulation time: 00 hr 03 min 51 sec)
Heartbeat CPU 0 instructions: 10000004 cycles: 4174614 heartbeat IPC: 2.395 cumulative IPC: 2.395 (Simulation time: 00 hr 05 min 30 sec)
Heartbeat CPU 3 instructions: 20000001 cycles: 5005630 heartbeat IPC: 3.996 cumulative IPC: 3.996 (Simulation time: 00 hr 06 min 44 sec)
Heartbeat CPU 2 instructions: 20000002 cycles: 5748530 heartbeat IPC: 3.725 cumulative IPC: 3.479 (Simulation time: 00 hr 07 min 42 sec)
Heartbeat CPU 1 instructions: 20000003 cycles: 5982396 heartbeat IPC: 3.344 cumulative IPC: 3.343 (Simulation time: 00 hr 07 min 59 sec)
Heartbeat CPU 3 instructions: 30000003 cycles: 7507965 heartbeat IPC: 3.996 cumulative IPC: 3.996 (Simulation time: 00 hr 09 min 55 sec)
Heartbeat CPU 0 instructions: 20000004 cycles: 8346583 heartbeat IPC: 2.397 cumulative IPC: 2.396 (Simulation time: 00 hr 10 min 55 sec)
Heartbeat CPU 2 instructions: 30000001 cycles: 8967659 heartbeat IPC: 3.106 cumulative IPC: 3.345 (Simulation time: 00 hr 11 min 42 sec)
Heartbeat CPU 1 instructions: 30000001 cycles: 8968315 heartbeat IPC: 3.349 cumulative IPC: 3.345 (Simulation time: 00 hr 11 min 42 sec)
Heartbeat CPU 3 instructions: 40000002 cycles: 10010596 heartbeat IPC: 3.996 cumulative IPC: 3.996 (Simulation time: 00 hr 13 min 15 sec)
Heartbeat CPU 1 instructions: 40000004 cycles: 11938415 heartbeat IPC: 3.367 cumulative IPC: 3.351 (Simulation time: 00 hr 16 min 06 sec)
Heartbeat CPU 2 instructions: 40000004 cycles: 12222142 heartbeat IPC: 3.073 cumulative IPC: 3.273 (Simulation time: 00 hr 16 min 29 sec)
Heartbeat CPU 3 instructions: 50000003 cycles: 12513280 heartbeat IPC: 3.996 cumulative IPC: 3.996 (Simulation time: 00 hr 16 min 48 sec)
Warmup finished CPU 3 instructions: 50000003 cycles: 12513281 cumulative IPC: 3.996 (Simulation time: 00 hr 16 min 48 sec)
Heartbeat CPU 0 instructions: 30000001 cycles: 12518553 heartbeat IPC: 2.397 cumulative IPC: 2.396 (Simulation time: 00 hr 16 min 49 sec)
Heartbeat CPU 1 instructions: 50000002 cycles: 14911809 heartbeat IPC: 3.363 cumulative IPC: 3.353 (Simulation time: 00 hr 19 min 58 sec)
Warmup finished CPU 1 instructions: 50000002 cycles: 14911810 cumulative IPC: 3.353 (Simulation time: 00 hr 19 min 58 sec)
Heartbeat CPU 3 instructions: 60000001 cycles: 15016014 heartbeat IPC: 3.996 cumulative IPC: 3.996 (Simulation time: 00 hr 20 min 10 sec)
Heartbeat CPU 2 instructions: 50000002 cycles: 15376531 heartbeat IPC: 3.17 cumulative IPC: 3.252 (Simulation time: 00 hr 20 min 46 sec)
Warmup finished CPU 2 instructions: 50000002 cycles: 15376532 cumulative IPC: 3.252 (Simulation time: 00 hr 20 min 46 sec)
Heartbeat CPU 0 instructions: 40000000 cycles: 16705829 heartbeat IPC: 2.388 cumulative IPC: 2.394 (Simulation time: 00 hr 22 min 54 sec)
Heartbeat CPU 3 instructions: 70000001 cycles: 17520823 heartbeat IPC: 3.992 cumulative IPC: 3.995 (Simulation time: 00 hr 24 min 14 sec)
Heartbeat CPU 1 instructions: 60000001 cycles: 17890349 heartbeat IPC: 3.357 cumulative IPC: 3.354 (Simulation time: 00 hr 24 min 43 sec)
Heartbeat CPU 2 instructions: 60000003 cycles: 18085088 heartbeat IPC: 3.692 cumulative IPC: 3.318 (Simulation time: 00 hr 25 min 02 sec)
Heartbeat CPU 3 instructions: 80000000 cycles: 20022933 heartbeat IPC: 3.997 cumulative IPC: 3.995 (Simulation time: 00 hr 28 min 10 sec)
Heartbeat CPU 2 instructions: 70000001 cycles: 20810601 heartbeat IPC: 3.669 cumulative IPC: 3.364 (Simulation time: 00 hr 29 min 24 sec)
Heartbeat CPU 0 instructions: 50000003 cycles: 20870098 heartbeat IPC: 2.401 cumulative IPC: 2.396 (Simulation time: 00 hr 29 min 30 sec)
Warmup finished CPU 0 instructions: 50000003 cycles: 20870099 cumulative IPC: 2.396 (Simulation time: 00 hr 29 min 30 sec)
Warmup complete CPU 0 instructions: 50000003 cycles: 20870099 cumulative IPC: 2.396 (Simulation time: 00 hr 29 min 30 sec)
Warmup complete CPU 1 instructions: 69984769 cycles: 20870099 cumulative IPC: 3.353 (Simulation time: 00 hr 29 min 30 sec)
Warmup complete CPU 2 instructions: 70202450 cycles: 20870099 cumulative IPC: 3.364 (Simulation time: 00 hr 29 min 30 sec)
Warmup complete CPU 3 instructions: 83388660 cycles: 20870099 cumulative IPC: 3.996 (Simulation time: 00 hr 29 min 30 sec)
Heartbeat CPU 1 instructions: 70000001 cycles: 20875079 heartbeat IPC: 3.35 cumulative IPC: 3.059 (Simulation time: 00 hr 29 min 30 sec)
Heartbeat CPU 3 instructions: 90000004 cycles: 23960275 heartbeat IPC: 2.54 cumulative IPC: 2.139 (Simulation time: 00 hr 31 min 48 sec)
Heartbeat CPU 1 instructions: 80000003 cycles: 25188191 heartbeat IPC: 2.319 cumulative IPC: 2.319 (Simulation time: 00 hr 32 min 40 sec)
Heartbeat CPU 2 instructions: 80000001 cycles: 28190137 heartbeat IPC: 1.355 cumulative IPC: 1.338 (Simulation time: 00 hr 35 min 06 sec)
Heartbeat CPU 3 instructions: 100000000 cycles: 28658075 heartbeat IPC: 2.129 cumulative IPC: 2.133 (Simulation time: 00 hr 35 min 33 sec)
Heartbeat CPU 1 instructions: 90000002 cycles: 29722858 heartbeat IPC: 2.205 cumulative IPC: 2.261 (Simulation time: 00 hr 36 min 34 sec)
Heartbeat CPU 3 instructions: 110000001 cycles: 33339812 heartbeat IPC: 2.136 cumulative IPC: 2.134 (Simulation time: 00 hr 40 min 10 sec)
Heartbeat CPU 2 instructions: 90000001 cycles: 34094001 heartbeat IPC: 1.694 cumulative IPC: 1.497 (Simulation time: 00 hr 40 min 48 sec)
Heartbeat CPU 1 instructions: 100000000 cycles: 34660537 heartbeat IPC: 2.025 cumulative IPC: 2.177 (Simulation time: 00 hr 41 min 10 sec)
Heartbeat CPU 0 instructions: 60000000 cycles: 37356409 heartbeat IPC: 0.6066 cumulative IPC: 0.6066 (Simulation time: 00 hr 42 min 57 sec)
Heartbeat CPU 3 instructions: 120000000 cycles: 37953330 heartbeat IPC: 2.168 cumulative IPC: 2.143 (Simulation time: 00 hr 43 min 22 sec)
Heartbeat CPU 1 instructions: 110000001 cycles: 39441672 heartbeat IPC: 2.092 cumulative IPC: 2.155 (Simulation time: 00 hr 44 min 27 sec)
Heartbeat CPU 2 instructions: 100000000 cycles: 40941353 heartbeat IPC: 1.46 cumulative IPC: 1.485 (Simulation time: 00 hr 45 min 41 sec)
Heartbeat CPU 3 instructions: 130000002 cycles: 42594803 heartbeat IPC: 2.154 cumulative IPC: 2.146 (Simulation time: 00 hr 46 min 58 sec)
Heartbeat CPU 1 instructions: 120000000 cycles: 43852315 heartbeat IPC: 2.267 cumulative IPC: 2.176 (Simulation time: 00 hr 47 min 49 sec)
Heartbeat CPU 3 instructions: 140000000 cycles: 47247249 heartbeat IPC: 2.149 cumulative IPC: 2.146 (Simulation time: 00 hr 50 min 55 sec)
Heartbeat CPU 2 instructions: 110000004 cycles: 47507361 heartbeat IPC: 1.523 cumulative IPC: 1.494 (Simulation time: 00 hr 51 min 10 sec)
Heartbeat CPU 1 instructions: 130000001 cycles: 48269859 heartbeat IPC: 2.264 cumulative IPC: 2.19 (Simulation time: 00 hr 51 min 49 sec)
Heartbeat CPU 3 instructions: 150000004 cycles: 51843793 heartbeat IPC: 2.176 cumulative IPC: 2.151 (Simulation time: 00 hr 54 min 22 sec)
Heartbeat CPU 1 instructions: 140000000 cycles: 52789215 heartbeat IPC: 2.213 cumulative IPC: 2.194 (Simulation time: 00 hr 55 min 02 sec)
Heartbeat CPU 2 instructions: 120000000 cycles: 53972614 heartbeat IPC: 1.547 cumulative IPC: 1.504 (Simulation time: 00 hr 55 min 58 sec)
Heartbeat CPU 0 instructions: 70000004 cycles: 54697608 heartbeat IPC: 0.5767 cumulative IPC: 0.5912 (Simulation time: 00 hr 56 min 30 sec)
Heartbeat CPU 3 instructions: 160000003 cycles: 56443814 heartbeat IPC: 2.174 cumulative IPC: 2.154 (Simulation time: 00 hr 57 min 45 sec)
Heartbeat CPU 1 instructions: 150000003 cycles: 57307904 heartbeat IPC: 2.213 cumulative IPC: 2.196 (Simulation time: 00 hr 58 min 24 sec)
Heartbeat CPU 2 instructions: 130000001 cycles: 59379275 heartbeat IPC: 1.85 cumulative IPC: 1.553 (Simulation time: 00 hr 59 min 53 sec)
Heartbeat CPU 3 instructions: 170000003 cycles: 61027405 heartbeat IPC: 2.182 cumulative IPC: 2.157 (Simulation time: 01 hr 01 min 19 sec)
Heartbeat CPU 1 instructions: 160000000 cycles: 61831218 heartbeat IPC: 2.211 cumulative IPC: 2.198 (Simulation time: 01 hr 01 min 55 sec)
Heartbeat CPU 2 instructions: 140000000 cycles: 64839212 heartbeat IPC: 1.832 cumulative IPC: 1.587 (Simulation time: 01 hr 04 min 15 sec)
Heartbeat CPU 3 instructions: 180000004 cycles: 65622372 heartbeat IPC: 2.176 cumulative IPC: 2.159 (Simulation time: 01 hr 04 min 47 sec)
Heartbeat CPU 1 instructions: 170000003 cycles: 66364191 heartbeat IPC: 2.206 cumulative IPC: 2.198 (Simulation time: 01 hr 05 min 12 sec)
Heartbeat CPU 3 instructions: 190000002 cycles: 70224286 heartbeat IPC: 2.173 cumulative IPC: 2.16 (Simulation time: 01 hr 07 min 55 sec)
Heartbeat CPU 1 instructions: 180000002 cycles: 70888927 heartbeat IPC: 2.21 cumulative IPC: 2.199 (Simulation time: 01 hr 08 min 21 sec)
Heartbeat CPU 2 instructions: 150000004 cycles: 72185356 heartbeat IPC: 1.361 cumulative IPC: 1.555 (Simulation time: 01 hr 09 min 11 sec)
Heartbeat CPU 0 instructions: 80000002 cycles: 72896042 heartbeat IPC: 0.5495 cumulative IPC: 0.5766 (Simulation time: 01 hr 09 min 39 sec)
Heartbeat CPU 3 instructions: 200000000 cycles: 74826961 heartbeat IPC: 2.173 cumulative IPC: 2.161 (Simulation time: 01 hr 11 min 10 sec)
Heartbeat CPU 1 instructions: 190000000 cycles: 75414361 heartbeat IPC: 2.21 cumulative IPC: 2.2 (Simulation time: 01 hr 11 min 46 sec)
Heartbeat CPU 2 instructions: 160000002 cycles: 78152420 heartbeat IPC: 1.676 cumulative IPC: 1.568 (Simulation time: 01 hr 14 min 02 sec)
Heartbeat CPU 3 instructions: 210000000 cycles: 79394668 heartbeat IPC: 2.189 cumulative IPC: 2.163 (Simulation time: 01 hr 14 min 59 sec)
Heartbeat CPU 1 instructions: 200000004 cycles: 79932367 heartbeat IPC: 2.213 cumulative IPC: 2.201 (Simulation time: 01 hr 15 min 22 sec)
Heartbeat CPU 3 instructions: 220000000 cycles: 83951039 heartbeat IPC: 2.195 cumulative IPC: 2.166 (Simulation time: 01 hr 18 min 26 sec)
Heartbeat CPU 2 instructions: 170000004 cycles: 84408158 heartbeat IPC: 1.599 cumulative IPC: 1.571 (Simulation time: 01 hr 18 min 48 sec)
Heartbeat CPU 1 instructions: 210000003 cycles: 84451889 heartbeat IPC: 2.213 cumulative IPC: 2.202 (Simulation time: 01 hr 18 min 50 sec)
Heartbeat CPU 3 instructions: 230000001 cycles: 88526356 heartbeat IPC: 2.186 cumulative IPC: 2.167 (Simulation time: 01 hr 21 min 49 sec)
Simulation finished CPU 1 instructions: 150000001 cycles: 68011720 cumulative IPC: 2.206 (Simulation time: 01 hr 22 min 05 sec)
Heartbeat CPU 1 instructions: 220000004 cycles: 88886913 heartbeat IPC: 2.255 cumulative IPC: 2.206 (Simulation time: 01 hr 22 min 06 sec)
Heartbeat CPU 0 instructions: 90000001 cycles: 89076162 heartbeat IPC: 0.618 cumulative IPC: 0.5865 (Simulation time: 01 hr 22 min 14 sec)
Simulation finished CPU 3 instructions: 150000001 cycles: 69231958 cumulative IPC: 2.167 (Simulation time: 01 hr 22 min 59 sec)
Heartbeat CPU 2 instructions: 180000002 cycles: 90971624 heartbeat IPC: 1.524 cumulative IPC: 1.566 (Simulation time: 01 hr 23 min 39 sec)
Heartbeat CPU 3 instructions: 240000000 cycles: 93123914 heartbeat IPC: 2.175 cumulative IPC: 2.168 (Simulation time: 01 hr 25 min 21 sec)
Heartbeat CPU 1 instructions: 230000002 cycles: 93310160 heartbeat IPC: 2.261 cumulative IPC: 2.209 (Simulation time: 01 hr 25 min 29 sec)
Heartbeat CPU 2 instructions: 190000001 cycles: 97449084 heartbeat IPC: 1.544 cumulative IPC: 1.564 (Simulation time: 01 hr 28 min 55 sec)
Heartbeat CPU 3 instructions: 250000002 cycles: 97732650 heartbeat IPC: 2.17 cumulative IPC: 2.168 (Simulation time: 01 hr 29 min 11 sec)
Heartbeat CPU 1 instructions: 240000002 cycles: 97779196 heartbeat IPC: 2.238 cumulative IPC: 2.211 (Simulation time: 01 hr 29 min 14 sec)
Heartbeat CPU 1 instructions: 250000003 cycles: 102166249 heartbeat IPC: 2.279 cumulative IPC: 2.214 (Simulation time: 01 hr 33 min 26 sec)
Heartbeat CPU 3 instructions: 260000000 cycles: 102365579 heartbeat IPC: 2.158 cumulative IPC: 2.167 (Simulation time: 01 hr 33 min 39 sec)
Heartbeat CPU 2 instructions: 200000002 cycles: 103407861 heartbeat IPC: 1.678 cumulative IPC: 1.573 (Simulation time: 01 hr 34 min 51 sec)
Heartbeat CPU 1 instructions: 260000003 cycles: 106577407 heartbeat IPC: 2.267 cumulative IPC: 2.217 (Simulation time: 01 hr 38 min 21 sec)
Heartbeat CPU 3 instructions: 270000000 cycles: 106979680 heartbeat IPC: 2.167 cumulative IPC: 2.167 (Simulation time: 01 hr 38 min 46 sec)
Heartbeat CPU 0 instructions: 100000000 cycles: 107797384 heartbeat IPC: 0.5342 cumulative IPC: 0.5752 (Simulation time: 01 hr 39 min 36 sec)
Heartbeat CPU 2 instructions: 210000001 cycles: 108216894 heartbeat IPC: 2.079 cumulative IPC: 1.6 (Simulation time: 01 hr 40 min 03 sec)
Heartbeat CPU 1 instructions: 270000001 cycles: 111023630 heartbeat IPC: 2.249 cumulative IPC: 2.219 (Simulation time: 01 hr 42 min 30 sec)
Heartbeat CPU 3 instructions: 280000001 cycles: 111599731 heartbeat IPC: 2.164 cumulative IPC: 2.167 (Simulation time: 01 hr 42 min 57 sec)
Heartbeat CPU 1 instructions: 280000001 cycles: 115352858 heartbeat IPC: 2.31 cumulative IPC: 2.223 (Simulation time: 01 hr 45 min 36 sec)
Heartbeat CPU 2 instructions: 220000000 cycles: 115581445 heartbeat IPC: 1.358 cumulative IPC: 1.582 (Simulation time: 01 hr 45 min 47 sec)
Simulation finished CPU 2 instructions: 150000002 cycles: 94850125 cumulative IPC: 1.581 (Simulation time: 01 hr 45 min 52 sec)
Heartbeat CPU 3 instructions: 290000004 cycles: 116225447 heartbeat IPC: 2.162 cumulative IPC: 2.167 (Simulation time: 01 hr 46 min 12 sec)
Heartbeat CPU 1 instructions: 290000000 cycles: 119635241 heartbeat IPC: 2.335 cumulative IPC: 2.228 (Simulation time: 01 hr 48 min 32 sec)
Heartbeat CPU 3 instructions: 300000000 cycles: 120833505 heartbeat IPC: 2.17 cumulative IPC: 2.167 (Simulation time: 01 hr 49 min 22 sec)
Heartbeat CPU 2 instructions: 230000000 cycles: 122232561 heartbeat IPC: 1.504 cumulative IPC: 1.576 (Simulation time: 01 hr 50 min 22 sec)
Heartbeat CPU 1 instructions: 300000004 cycles: 123043512 heartbeat IPC: 2.934 cumulative IPC: 2.251 (Simulation time: 01 hr 50 min 57 sec)
Heartbeat CPU 3 instructions: 310000001 cycles: 125441185 heartbeat IPC: 2.17 cumulative IPC: 2.167 (Simulation time: 01 hr 52 min 47 sec)
Heartbeat CPU 1 instructions: 310000000 cycles: 126531218 heartbeat IPC: 2.867 cumulative IPC: 2.272 (Simulation time: 01 hr 53 min 36 sec)
Heartbeat CPU 0 instructions: 110000004 cycles: 126751664 heartbeat IPC: 0.5276 cumulative IPC: 0.5667 (Simulation time: 01 hr 53 min 44 sec)
Heartbeat CPU 2 instructions: 240000001 cycles: 128720514 heartbeat IPC: 1.541 cumulative IPC: 1.574 (Simulation time: 01 hr 55 min 01 sec)
Heartbeat CPU 3 instructions: 320000001 cycles: 130042556 heartbeat IPC: 2.173 cumulative IPC: 2.167 (Simulation time: 01 hr 56 min 10 sec)
Heartbeat CPU 1 instructions: 320000000 cycles: 131148444 heartbeat IPC: 2.166 cumulative IPC: 2.267 (Simulation time: 01 hr 57 min 12 sec)
Heartbeat CPU 3 instructions: 330000001 cycles: 134637901 heartbeat IPC: 2.176 cumulative IPC: 2.168 (Simulation time: 01 hr 59 min 32 sec)
Heartbeat CPU 2 instructions: 250000001 cycles: 135434638 heartbeat IPC: 1.489 cumulative IPC: 1.569 (Simulation time: 02 hr 00 min 03 sec)
Heartbeat CPU 1 instructions: 330000001 cycles: 136200063 heartbeat IPC: 1.98 cumulative IPC: 2.255 (Simulation time: 02 hr 00 min 28 sec)
Heartbeat CPU 3 instructions: 340000000 cycles: 140541098 heartbeat IPC: 1.694 cumulative IPC: 2.144 (Simulation time: 02 hr 03 min 38 sec)
Heartbeat CPU 1 instructions: 340000002 cycles: 140794361 heartbeat IPC: 2.177 cumulative IPC: 2.252 (Simulation time: 02 hr 03 min 49 sec)
Heartbeat CPU 2 instructions: 260000000 cycles: 142088613 heartbeat IPC: 1.503 cumulative IPC: 1.566 (Simulation time: 02 hr 04 min 48 sec)
Heartbeat CPU 1 instructions: 350000000 cycles: 144457790 heartbeat IPC: 2.73 cumulative IPC: 2.266 (Simulation time: 02 hr 06 min 34 sec)
Heartbeat CPU 3 instructions: 350000002 cycles: 145780338 heartbeat IPC: 1.909 cumulative IPC: 2.134 (Simulation time: 02 hr 07 min 37 sec)
Heartbeat CPU 2 instructions: 270000000 cycles: 147089688 heartbeat IPC: 2 cumulative IPC: 1.583 (Simulation time: 02 hr 08 min 48 sec)
Heartbeat CPU 1 instructions: 360000002 cycles: 147819352 heartbeat IPC: 2.975 cumulative IPC: 2.284 (Simulation time: 02 hr 09 min 24 sec)
Heartbeat CPU 0 instructions: 120000004 cycles: 148812528 heartbeat IPC: 0.4533 cumulative IPC: 0.5471 (Simulation time: 02 hr 10 min 20 sec)
Heartbeat CPU 3 instructions: 360000002 cycles: 150868241 heartbeat IPC: 1.965 cumulative IPC: 2.128 (Simulation time: 02 hr 12 min 42 sec)
Heartbeat CPU 1 instructions: 370000000 cycles: 151225867 heartbeat IPC: 2.936 cumulative IPC: 2.302 (Simulation time: 02 hr 13 min 07 sec)
Heartbeat CPU 2 instructions: 280000000 cycles: 152042429 heartbeat IPC: 2.019 cumulative IPC: 1.599 (Simulation time: 02 hr 13 min 52 sec)
Heartbeat CPU 1 instructions: 380000004 cycles: 154608138 heartbeat IPC: 2.957 cumulative IPC: 2.318 (Simulation time: 02 hr 16 min 10 sec)
Heartbeat CPU 3 instructions: 370000000 cycles: 155833435 heartbeat IPC: 2.014 cumulative IPC: 2.124 (Simulation time: 02 hr 17 min 10 sec)
Heartbeat CPU 2 instructions: 290000003 cycles: 157672210 heartbeat IPC: 1.776 cumulative IPC: 1.607 (Simulation time: 02 hr 18 min 43 sec)
Heartbeat CPU 1 instructions: 390000000 cycles: 157997765 heartbeat IPC: 2.95 cumulative IPC: 2.334 (Simulation time: 02 hr 19 min 06 sec)
Heartbeat CPU 3 instructions: 380000002 cycles: 160788008 heartbeat IPC: 2.018 cumulative IPC: 2.12 (Simulation time: 02 hr 21 min 33 sec)
Heartbeat CPU 1 instructions: 400000003 cycles: 161378421 heartbeat IPC: 2.958 cumulative IPC: 2.349 (Simulation time: 02 hr 21 min 59 sec)
Heartbeat CPU 1 instructions: 410000003 cycles: 164952137 heartbeat IPC: 2.798 cumulative IPC: 2.36 (Simulation time: 02 hr 24 min 35 sec)
Heartbeat CPU 2 instructions: 300000004 cycles: 166905064 heartbeat IPC: 1.083 cumulative IPC: 1.574 (Simulation time: 02 hr 25 min 52 sec)
Heartbeat CPU 1 instructions: 420000004 cycles: 169107591 heartbeat IPC: 2.406 cumulative IPC: 2.361 (Simulation time: 02 hr 27 min 19 sec)
Heartbeat CPU 1 instructions: 430000000 cycles: 172891393 heartbeat IPC: 2.643 cumulative IPC: 2.368 (Simulation time: 02 hr 29 min 47 sec)
Heartbeat CPU 3 instructions: 390000001 cycles: 173938519 heartbeat IPC: 0.7604 cumulative IPC: 2.003 (Simulation time: 02 hr 30 min 35 sec)
Heartbeat CPU 1 instructions: 440000003 cycles: 176345318 heartbeat IPC: 2.895 cumulative IPC: 2.38 (Simulation time: 02 hr 32 min 29 sec)
Heartbeat CPU 2 instructions: 310000001 cycles: 177037371 heartbeat IPC: 0.9869 cumulative IPC: 1.536 (Simulation time: 02 hr 32 min 58 sec)
Heartbeat CPU 3 instructions: 400000003 cycles: 178392238 heartbeat IPC: 2.245 cumulative IPC: 2.01 (Simulation time: 02 hr 34 min 02 sec)
Heartbeat CPU 0 instructions: 130000002 cycles: 178430912 heartbeat IPC: 0.3376 cumulative IPC: 0.5077 (Simulation time: 02 hr 34 min 04 sec)
Heartbeat CPU 1 instructions: 450000003 cycles: 179800091 heartbeat IPC: 2.895 cumulative IPC: 2.391 (Simulation time: 02 hr 35 min 05 sec)
Heartbeat CPU 3 instructions: 410000003 cycles: 183247790 heartbeat IPC: 2.059 cumulative IPC: 2.011 (Simulation time: 02 hr 37 min 20 sec)
Heartbeat CPU 1 instructions: 460000003 cycles: 183372251 heartbeat IPC: 2.799 cumulative IPC: 2.4 (Simulation time: 02 hr 37 min 25 sec)
Heartbeat CPU 2 instructions: 320000001 cycles: 185002499 heartbeat IPC: 1.255 cumulative IPC: 1.522 (Simulation time: 02 hr 38 min 49 sec)
Heartbeat CPU 1 instructions: 470000002 cycles: 186792668 heartbeat IPC: 2.924 cumulative IPC: 2.411 (Simulation time: 02 hr 40 min 23 sec)
Heartbeat CPU 3 instructions: 420000000 cycles: 187992573 heartbeat IPC: 2.108 cumulative IPC: 2.014 (Simulation time: 02 hr 41 min 29 sec)
Heartbeat CPU 1 instructions: 480000003 cycles: 190234731 heartbeat IPC: 2.905 cumulative IPC: 2.421 (Simulation time: 02 hr 43 min 30 sec)
Heartbeat CPU 2 instructions: 330000000 cycles: 192657797 heartbeat IPC: 1.306 cumulative IPC: 1.512 (Simulation time: 02 hr 45 min 40 sec)
Heartbeat CPU 3 instructions: 430000001 cycles: 192743626 heartbeat IPC: 2.105 cumulative IPC: 2.017 (Simulation time: 02 hr 45 min 44 sec)
Heartbeat CPU 1 instructions: 490000002 cycles: 193665512 heartbeat IPC: 2.915 cumulative IPC: 2.431 (Simulation time: 02 hr 46 min 34 sec)
Heartbeat CPU 1 instructions: 500000002 cycles: 197121046 heartbeat IPC: 2.894 cumulative IPC: 2.44 (Simulation time: 02 hr 49 min 44 sec)
Heartbeat CPU 3 instructions: 440000003 cycles: 197540803 heartbeat IPC: 2.085 cumulative IPC: 2.019 (Simulation time: 02 hr 50 min 06 sec)
Heartbeat CPU 2 instructions: 340000000 cycles: 200255108 heartbeat IPC: 1.316 cumulative IPC: 1.504 (Simulation time: 02 hr 52 min 03 sec)
Heartbeat CPU 1 instructions: 510000004 cycles: 200592537 heartbeat IPC: 2.881 cumulative IPC: 2.448 (Simulation time: 02 hr 52 min 19 sec)
Heartbeat CPU 3 instructions: 450000000 cycles: 202498322 heartbeat IPC: 2.017 cumulative IPC: 2.018 (Simulation time: 02 hr 53 min 41 sec)
Heartbeat CPU 1 instructions: 520000004 cycles: 204147797 heartbeat IPC: 2.813 cumulative IPC: 2.455 (Simulation time: 02 hr 54 min 49 sec)
Heartbeat CPU 3 instructions: 460000001 cycles: 207277150 heartbeat IPC: 2.093 cumulative IPC: 2.02 (Simulation time: 02 hr 57 min 11 sec)
Heartbeat CPU 2 instructions: 350000003 cycles: 207525570 heartbeat IPC: 1.375 cumulative IPC: 1.499 (Simulation time: 02 hr 57 min 24 sec)
Heartbeat CPU 1 instructions: 530000002 cycles: 207599240 heartbeat IPC: 2.897 cumulative IPC: 2.464 (Simulation time: 02 hr 57 min 27 sec)
Heartbeat CPU 0 instructions: 140000001 cycles: 207674374 heartbeat IPC: 0.342 cumulative IPC: 0.4818 (Simulation time: 02 hr 57 min 31 sec)
Heartbeat CPU 1 instructions: 540000002 cycles: 211145797 heartbeat IPC: 2.82 cumulative IPC: 2.47 (Simulation time: 03 hr 00 min 27 sec)
Heartbeat CPU 3 instructions: 470000001 cycles: 211841202 heartbeat IPC: 2.191 cumulative IPC: 2.024 (Simulation time: 03 hr 01 min 06 sec)
Heartbeat CPU 1 instructions: 550000001 cycles: 214699510 heartbeat IPC: 2.814 cumulative IPC: 2.476 (Simulation time: 03 hr 03 min 27 sec)
Heartbeat CPU 2 instructions: 360000001 cycles: 214771814 heartbeat IPC: 1.38 cumulative IPC: 1.495 (Simulation time: 03 hr 03 min 30 sec)
Heartbeat CPU 3 instructions: 480000000 cycles: 216663130 heartbeat IPC: 2.074 cumulative IPC: 2.026 (Simulation time: 03 hr 04 min 53 sec)
Heartbeat CPU 1 instructions: 560000002 cycles: 218310957 heartbeat IPC: 2.769 cumulative IPC: 2.482 (Simulation time: 03 hr 06 min 11 sec)
Heartbeat CPU 1 instructions: 570000001 cycles: 221901537 heartbeat IPC: 2.785 cumulative IPC: 2.487 (Simulation time: 03 hr 08 min 36 sec)
Heartbeat CPU 2 instructions: 370000000 cycles: 222609110 heartbeat IPC: 1.276 cumulative IPC: 1.486 (Simulation time: 03 hr 09 min 06 sec)
Heartbeat CPU 3 instructions: 490000002 cycles: 223889346 heartbeat IPC: 1.384 cumulative IPC: 2.003 (Simulation time: 03 hr 10 min 03 sec)
Heartbeat CPU 1 instructions: 580000004 cycles: 225394284 heartbeat IPC: 2.863 cumulative IPC: 2.494 (Simulation time: 03 hr 11 min 07 sec)
Heartbeat CPU 2 instructions: 380000003 cycles: 228191527 heartbeat IPC: 1.791 cumulative IPC: 1.494 (Simulation time: 03 hr 13 min 12 sec)
Heartbeat CPU 1 instructions: 590000000 cycles: 228854372 heartbeat IPC: 2.89 cumulative IPC: 2.5 (Simulation time: 03 hr 13 min 43 sec)
Heartbeat CPU 3 instructions: 500000002 cycles: 230179450 heartbeat IPC: 1.59 cumulative IPC: 1.99 (Simulation time: 03 hr 14 min 43 sec)
Heartbeat CPU 1 instructions: 600000002 cycles: 232334275 heartbeat IPC: 2.874 cumulative IPC: 2.506 (Simulation time: 03 hr 16 min 23 sec)
Heartbeat CPU 2 instructions: 390000000 cycles: 233387344 heartbeat IPC: 1.925 cumulative IPC: 1.505 (Simulation time: 03 hr 17 min 13 sec)
Heartbeat CPU 0 instructions: 150000003 cycles: 235672624 heartbeat IPC: 0.3572 cumulative IPC: 0.4655 (Simulation time: 03 hr 19 min 03 sec)
Heartbeat CPU 1 instructions: 610000000 cycles: 235801485 heartbeat IPC: 2.884 cumulative IPC: 2.513 (Simulation time: 03 hr 19 min 08 sec)
Heartbeat CPU 3 instructions: 510000002 cycles: 236233125 heartbeat IPC: 1.652 cumulative IPC: 1.981 (Simulation time: 03 hr 19 min 29 sec)
Heartbeat CPU 2 instructions: 400000000 cycles: 238815017 heartbeat IPC: 1.842 cumulative IPC: 1.513 (Simulation time: 03 hr 21 min 29 sec)
Heartbeat CPU 1 instructions: 620000002 cycles: 239247709 heartbeat IPC: 2.902 cumulative IPC: 2.519 (Simulation time: 03 hr 21 min 49 sec)
Heartbeat CPU 3 instructions: 520000000 cycles: 242253029 heartbeat IPC: 1.661 cumulative IPC: 1.972 (Simulation time: 03 hr 24 min 04 sec)
Heartbeat CPU 1 instructions: 630000002 cycles: 242712248 heartbeat IPC: 2.886 cumulative IPC: 2.524 (Simulation time: 03 hr 24 min 26 sec)
Heartbeat CPU 2 instructions: 410000001 cycles: 244748516 heartbeat IPC: 1.685 cumulative IPC: 1.518 (Simulation time: 03 hr 25 min 58 sec)
Heartbeat CPU 1 instructions: 640000004 cycles: 246144867 heartbeat IPC: 2.913 cumulative IPC: 2.53 (Simulation time: 03 hr 26 min 59 sec)
Heartbeat CPU 3 instructions: 530000003 cycles: 248117344 heartbeat IPC: 1.705 cumulative IPC: 1.965 (Simulation time: 03 hr 28 min 28 sec)
Heartbeat CPU 1 instructions: 650000002 cycles: 249636190 heartbeat IPC: 2.864 cumulative IPC: 2.535 (Simulation time: 03 hr 29 min 36 sec)
Heartbeat CPU 1 instructions: 660000000 cycles: 253071602 heartbeat IPC: 2.911 cumulative IPC: 2.541 (Simulation time: 03 hr 32 min 00 sec)
Heartbeat CPU 2 instructions: 420000002 cycles: 253244209 heartbeat IPC: 1.177 cumulative IPC: 1.505 (Simulation time: 03 hr 32 min 09 sec)
Heartbeat CPU 3 instructions: 540000000 cycles: 253978217 heartbeat IPC: 1.706 cumulative IPC: 1.959 (Simulation time: 03 hr 32 min 43 sec)
Heartbeat CPU 1 instructions: 670000003 cycles: 256588909 heartbeat IPC: 2.843 cumulative IPC: 2.545 (Simulation time: 03 hr 34 min 38 sec)
Heartbeat CPU 0 instructions: 160000002 cycles: 258009981 heartbeat IPC: 0.4477 cumulative IPC: 0.4639 (Simulation time: 03 hr 35 min 45 sec)
Heartbeat CPU 3 instructions: 550000002 cycles: 260017839 heartbeat IPC: 1.656 cumulative IPC: 1.951 (Simulation time: 03 hr 37 min 10 sec)
Heartbeat CPU 1 instructions: 680000004 cycles: 260064366 heartbeat IPC: 2.877 cumulative IPC: 2.55 (Simulation time: 03 hr 37 min 12 sec)
Heartbeat CPU 2 instructions: 430000004 cycles: 260601953 heartbeat IPC: 1.359 cumulative IPC: 1.501 (Simulation time: 03 hr 37 min 39 sec)
Heartbeat CPU 1 instructions: 690000002 cycles: 263493553 heartbeat IPC: 2.916 cumulative IPC: 2.555 (Simulation time: 03 hr 39 min 42 sec)
Heartbeat CPU 3 instructions: 560000002 cycles: 266010857 heartbeat IPC: 1.669 cumulative IPC: 1.944 (Simulation time: 03 hr 41 min 35 sec)
Heartbeat CPU 1 instructions: 700000000 cycles: 266996770 heartbeat IPC: 2.855 cumulative IPC: 2.56 (Simulation time: 03 hr 42 min 22 sec)
Heartbeat CPU 2 instructions: 440000000 cycles: 267824504 heartbeat IPC: 1.385 cumulative IPC: 1.497 (Simulation time: 03 hr 42 min 58 sec)
Heartbeat CPU 1 instructions: 710000001 cycles: 270933565 heartbeat IPC: 2.54 cumulative IPC: 2.559 (Simulation time: 03 hr 45 min 20 sec)
Heartbeat CPU 3 instructions: 570000004 cycles: 272355172 heartbeat IPC: 1.576 cumulative IPC: 1.935 (Simulation time: 03 hr 46 min 27 sec)
Heartbeat CPU 1 instructions: 720000001 cycles: 274407959 heartbeat IPC: 2.878 cumulative IPC: 2.564 (Simulation time: 03 hr 47 min 48 sec)
Heartbeat CPU 2 instructions: 450000001 cycles: 275324067 heartbeat IPC: 1.333 cumulative IPC: 1.493 (Simulation time: 03 hr 48 min 25 sec)
Heartbeat CPU 1 instructions: 730000000 cycles: 277851369 heartbeat IPC: 2.904 cumulative IPC: 2.568 (Simulation time: 03 hr 50 min 20 sec)
Heartbeat CPU 3 instructions: 580000000 cycles: 278446104 heartbeat IPC: 1.642 cumulative IPC: 1.928 (Simulation time: 03 hr 50 min 46 sec)
Heartbeat CPU 2 instructions: 460000002 cycles: 280373205 heartbeat IPC: 1.981 cumulative IPC: 1.502 (Simulation time: 03 hr 52 min 08 sec)
Heartbeat CPU 1 instructions: 740000001 cycles: 281286592 heartbeat IPC: 2.911 cumulative IPC: 2.573 (Simulation time: 03 hr 52 min 47 sec)
Heartbeat CPU 0 instructions: 170000002 cycles: 282412965 heartbeat IPC: 0.4098 cumulative IPC: 0.4588 (Simulation time: 03 hr 53 min 40 sec)
Heartbeat CPU 3 instructions: 590000001 cycles: 284493799 heartbeat IPC: 1.654 cumulative IPC: 1.922 (Simulation time: 03 hr 55 min 13 sec)
Heartbeat CPU 1 instructions: 750000000 cycles: 284728754 heartbeat IPC: 2.905 cumulative IPC: 2.577 (Simulation time: 03 hr 55 min 22 sec)
Heartbeat CPU 1 instructions: 760000002 cycles: 288159390 heartbeat IPC: 2.915 cumulative IPC: 2.582 (Simulation time: 03 hr 57 min 36 sec)
Heartbeat CPU 2 instructions: 470000004 cycles: 288754905 heartbeat IPC: 1.193 cumulative IPC: 1.492 (Simulation time: 03 hr 58 min 01 sec)
Heartbeat CPU 3 instructions: 600000000 cycles: 290434790 heartbeat IPC: 1.683 cumulative IPC: 1.916 (Simulation time: 03 hr 59 min 21 sec)
Heartbeat CPU 1 instructions: 770000004 cycles: 291638848 heartbeat IPC: 2.874 cumulative IPC: 2.585 (Simulation time: 04 hr 00 min 22 sec)
Heartbeat CPU 1 instructions: 780000002 cycles: 295069236 heartbeat IPC: 2.915 cumulative IPC: 2.589 (Simulation time: 04 hr 03 min 07 sec)
Heartbeat CPU 2 instructions: 480000000 cycles: 295658856 heartbeat IPC: 1.448 cumulative IPC: 1.491 (Simulation time: 04 hr 03 min 33 sec)
Heartbeat CPU 3 instructions: 610000000 cycles: 296453861 heartbeat IPC: 1.661 cumulative IPC: 1.911 (Simulation time: 04 hr 04 min 06 sec)
Heartbeat CPU 1 instructions: 790000000 cycles: 298520795 heartbeat IPC: 2.897 cumulative IPC: 2.593 (Simulation time: 04 hr 05 min 40 sec)
Heartbeat CPU 1 instructions: 800000000 cycles: 302240363 heartbeat IPC: 2.688 cumulative IPC: 2.595 (Simulation time: 04 hr 08 min 08 sec)
Heartbeat CPU 2 instructions: 490000002 cycles: 303892188 heartbeat IPC: 1.215 cumulative IPC: 1.483 (Simulation time: 04 hr 09 min 17 sec)
Heartbeat CPU 1 instructions: 810000000 cycles: 305823396 heartbeat IPC: 2.791 cumulative IPC: 2.597 (Simulation time: 04 hr 10 min 33 sec)
Heartbeat CPU 1 instructions: 820000003 cycles: 309447582 heartbeat IPC: 2.759 cumulative IPC: 2.599 (Simulation time: 04 hr 12 min 49 sec)
Heartbeat CPU 1 instructions: 830000001 cycles: 313226203 heartbeat IPC: 2.646 cumulative IPC: 2.6 (Simulation time: 04 hr 14 min 59 sec)
Heartbeat CPU 3 instructions: 620000003 cycles: 313424805 heartbeat IPC: 0.5892 cumulative IPC: 1.834 (Simulation time: 04 hr 15 min 07 sec)
Heartbeat CPU 1 instructions: 840000000 cycles: 317052521 heartbeat IPC: 2.613 cumulative IPC: 2.6 (Simulation time: 04 hr 17 min 03 sec)
Heartbeat CPU 2 instructions: 500000000 cycles: 320743698 heartbeat IPC: 0.5934 cumulative IPC: 1.433 (Simulation time: 04 hr 19 min 15 sec)
Heartbeat CPU 1 instructions: 850000002 cycles: 320847967 heartbeat IPC: 2.635 cumulative IPC: 2.6 (Simulation time: 04 hr 19 min 18 sec)
Heartbeat CPU 1 instructions: 860000004 cycles: 324741820 heartbeat IPC: 2.568 cumulative IPC: 2.6 (Simulation time: 04 hr 21 min 56 sec)
Heartbeat CPU 0 instructions: 180000001 cycles: 326356888 heartbeat IPC: 0.2276 cumulative IPC: 0.4256 (Simulation time: 04 hr 23 min 01 sec)
Heartbeat CPU 3 instructions: 630000003 cycles: 328097252 heartbeat IPC: 0.6815 cumulative IPC: 1.779 (Simulation time: 04 hr 24 min 09 sec)
Heartbeat CPU 1 instructions: 870000002 cycles: 328382114 heartbeat IPC: 2.747 cumulative IPC: 2.602 (Simulation time: 04 hr 24 min 20 sec)
Heartbeat CPU 1 instructions: 880000000 cycles: 331992724 heartbeat IPC: 2.77 cumulative IPC: 2.604 (Simulation time: 04 hr 26 min 49 sec)
Heartbeat CPU 2 instructions: 510000001 cycles: 334394143 heartbeat IPC: 0.7326 cumulative IPC: 1.403 (Simulation time: 04 hr 28 min 31 sec)
Heartbeat CPU 1 instructions: 890000003 cycles: 335582121 heartbeat IPC: 2.786 cumulative IPC: 2.606 (Simulation time: 04 hr 29 min 20 sec)
Heartbeat CPU 3 instructions: 640000004 cycles: 337494418 heartbeat IPC: 1.064 cumulative IPC: 1.758 (Simulation time: 04 hr 30 min 37 sec)
Heartbeat CPU 1 instructions: 900000001 cycles: 339142777 heartbeat IPC: 2.808 cumulative IPC: 2.608 (Simulation time: 04 hr 31 min 42 sec)
Heartbeat CPU 1 instructions: 910000000 cycles: 342841392 heartbeat IPC: 2.704 cumulative IPC: 2.609 (Simulation time: 04 hr 34 min 14 sec)
Heartbeat CPU 2 instructions: 520000000 cycles: 344502534 heartbeat IPC: 0.9893 cumulative IPC: 1.39 (Simulation time: 04 hr 35 min 26 sec)
Heartbeat CPU 1 instructions: 920000004 cycles: 346799863 heartbeat IPC: 2.526 cumulative IPC: 2.608 (Simulation time: 04 hr 36 min 53 sec)
Heartbeat CPU 3 instructions: 650000001 cycles: 348278927 heartbeat IPC: 0.9273 cumulative IPC: 1.731 (Simulation time: 04 hr 37 min 49 sec)
Heartbeat CPU 1 instructions: 930000002 cycles: 350808794 heartbeat IPC: 2.494 cumulative IPC: 2.607 (Simulation time: 04 hr 39 min 29 sec)
Heartbeat CPU 2 instructions: 530000001 cycles: 353674459 heartbeat IPC: 1.09 cumulative IPC: 1.382 (Simulation time: 04 hr 41 min 26 sec)
Heartbeat CPU 3 instructions: 660000003 cycles: 354011690 heartbeat IPC: 1.744 cumulative IPC: 1.731 (Simulation time: 04 hr 41 min 40 sec)
Heartbeat CPU 1 instructions: 940000000 cycles: 354607158 heartbeat IPC: 2.633 cumulative IPC: 2.607 (Simulation time: 04 hr 42 min 04 sec)
Heartbeat CPU 1 instructions: 950000000 cycles: 358141712 heartbeat IPC: 2.829 cumulative IPC: 2.609 (Simulation time: 04 hr 44 min 30 sec)
Heartbeat CPU 1 instructions: 960000000 cycles: 361889906 heartbeat IPC: 2.668 cumulative IPC: 2.61 (Simulation time: 04 hr 46 min 52 sec)
Heartbeat CPU 3 instructions: 670000001 cycles: 363831030 heartbeat IPC: 1.018 cumulative IPC: 1.71 (Simulation time: 04 hr 48 min 08 sec)
Heartbeat CPU 2 instructions: 540000000 cycles: 364207652 heartbeat IPC: 0.9494 cumulative IPC: 1.368 (Simulation time: 04 hr 48 min 20 sec)
Heartbeat CPU 1 instructions: 970000002 cycles: 365618832 heartbeat IPC: 2.682 cumulative IPC: 2.611 (Simulation time: 04 hr 49 min 10 sec)
Heartbeat CPU 1 instructions: 980000001 cycles: 369340703 heartbeat IPC: 2.687 cumulative IPC: 2.611 (Simulation time: 04 hr 51 min 17 sec)
Heartbeat CPU 1 instructions: 990000003 cycles: 373156017 heartbeat IPC: 2.621 cumulative IPC: 2.612 (Simulation time: 04 hr 53 min 25 sec)
Heartbeat CPU 2 instructions: 550000004 cycles: 375739119 heartbeat IPC: 0.8672 cumulative IPC: 1.352 (Simulation time: 04 hr 54 min 52 sec)
Heartbeat CPU 1 instructions: 1000000002 cycles: 376870107 heartbeat IPC: 2.692 cumulative IPC: 2.612 (Simulation time: 04 hr 55 min 31 sec)
Heartbeat CPU 1 instructions: 1010000001 cycles: 380593683 heartbeat IPC: 2.686 cumulative IPC: 2.613 (Simulation time: 04 hr 57 min 38 sec)
Heartbeat CPU 1 instructions: 1020000003 cycles: 384282488 heartbeat IPC: 2.711 cumulative IPC: 2.614 (Simulation time: 04 hr 59 min 50 sec)
Heartbeat CPU 2 instructions: 560000001 cycles: 386983299 heartbeat IPC: 0.8893 cumulative IPC: 1.338 (Simulation time: 05 hr 01 min 21 sec)
Heartbeat CPU 1 instructions: 1030000001 cycles: 387965182 heartbeat IPC: 2.715 cumulative IPC: 2.615 (Simulation time: 05 hr 01 min 52 sec)
Heartbeat CPU 1 instructions: 1040000001 cycles: 391620993 heartbeat IPC: 2.735 cumulative IPC: 2.616 (Simulation time: 05 hr 03 min 55 sec)
Heartbeat CPU 3 instructions: 680000002 cycles: 393782675 heartbeat IPC: 0.3339 cumulative IPC: 1.6 (Simulation time: 05 hr 05 min 26 sec)
Heartbeat CPU 2 instructions: 570000004 cycles: 394612502 heartbeat IPC: 1.311 cumulative IPC: 1.337 (Simulation time: 05 hr 06 min 01 sec)
Heartbeat CPU 1 instructions: 1050000001 cycles: 395263825 heartbeat IPC: 2.745 cumulative IPC: 2.618 (Simulation time: 05 hr 06 min 32 sec)
Heartbeat CPU 3 instructions: 690000001 cycles: 397355933 heartbeat IPC: 2.799 cumulative IPC: 1.611 (Simulation time: 05 hr 08 min 06 sec)
Heartbeat CPU 1 instructions: 1060000001 cycles: 398856457 heartbeat IPC: 2.783 cumulative IPC: 2.619 (Simulation time: 05 hr 09 min 09 sec)
Heartbeat CPU 2 instructions: 580000000 cycles: 400226266 heartbeat IPC: 1.781 cumulative IPC: 1.344 (Simulation time: 05 hr 10 min 06 sec)
Heartbeat CPU 3 instructions: 700000003 cycles: 401243387 heartbeat IPC: 2.572 cumulative IPC: 1.621 (Simulation time: 05 hr 10 min 53 sec)
Heartbeat CPU 1 instructions: 1070000001 cycles: 402396663 heartbeat IPC: 2.825 cumulative IPC: 2.621 (Simulation time: 05 hr 11 min 48 sec)
Heartbeat CPU 0 instructions: 190000003 cycles: 403646431 heartbeat IPC: 0.1294 cumulative IPC: 0.3657 (Simulation time: 05 hr 12 min 45 sec)
Heartbeat CPU 3 instructions: 710000000 cycles: 404630528 heartbeat IPC: 2.952 cumulative IPC: 1.633 (Simulation time: 05 hr 13 min 26 sec)
Heartbeat CPU 2 instructions: 590000001 cycles: 405630805 heartbeat IPC: 1.85 cumulative IPC: 1.351 (Simulation time: 05 hr 14 min 09 sec)
Heartbeat CPU 1 instructions: 1080000003 cycles: 405944940 heartbeat IPC: 2.818 cumulative IPC: 2.623 (Simulation time: 05 hr 14 min 25 sec)
Heartbeat CPU 3 instructions: 720000003 cycles: 407632345 heartbeat IPC: 3.331 cumulative IPC: 1.646 (Simulation time: 05 hr 15 min 43 sec)
Heartbeat CPU 1 instructions: 1090000002 cycles: 409488179 heartbeat IPC: 2.822 cumulative IPC: 2.625 (Simulation time: 05 hr 17 min 04 sec)
Heartbeat CPU 3 instructions: 730000002 cycles: 410835112 heartbeat IPC: 3.122 cumulative IPC: 1.658 (Simulation time: 05 hr 18 min 04 sec)
Heartbeat CPU 2 instructions: 600000000 cycles: 411039942 heartbeat IPC: 1.849 cumulative IPC: 1.358 (Simulation time: 05 hr 18 min 14 sec)
Heartbeat CPU 1 instructions: 1100000003 cycles: 413026962 heartbeat IPC: 2.826 cumulative IPC: 2.627 (Simulation time: 05 hr 19 min 47 sec)
Heartbeat CPU 3 instructions: 740000004 cycles: 415904953 heartbeat IPC: 1.972 cumulative IPC: 1.662 (Simulation time: 05 hr 21 min 33 sec)
Heartbeat CPU 1 instructions: 1110000003 cycles: 416699515 heartbeat IPC: 2.723 cumulative IPC: 2.627 (Simulation time: 05 hr 22 min 09 sec)
Heartbeat CPU 2 instructions: 610000000 cycles: 418176610 heartbeat IPC: 1.401 cumulative IPC: 1.359 (Simulation time: 05 hr 23 min 06 sec)
Heartbeat CPU 1 instructions: 1120000002 cycles: 420503270 heartbeat IPC: 2.629 cumulative IPC: 2.627 (Simulation time: 05 hr 24 min 27 sec)
Heartbeat CPU 3 instructions: 750000003 cycles: 423465307 heartbeat IPC: 1.323 cumulative IPC: 1.656 (Simulation time: 05 hr 26 min 16 sec)
Heartbeat CPU 1 instructions: 1130000002 cycles: 424098017 heartbeat IPC: 2.782 cumulative IPC: 2.629 (Simulation time: 05 hr 26 min 41 sec)
Heartbeat CPU 1 instructions: 1140000000 cycles: 427808213 heartbeat IPC: 2.695 cumulative IPC: 2.629 (Simulation time: 05 hr 28 min 45 sec)
Heartbeat CPU 3 instructions: 760000004 cycles: 429891758 heartbeat IPC: 1.556 cumulative IPC: 1.654 (Simulation time: 05 hr 29 min 58 sec)
Heartbeat CPU 1 instructions: 1150000001 cycles: 431478851 heartbeat IPC: 2.724 cumulative IPC: 2.63 (Simulation time: 05 hr 30 min 57 sec)
Heartbeat CPU 2 instructions: 620000000 cycles: 432167689 heartbeat IPC: 0.7147 cumulative IPC: 1.337 (Simulation time: 05 hr 31 min 24 sec)
Heartbeat CPU 1 instructions: 1160000000 cycles: 434983942 heartbeat IPC: 2.853 cumulative IPC: 2.632 (Simulation time: 05 hr 33 min 23 sec)
Heartbeat CPU 3 instructions: 770000002 cycles: 435030168 heartbeat IPC: 1.946 cumulative IPC: 1.658 (Simulation time: 05 hr 33 min 25 sec)
Heartbeat CPU 1 instructions: 1170000002 cycles: 438947134 heartbeat IPC: 2.523 cumulative IPC: 2.631 (Simulation time: 05 hr 35 min 56 sec)
Heartbeat CPU 3 instructions: 780000003 cycles: 439419883 heartbeat IPC: 2.278 cumulative IPC: 1.664 (Simulation time: 05 hr 36 min 10 sec)
Heartbeat CPU 2 instructions: 630000002 cycles: 441841460 heartbeat IPC: 1.034 cumulative IPC: 1.33 (Simulation time: 05 hr 37 min 44 sec)
Heartbeat CPU 1 instructions: 1180000004 cycles: 443222798 heartbeat IPC: 2.339 cumulative IPC: 2.628 (Simulation time: 05 hr 38 min 36 sec)
Heartbeat CPU 3 instructions: 790000003 cycles: 445305695 heartbeat IPC: 1.699 cumulative IPC: 1.665 (Simulation time: 05 hr 39 min 52 sec)
Heartbeat CPU 1 instructions: 1190000001 cycles: 446923273 heartbeat IPC: 2.702 cumulative IPC: 2.629 (Simulation time: 05 hr 40 min 46 sec)
Heartbeat CPU 0 instructions: 200000001 cycles: 448116621 heartbeat IPC: 0.2249 cumulative IPC: 0.3511 (Simulation time: 05 hr 41 min 29 sec)
Simulation finished CPU 0 instructions: 150000002 cycles: 427246524 cumulative IPC: 0.3511 (Simulation time: 05 hr 41 min 29 sec)
Simulation complete CPU 0 instructions: 150000002 cycles: 427246524 cumulative IPC: 0.3511 (Simulation time: 05 hr 41 min 29 sec)
Simulation complete CPU 1 instructions: 1123264315 cycles: 427246524 cumulative IPC: 2.629 (Simulation time: 05 hr 41 min 29 sec)
Simulation complete CPU 2 instructions: 565532797 cycles: 427246524 cumulative IPC: 1.324 (Simulation time: 05 hr 41 min 29 sec)
Simulation complete CPU 3 instructions: 709432122 cycles: 427246524 cumulative IPC: 1.66 (Simulation time: 05 hr 41 min 29 sec)

ChampSim completed all CPUs

=== Simulation ===
CPU 0 runs /home/das/dpc3_traces/620.omnetpp_s-874B.champsimtrace.xzCPU 1 runs /home/das/dpc3_traces/644.nab_s-5853B.champsimtrace.xzCPU 2 runs /home/das/dpc3_traces/623.xalancbmk_s-700B.champsimtrace.xzCPU 3 runs /home/das/dpc3_traces/621.wrf_s-575B.champsimtrace.xz
Total Simulation Statistics (not including warmup)

CPU 0 cumulative IPC: 0.3511 instructions: 150000002 cycles: 427246524
CPU 0 Branch Prediction Accuracy: 94.9% MPKI: 10.6 Average ROB Occupancy at Mispredict: 81.49
Branch type MPKI
BRANCH_DIRECT_JUMP: 0.923
BRANCH_INDIRECT: 0.128
BRANCH_CONDITIONAL: 8.42
BRANCH_DIRECT_CALL: 0.00016
BRANCH_INDIRECT_CALL: 0.734
BRANCH_RETURN: 0.399


CPU 1 cumulative IPC: 2.629 instructions: 1123264315 cycles: 427246524
CPU 1 Branch Prediction Accuracy: 87.88% MPKI: 11.73 Average ROB Occupancy at Mispredict: 178.9
Branch type MPKI
BRANCH_DIRECT_JUMP: 0.000119
BRANCH_INDIRECT: 0
BRANCH_CONDITIONAL: 6.2
BRANCH_DIRECT_CALL: 8.9e-07
BRANCH_INDIRECT_CALL: 0
BRANCH_RETURN: 5.53


CPU 2 cumulative IPC: 1.324 instructions: 565532797 cycles: 427246524
CPU 2 Branch Prediction Accuracy: 97.35% MPKI: 7.661 Average ROB Occupancy at Mispredict: 41.61
Branch type MPKI
BRANCH_DIRECT_JUMP: 0.104
BRANCH_INDIRECT: 0.325
BRANCH_CONDITIONAL: 5.51
BRANCH_DIRECT_CALL: 0.000387
BRANCH_INDIRECT_CALL: 0.355
BRANCH_RETURN: 1.37


CPU 3 cumulative IPC: 1.66 instructions: 709432122 cycles: 427246524
CPU 3 Branch Prediction Accuracy: 95.47% MPKI: 5.306 Average ROB Occupancy at Mispredict: 104.5
Branch type MPKI
BRANCH_DIRECT_JUMP: 0.000461
BRANCH_INDIRECT: 2.4e-05
BRANCH_CONDITIONAL: 4.91
BRANCH_DIRECT_CALL: 0.00268
BRANCH_INDIRECT_CALL: 0
BRANCH_RETURN: 0.395

LLC TOTAL        ACCESS:    3551097 HIT:    1743643 MISS:    1807454
LLC LOAD         ACCESS:    1683256 HIT:     520514 MISS:    1162742
LLC RFO          ACCESS:     257541 HIT:     144879 MISS:     112662
LLC PREFETCH     ACCESS:      43891 HIT:      19785 MISS:      24106
LLC WRITE        ACCESS:     970518 HIT:     954263 MISS:      16255
LLC TRANSLATION  ACCESS:     595891 HIT:     104202 MISS:     491689
LLC PREFETCH REQUESTED:          0 ISSUED:          0 USEFUL:          0 USELESS:          0
LLC AVERAGE MISS LATENCY: 1081 cycles
LLC TOTAL        ACCESS:     975283 HIT:     616687 MISS:     358596
LLC LOAD         ACCESS:      28355 HIT:       6809 MISS:      21546
LLC RFO          ACCESS:        523 HIT:        234 MISS:        289
LLC PREFETCH     ACCESS:     934088 HIT:     608117 MISS:     325971
LLC WRITE        ACCESS:       8535 HIT:       1241 MISS:       7294
LLC TRANSLATION  ACCESS:       3782 HIT:        286 MISS:       3496
LLC PREFETCH REQUESTED:          0 ISSUED:          0 USEFUL:          0 USELESS:          0
LLC AVERAGE MISS LATENCY: 1081 cycles
LLC TOTAL        ACCESS:    3020354 HIT:    2088962 MISS:     931392
LLC LOAD         ACCESS:    1047093 HIT:     890268 MISS:     156825
LLC RFO          ACCESS:     741007 HIT:      61541 MISS:     679466
LLC PREFETCH     ACCESS:     252753 HIT:     208808 MISS:      43945
LLC WRITE        ACCESS:     879793 HIT:     863409 MISS:      16384
LLC TRANSLATION  ACCESS:      99708 HIT:      64936 MISS:      34772
LLC PREFETCH REQUESTED:          0 ISSUED:          0 USEFUL:          0 USELESS:          0
LLC AVERAGE MISS LATENCY: 1081 cycles
LLC TOTAL        ACCESS:    7976445 HIT:    5146899 MISS:    2829546
LLC LOAD         ACCESS:     577884 HIT:     335190 MISS:     242694
LLC RFO          ACCESS:     810981 HIT:     296240 MISS:     514741
LLC PREFETCH     ACCESS:    5097877 HIT:    3040925 MISS:    2056952
LLC WRITE        ACCESS:    1484571 HIT:    1472474 MISS:      12097
LLC TRANSLATION  ACCESS:       5132 HIT:       2070 MISS:       3062
LLC PREFETCH REQUESTED:          0 ISSUED:          0 USEFUL:          0 USELESS:          0
LLC AVERAGE MISS LATENCY: 1081 cycles
cpu0_DTLB TOTAL        ACCESS:   38296269 HIT:   35005236 MISS:    3291033
cpu0_DTLB LOAD         ACCESS:   38296269 HIT:   35005236 MISS:    3291033
cpu0_DTLB RFO          ACCESS:          0 HIT:          0 MISS:          0
cpu0_DTLB PREFETCH     ACCESS:          0 HIT:          0 MISS:          0
cpu0_DTLB WRITE        ACCESS:          0 HIT:          0 MISS:          0
cpu0_DTLB TRANSLATION  ACCESS:          0 HIT:          0 MISS:          0
cpu0_DTLB PREFETCH REQUESTED:          0 ISSUED:          0 USEFUL:          0 USELESS:          0
cpu0_DTLB AVERAGE MISS LATENCY: 87.55 cycles
cpu0_DTLB TOTAL        ACCESS:          0 HIT:          0 MISS:          0
cpu0_DTLB LOAD         ACCESS:          0 HIT:          0 MISS:          0
cpu0_DTLB RFO          ACCESS:          0 HIT:          0 MISS:          0
cpu0_DTLB PREFETCH     ACCESS:          0 HIT:          0 MISS:          0
cpu0_DTLB WRITE        ACCESS:          0 HIT:          0 MISS:          0
cpu0_DTLB TRANSLATION  ACCESS:          0 HIT:          0 MISS:          0
cpu0_DTLB PREFETCH REQUESTED:          0 ISSUED:          0 USEFUL:          0 USELESS:          0
cpu0_DTLB AVERAGE MISS LATENCY: 87.55 cycles
cpu0_DTLB TOTAL        ACCESS:          0 HIT:          0 MISS:          0
cpu0_DTLB LOAD         ACCESS:          0 HIT:          0 MISS:          0
cpu0_DTLB RFO          ACCESS:          0 HIT:          0 MISS:          0
cpu0_DTLB PREFETCH     ACCESS:          0 HIT:          0 MISS:          0
cpu0_DTLB WRITE        ACCESS:          0 HIT:          0 MISS:          0
cpu0_DTLB TRANSLATION  ACCESS:          0 HIT:          0 MISS:          0
cpu0_DTLB PREFETCH REQUESTED:          0 ISSUED:          0 USEFUL:          0 USELESS:          0
cpu0_DTLB AVERAGE MISS LATENCY: 87.55 cycles
cpu0_DTLB TOTAL        ACCESS:          0 HIT:          0 MISS:          0
cpu0_DTLB LOAD         ACCESS:          0 HIT:          0 MISS:          0
cpu0_DTLB RFO          ACCESS:          0 HIT:          0 MISS:          0
cpu0_DTLB PREFETCH     ACCESS:          0 HIT:          0 MISS:          0
cpu0_DTLB WRITE        ACCESS:          0 HIT:          0 MISS:          0
cpu0_DTLB TRANSLATION  ACCESS:          0 HIT:          0 MISS:          0
cpu0_DTLB PREFETCH REQUESTED:          0 ISSUED:          0 USEFUL:          0 USELESS:          0
cpu0_DTLB AVERAGE MISS LATENCY: 87.55 cycles
cpu0_ITLB TOTAL        ACCESS:   10765299 HIT:   10494369 MISS:     270930
cpu0_ITLB LOAD         ACCESS:   10765299 HIT:   10494369 MISS:     270930
cpu0_ITLB RFO          ACCESS:          0 HIT:          0 MISS:          0
cpu0_ITLB PREFETCH     ACCESS:          0 HIT:          0 MISS:          0
cpu0_ITLB WRITE        ACCESS:          0 HIT:          0 MISS:          0
cpu0_ITLB TRANSLATION  ACCESS:          0 HIT:          0 MISS:          0
cpu0_ITLB PREFETCH REQUESTED:          0 ISSUED:          0 USEFUL:          0 USELESS:          0
cpu0_ITLB AVERAGE MISS LATENCY: 7.183 cycles
cpu0_ITLB TOTAL        ACCESS:          0 HIT:          0 MISS:          0
cpu0_ITLB LOAD         ACCESS:          0 HIT:          0 MISS:          0
cpu0_ITLB RFO          ACCESS:          0 HIT:          0 MISS:          0
cpu0_ITLB PREFETCH     ACCESS:          0 HIT:          0 MISS:          0
cpu0_ITLB WRITE        ACCESS:          0 HIT:          0 MISS:          0
cpu0_ITLB TRANSLATION  ACCESS:          0 HIT:          0 MISS:          0
cpu0_ITLB PREFETCH REQUESTED:          0 ISSUED:          0 USEFUL:          0 USELESS:          0
cpu0_ITLB AVERAGE MISS LATENCY: 7.183 cycles
cpu0_ITLB TOTAL        ACCESS:          0 HIT:          0 MISS:          0
cpu0_ITLB LOAD         ACCESS:          0 HIT:          0 MISS:          0
cpu0_ITLB RFO          ACCESS:          0 HIT:          0 MISS:          0
cpu0_ITLB PREFETCH     ACCESS:          0 HIT:          0 MISS:          0
cpu0_ITLB WRITE        ACCESS:          0 HIT:          0 MISS:          0
cpu0_ITLB TRANSLATION  ACCESS:          0 HIT:          0 MISS:          0
cpu0_ITLB PREFETCH REQUESTED:          0 ISSUED:          0 USEFUL:          0 USELESS:          0
cpu0_ITLB AVERAGE MISS LATENCY: 7.183 cycles
cpu0_ITLB TOTAL        ACCESS:          0 HIT:          0 MISS:          0
cpu0_ITLB LOAD         ACCESS:          0 HIT:          0 MISS:          0
cpu0_ITLB RFO          ACCESS:          0 HIT:          0 MISS:          0
cpu0_ITLB PREFETCH     ACCESS:          0 HIT:          0 MISS:          0
cpu0_ITLB WRITE        ACCESS:          0 HIT:          0 MISS:          0
cpu0_ITLB TRANSLATION  ACCESS:          0 HIT:          0 MISS:          0
cpu0_ITLB PREFETCH REQUESTED:          0 ISSUED:          0 USEFUL:          0 USELESS:          0
cpu0_ITLB AVERAGE MISS LATENCY: 7.183 cycles
cpu0_L1D TOTAL        ACCESS:   49840708 HIT:   44978532 MISS:    4862176
cpu0_L1D LOAD         ACCESS:   22948332 HIT:   19903503 MISS:    3044829
cpu0_L1D RFO          ACCESS:          0 HIT:          0 MISS:          0
cpu0_L1D PREFETCH     ACCESS:          0 HIT:          0 MISS:          0
cpu0_L1D WRITE        ACCESS:   26001224 HIT:   24929869 MISS:    1071355
cpu0_L1D TRANSLATION  ACCESS:     891152 HIT:     145160 MISS:     745992
cpu0_L1D PREFETCH REQUESTED:          0 ISSUED:          0 USEFUL:          0 USELESS:          0
cpu0_L1D AVERAGE MISS LATENCY: 207.1 cycles
cpu0_L1D TOTAL        ACCESS:          0 HIT:          0 MISS:          0
cpu0_L1D LOAD         ACCESS:          0 HIT:          0 MISS:          0
cpu0_L1D RFO          ACCESS:          0 HIT:          0 MISS:          0
cpu0_L1D PREFETCH     ACCESS:          0 HIT:          0 MISS:          0
cpu0_L1D WRITE        ACCESS:          0 HIT:          0 MISS:          0
cpu0_L1D TRANSLATION  ACCESS:          0 HIT:          0 MISS:          0
cpu0_L1D PREFETCH REQUESTED:          0 ISSUED:          0 USEFUL:          0 USELESS:          0
cpu0_L1D AVERAGE MISS LATENCY: 207.1 cycles
cpu0_L1D TOTAL        ACCESS:          0 HIT:          0 MISS:          0
cpu0_L1D LOAD         ACCESS:          0 HIT:          0 MISS:          0
cpu0_L1D RFO          ACCESS:          0 HIT:          0 MISS:          0
cpu0_L1D PREFETCH     ACCESS:          0 HIT:          0 MISS:          0
cpu0_L1D WRITE        ACCESS:          0 HIT:          0 MISS:          0
cpu0_L1D TRANSLATION  ACCESS:          0 HIT:          0 MISS:          0
cpu0_L1D PREFETCH REQUESTED:          0 ISSUED:          0 USEFUL:          0 USELESS:          0
cpu0_L1D AVERAGE MISS LATENCY: 207.1 cycles
cpu0_L1D TOTAL        ACCESS:          0 HIT:          0 MISS:          0
cpu0_L1D LOAD         ACCESS:          0 HIT:          0 MISS:          0
cpu0_L1D RFO          ACCESS:          0 HIT:          0 MISS:          0
cpu0_L1D PREFETCH     ACCESS:          0 HIT:          0 MISS:          0
cpu0_L1D WRITE        ACCESS:          0 HIT:          0 MISS:          0
cpu0_L1D TRANSLATION  ACCESS:          0 HIT:          0 MISS:          0
cpu0_L1D PREFETCH REQUESTED:          0 ISSUED:          0 USEFUL:          0 USELESS:          0
cpu0_L1D AVERAGE MISS LATENCY: 207.1 cycles
cpu0_L1I TOTAL        ACCESS:   12866600 HIT:   12792595 MISS:      74005
cpu0_L1I LOAD         ACCESS:   12866600 HIT:   12792595 MISS:      74005
cpu0_L1I RFO          ACCESS:          0 HIT:          0 MISS:          0
cpu0_L1I PREFETCH     ACCESS:          0 HIT:          0 MISS:          0
cpu0_L1I WRITE        ACCESS:          0 HIT:          0 MISS:          0
cpu0_L1I TRANSLATION  ACCESS:          0 HIT:          0 MISS:          0
cpu0_L1I PREFETCH REQUESTED:          0 ISSUED:          0 USEFUL:          0 USELESS:          0
cpu0_L1I AVERAGE MISS LATENCY: 30.45 cycles
cpu0_L1I TOTAL        ACCESS:          0 HIT:          0 MISS:          0
cpu0_L1I LOAD         ACCESS:          0 HIT:          0 MISS:          0
cpu0_L1I RFO          ACCESS:          0 HIT:          0 MISS:          0
cpu0_L1I PREFETCH     ACCESS:          0 HIT:          0 MISS:          0
cpu0_L1I WRITE        ACCESS:          0 HIT:          0 MISS:          0
cpu0_L1I TRANSLATION  ACCESS:          0 HIT:          0 MISS:          0
cpu0_L1I PREFETCH REQUESTED:          0 ISSUED:          0 USEFUL:          0 USELESS:          0
cpu0_L1I AVERAGE MISS LATENCY: 30.45 cycles
cpu0_L1I TOTAL        ACCESS:          0 HIT:          0 MISS:          0
cpu0_L1I LOAD         ACCESS:          0 HIT:          0 MISS:          0
cpu0_L1I RFO          ACCESS:          0 HIT:          0 MISS:          0
cpu0_L1I PREFETCH     ACCESS:          0 HIT:          0 MISS:          0
cpu0_L1I WRITE        ACCESS:          0 HIT:          0 MISS:          0
cpu0_L1I TRANSLATION  ACCESS:          0 HIT:          0 MISS:          0
cpu0_L1I PREFETCH REQUESTED:          0 ISSUED:          0 USEFUL:          0 USELESS:          0
cpu0_L1I AVERAGE MISS LATENCY: 30.45 cycles
cpu0_L1I TOTAL        ACCESS:          0 HIT:          0 MISS:          0
cpu0_L1I LOAD         ACCESS:          0 HIT:          0 MISS:          0
cpu0_L1I RFO          ACCESS:          0 HIT:          0 MISS:          0
cpu0_L1I PREFETCH     ACCESS:          0 HIT:          0 MISS:          0
cpu0_L1I WRITE        ACCESS:          0 HIT:          0 MISS:          0
cpu0_L1I TRANSLATION  ACCESS:          0 HIT:          0 MISS:          0
cpu0_L1I PREFETCH REQUESTED:          0 ISSUED:          0 USEFUL:          0 USELESS:          0
cpu0_L1I AVERAGE MISS LATENCY: 30.45 cycles
cpu0_L2C TOTAL        ACCESS:    5110302 HIT:    2526378 MISS:    2583924
cpu0_L2C LOAD         ACCESS:    2539750 HIT:     856285 MISS:    1683465
cpu0_L2C RFO          ACCESS:     365179 HIT:     107638 MISS:     257541
cpu0_L2C PREFETCH     ACCESS:      58963 HIT:      14232 MISS:      44731
cpu0_L2C WRITE        ACCESS:    1401215 HIT:    1398919 MISS:       2296
cpu0_L2C TRANSLATION  ACCESS:     745195 HIT:     149304 MISS:     595891
cpu0_L2C PREFETCH REQUESTED:      58963 ISSUED:      58963 USEFUL:       6468 USELESS:       4047
cpu0_L2C AVERAGE MISS LATENCY: 385.8 cycles
cpu0_L2C TOTAL        ACCESS:          0 HIT:          0 MISS:          0
cpu0_L2C LOAD         ACCESS:          0 HIT:          0 MISS:          0
cpu0_L2C RFO          ACCESS:          0 HIT:          0 MISS:          0
cpu0_L2C PREFETCH     ACCESS:          0 HIT:          0 MISS:          0
cpu0_L2C WRITE        ACCESS:          0 HIT:          0 MISS:          0
cpu0_L2C TRANSLATION  ACCESS:          0 HIT:          0 MISS:          0
cpu0_L2C PREFETCH REQUESTED:      58963 ISSUED:      58963 USEFUL:       6468 USELESS:       4047
cpu0_L2C AVERAGE MISS LATENCY: 385.8 cycles
cpu0_L2C TOTAL        ACCESS:          0 HIT:          0 MISS:          0
cpu0_L2C LOAD         ACCESS:          0 HIT:          0 MISS:          0
cpu0_L2C RFO          ACCESS:          0 HIT:          0 MISS:          0
cpu0_L2C PREFETCH     ACCESS:          0 HIT:          0 MISS:          0
cpu0_L2C WRITE        ACCESS:          0 HIT:          0 MISS:          0
cpu0_L2C TRANSLATION  ACCESS:          0 HIT:          0 MISS:          0
cpu0_L2C PREFETCH REQUESTED:      58963 ISSUED:      58963 USEFUL:       6468 USELESS:       4047
cpu0_L2C AVERAGE MISS LATENCY: 385.8 cycles
cpu0_L2C TOTAL        ACCESS:          0 HIT:          0 MISS:          0
cpu0_L2C LOAD         ACCESS:          0 HIT:          0 MISS:          0
cpu0_L2C RFO          ACCESS:          0 HIT:          0 MISS:          0
cpu0_L2C PREFETCH     ACCESS:          0 HIT:          0 MISS:          0
cpu0_L2C WRITE        ACCESS:          0 HIT:          0 MISS:          0
cpu0_L2C TRANSLATION  ACCESS:          0 HIT:          0 MISS:          0
cpu0_L2C PREFETCH REQUESTED:      58963 ISSUED:      58963 USEFUL:       6468 USELESS:       4047
cpu0_L2C AVERAGE MISS LATENCY: 385.8 cycles
cpu0_STLB TOTAL        ACCESS:    3014483 HIT:    2372042 MISS:     642441
cpu0_STLB LOAD         ACCESS:    3014483 HIT:    2372042 MISS:     642441
cpu0_STLB RFO          ACCESS:          0 HIT:          0 MISS:          0
cpu0_STLB PREFETCH     ACCESS:          0 HIT:          0 MISS:          0
cpu0_STLB WRITE        ACCESS:          0 HIT:          0 MISS:          0
cpu0_STLB TRANSLATION  ACCESS:          0 HIT:          0 MISS:          0
cpu0_STLB PREFETCH REQUESTED:          0 ISSUED:          0 USEFUL:          0 USELESS:          0
cpu0_STLB AVERAGE MISS LATENCY: 427.1 cycles
cpu0_STLB TOTAL        ACCESS:          0 HIT:          0 MISS:          0
cpu0_STLB LOAD         ACCESS:          0 HIT:          0 MISS:          0
cpu0_STLB RFO          ACCESS:          0 HIT:          0 MISS:          0
cpu0_STLB PREFETCH     ACCESS:          0 HIT:          0 MISS:          0
cpu0_STLB WRITE        ACCESS:          0 HIT:          0 MISS:          0
cpu0_STLB TRANSLATION  ACCESS:          0 HIT:          0 MISS:          0
cpu0_STLB PREFETCH REQUESTED:          0 ISSUED:          0 USEFUL:          0 USELESS:          0
cpu0_STLB AVERAGE MISS LATENCY: 427.1 cycles
cpu0_STLB TOTAL        ACCESS:          0 HIT:          0 MISS:          0
cpu0_STLB LOAD         ACCESS:          0 HIT:          0 MISS:          0
cpu0_STLB RFO          ACCESS:          0 HIT:          0 MISS:          0
cpu0_STLB PREFETCH     ACCESS:          0 HIT:          0 MISS:          0
cpu0_STLB WRITE        ACCESS:          0 HIT:          0 MISS:          0
cpu0_STLB TRANSLATION  ACCESS:          0 HIT:          0 MISS:          0
cpu0_STLB PREFETCH REQUESTED:          0 ISSUED:          0 USEFUL:          0 USELESS:          0
cpu0_STLB AVERAGE MISS LATENCY: 427.1 cycles
cpu0_STLB TOTAL        ACCESS:          0 HIT:          0 MISS:          0
cpu0_STLB LOAD         ACCESS:          0 HIT:          0 MISS:          0
cpu0_STLB RFO          ACCESS:          0 HIT:          0 MISS:          0
cpu0_STLB PREFETCH     ACCESS:          0 HIT:          0 MISS:          0
cpu0_STLB WRITE        ACCESS:          0 HIT:          0 MISS:          0
cpu0_STLB TRANSLATION  ACCESS:          0 HIT:          0 MISS:          0
cpu0_STLB PREFETCH REQUESTED:          0 ISSUED:          0 USEFUL:          0 USELESS:          0
cpu0_STLB AVERAGE MISS LATENCY: 427.1 cycles
cpu1_DTLB TOTAL        ACCESS:          0 HIT:          0 MISS:          0
cpu1_DTLB LOAD         ACCESS:          0 HIT:          0 MISS:          0
cpu1_DTLB RFO          ACCESS:          0 HIT:          0 MISS:          0
cpu1_DTLB PREFETCH     ACCESS:          0 HIT:          0 MISS:          0
cpu1_DTLB WRITE        ACCESS:          0 HIT:          0 MISS:          0
cpu1_DTLB TRANSLATION  ACCESS:          0 HIT:          0 MISS:          0
cpu1_DTLB PREFETCH REQUESTED:          0 ISSUED:          0 USEFUL:          0 USELESS:          0
cpu1_DTLB AVERAGE MISS LATENCY: 10.47 cycles
cpu1_DTLB TOTAL        ACCESS:  195970512 HIT:  193930457 MISS:    2040055
cpu1_DTLB LOAD         ACCESS:  195970512 HIT:  193930457 MISS:    2040055
cpu1_DTLB RFO          ACCESS:          0 HIT:          0 MISS:          0
cpu1_DTLB PREFETCH     ACCESS:          0 HIT:          0 MISS:          0
cpu1_DTLB WRITE        ACCESS:          0 HIT:          0 MISS:          0
cpu1_DTLB TRANSLATION  ACCESS:          0 HIT:          0 MISS:          0
cpu1_DTLB PREFETCH REQUESTED:          0 ISSUED:          0 USEFUL:          0 USELESS:          0
cpu1_DTLB AVERAGE MISS LATENCY: 10.47 cycles
cpu1_DTLB TOTAL        ACCESS:          0 HIT:          0 MISS:          0
cpu1_DTLB LOAD         ACCESS:          0 HIT:          0 MISS:          0
cpu1_DTLB RFO          ACCESS:          0 HIT:          0 MISS:          0
cpu1_DTLB PREFETCH     ACCESS:          0 HIT:          0 MISS:          0
cpu1_DTLB WRITE        ACCESS:          0 HIT:          0 MISS:          0
cpu1_DTLB TRANSLATION  ACCESS:          0 HIT:          0 MISS:          0
cpu1_DTLB PREFETCH REQUESTED:          0 ISSUED:          0 USEFUL:          0 USELESS:          0
cpu1_DTLB AVERAGE MISS LATENCY: 10.47 cycles
cpu1_DTLB TOTAL        ACCESS:          0 HIT:          0 MISS:          0
cpu1_DTLB LOAD         ACCESS:          0 HIT:          0 MISS:          0
cpu1_DTLB RFO          ACCESS:          0 HIT:          0 MISS:          0
cpu1_DTLB PREFETCH     ACCESS:          0 HIT:          0 MISS:          0
cpu1_DTLB WRITE        ACCESS:          0 HIT:          0 MISS:          0
cpu1_DTLB TRANSLATION  ACCESS:          0 HIT:          0 MISS:          0
cpu1_DTLB PREFETCH REQUESTED:          0 ISSUED:          0 USEFUL:          0 USELESS:          0
cpu1_DTLB AVERAGE MISS LATENCY: 10.47 cycles
cpu1_ITLB TOTAL        ACCESS:          0 HIT:          0 MISS:          0
cpu1_ITLB LOAD         ACCESS:          0 HIT:          0 MISS:          0
cpu1_ITLB RFO          ACCESS:          0 HIT:          0 MISS:          0
cpu1_ITLB PREFETCH     ACCESS:          0 HIT:          0 MISS:          0
cpu1_ITLB WRITE        ACCESS:          0 HIT:          0 MISS:          0
cpu1_ITLB TRANSLATION  ACCESS:          0 HIT:          0 MISS:          0
cpu1_ITLB PREFETCH REQUESTED:          0 ISSUED:          0 USEFUL:          0 USELESS:          0
cpu1_ITLB AVERAGE MISS LATENCY: -nan cycles
cpu1_ITLB TOTAL        ACCESS:      10233 HIT:      10233 MISS:          0
cpu1_ITLB LOAD         ACCESS:      10233 HIT:      10233 MISS:          0
cpu1_ITLB RFO          ACCESS:          0 HIT:          0 MISS:          0
cpu1_ITLB PREFETCH     ACCESS:          0 HIT:          0 MISS:          0
cpu1_ITLB WRITE        ACCESS:          0 HIT:          0 MISS:          0
cpu1_ITLB TRANSLATION  ACCESS:          0 HIT:          0 MISS:          0
cpu1_ITLB PREFETCH REQUESTED:          0 ISSUED:          0 USEFUL:          0 USELESS:          0
cpu1_ITLB AVERAGE MISS LATENCY: -nan cycles
cpu1_ITLB TOTAL        ACCESS:          0 HIT:          0 MISS:          0
cpu1_ITLB LOAD         ACCESS:          0 HIT:          0 MISS:          0
cpu1_ITLB RFO          ACCESS:          0 HIT:          0 MISS:          0
cpu1_ITLB PREFETCH     ACCESS:          0 HIT:          0 MISS:          0
cpu1_ITLB WRITE        ACCESS:          0 HIT:          0 MISS:          0
cpu1_ITLB TRANSLATION  ACCESS:          0 HIT:          0 MISS:          0
cpu1_ITLB PREFETCH REQUESTED:          0 ISSUED:          0 USEFUL:          0 USELESS:          0
cpu1_ITLB AVERAGE MISS LATENCY: -nan cycles
cpu1_ITLB TOTAL        ACCESS:          0 HIT:          0 MISS:          0
cpu1_ITLB LOAD         ACCESS:          0 HIT:          0 MISS:          0
cpu1_ITLB RFO          ACCESS:          0 HIT:          0 MISS:          0
cpu1_ITLB PREFETCH     ACCESS:          0 HIT:          0 MISS:          0
cpu1_ITLB WRITE        ACCESS:          0 HIT:          0 MISS:          0
cpu1_ITLB TRANSLATION  ACCESS:          0 HIT:          0 MISS:          0
cpu1_ITLB PREFETCH REQUESTED:          0 ISSUED:          0 USEFUL:          0 USELESS:          0
cpu1_ITLB AVERAGE MISS LATENCY: -nan cycles
cpu1_L1D TOTAL        ACCESS:          0 HIT:          0 MISS:          0
cpu1_L1D LOAD         ACCESS:          0 HIT:          0 MISS:          0
cpu1_L1D RFO          ACCESS:          0 HIT:          0 MISS:          0
cpu1_L1D PREFETCH     ACCESS:          0 HIT:          0 MISS:          0
cpu1_L1D WRITE        ACCESS:          0 HIT:          0 MISS:          0
cpu1_L1D TRANSLATION  ACCESS:          0 HIT:          0 MISS:          0
cpu1_L1D PREFETCH REQUESTED:          0 ISSUED:          0 USEFUL:          0 USELESS:          0
cpu1_L1D AVERAGE MISS LATENCY: 16.52 cycles
cpu1_L1D TOTAL        ACCESS:  271921924 HIT:  267413241 MISS:    4508683
cpu1_L1D LOAD         ACCESS:  150900068 HIT:  146455495 MISS:    4444573
cpu1_L1D RFO          ACCESS:          0 HIT:          0 MISS:          0
cpu1_L1D PREFETCH     ACCESS:          0 HIT:          0 MISS:          0
cpu1_L1D WRITE        ACCESS:  121012944 HIT:  120957482 MISS:      55462
cpu1_L1D TRANSLATION  ACCESS:       8912 HIT:        264 MISS:       8648
cpu1_L1D PREFETCH REQUESTED:          0 ISSUED:          0 USEFUL:          0 USELESS:          0
cpu1_L1D AVERAGE MISS LATENCY: 16.52 cycles
cpu1_L1D TOTAL        ACCESS:          0 HIT:          0 MISS:          0
cpu1_L1D LOAD         ACCESS:          0 HIT:          0 MISS:          0
cpu1_L1D RFO          ACCESS:          0 HIT:          0 MISS:          0
cpu1_L1D PREFETCH     ACCESS:          0 HIT:          0 MISS:          0
cpu1_L1D WRITE        ACCESS:          0 HIT:          0 MISS:          0
cpu1_L1D TRANSLATION  ACCESS:          0 HIT:          0 MISS:          0
cpu1_L1D PREFETCH REQUESTED:          0 ISSUED:          0 USEFUL:          0 USELESS:          0
cpu1_L1D AVERAGE MISS LATENCY: 16.52 cycles
cpu1_L1D TOTAL        ACCESS:          0 HIT:          0 MISS:          0
cpu1_L1D LOAD         ACCESS:          0 HIT:          0 MISS:          0
cpu1_L1D RFO          ACCESS:          0 HIT:          0 MISS:          0
cpu1_L1D PREFETCH     ACCESS:          0 HIT:          0 MISS:          0
cpu1_L1D WRITE        ACCESS:          0 HIT:          0 MISS:          0
cpu1_L1D TRANSLATION  ACCESS:          0 HIT:          0 MISS:          0
cpu1_L1D PREFETCH REQUESTED:          0 ISSUED:          0 USEFUL:          0 USELESS:          0
cpu1_L1D AVERAGE MISS LATENCY: 16.52 cycles
cpu1_L1I TOTAL        ACCESS:          0 HIT:          0 MISS:          0
cpu1_L1I LOAD         ACCESS:          0 HIT:          0 MISS:          0
cpu1_L1I RFO          ACCESS:          0 HIT:          0 MISS:          0
cpu1_L1I PREFETCH     ACCESS:          0 HIT:          0 MISS:          0
cpu1_L1I WRITE        ACCESS:          0 HIT:          0 MISS:          0
cpu1_L1I TRANSLATION  ACCESS:          0 HIT:          0 MISS:          0
cpu1_L1I PREFETCH REQUESTED:          0 ISSUED:          0 USEFUL:          0 USELESS:          0
cpu1_L1I AVERAGE MISS LATENCY: 310.5 cycles
cpu1_L1I TOTAL        ACCESS:      12782 HIT:      12780 MISS:          2
cpu1_L1I LOAD         ACCESS:      12782 HIT:      12780 MISS:          2
cpu1_L1I RFO          ACCESS:          0 HIT:          0 MISS:          0
cpu1_L1I PREFETCH     ACCESS:          0 HIT:          0 MISS:          0
cpu1_L1I WRITE        ACCESS:          0 HIT:          0 MISS:          0
cpu1_L1I TRANSLATION  ACCESS:          0 HIT:          0 MISS:          0
cpu1_L1I PREFETCH REQUESTED:          0 ISSUED:          0 USEFUL:          0 USELESS:          0
cpu1_L1I AVERAGE MISS LATENCY: 310.5 cycles
cpu1_L1I TOTAL        ACCESS:          0 HIT:          0 MISS:          0
cpu1_L1I LOAD         ACCESS:          0 HIT:          0 MISS:          0
cpu1_L1I RFO          ACCESS:          0 HIT:          0 MISS:          0
cpu1_L1I PREFETCH     ACCESS:          0 HIT:          0 MISS:          0
cpu1_L1I WRITE        ACCESS:          0 HIT:          0 MISS:          0
cpu1_L1I TRANSLATION  ACCESS:          0 HIT:          0 MISS:          0
cpu1_L1I PREFETCH REQUESTED:          0 ISSUED:          0 USEFUL:          0 USELESS:          0
cpu1_L1I AVERAGE MISS LATENCY: 310.5 cycles
cpu1_L1I TOTAL        ACCESS:          0 HIT:          0 MISS:          0
cpu1_L1I LOAD         ACCESS:          0 HIT:          0 MISS:          0
cpu1_L1I RFO          ACCESS:          0 HIT:          0 MISS:          0
cpu1_L1I PREFETCH     ACCESS:          0 HIT:          0 MISS:          0
cpu1_L1I WRITE        ACCESS:          0 HIT:          0 MISS:          0
cpu1_L1I TRANSLATION  ACCESS:          0 HIT:          0 MISS:          0
cpu1_L1I PREFETCH REQUESTED:          0 ISSUED:          0 USEFUL:          0 USELESS:          0
cpu1_L1I AVERAGE MISS LATENCY: 310.5 cycles
cpu1_L2C TOTAL        ACCESS:          0 HIT:          0 MISS:          0
cpu1_L2C LOAD         ACCESS:          0 HIT:          0 MISS:          0
cpu1_L2C RFO          ACCESS:          0 HIT:          0 MISS:          0
cpu1_L2C PREFETCH     ACCESS:          0 HIT:          0 MISS:          0
cpu1_L2C WRITE        ACCESS:          0 HIT:          0 MISS:          0
cpu1_L2C TRANSLATION  ACCESS:          0 HIT:          0 MISS:          0
cpu1_L2C PREFETCH REQUESTED:    2495203 ISSUED:    2495203 USEFUL:     197784 USELESS:      59093
cpu1_L2C AVERAGE MISS LATENCY: 179.2 cycles
cpu1_L2C TOTAL        ACCESS:    8482710 HIT:    7515332 MISS:     967378
cpu1_L2C LOAD         ACCESS:    4435274 HIT:    4406551 MISS:      28723
cpu1_L2C RFO          ACCESS:      14505 HIT:      13982 MISS:        523
cpu1_L2C PREFETCH     ACCESS:    2495203 HIT:    1560892 MISS:     934311
cpu1_L2C WRITE        ACCESS:    1529080 HIT:    1529041 MISS:         39
cpu1_L2C TRANSLATION  ACCESS:       8648 HIT:       4866 MISS:       3782
cpu1_L2C PREFETCH REQUESTED:    2495203 ISSUED:    2495203 USEFUL:     197784 USELESS:      59093
cpu1_L2C AVERAGE MISS LATENCY: 179.2 cycles
cpu1_L2C TOTAL        ACCESS:          0 HIT:          0 MISS:          0
cpu1_L2C LOAD         ACCESS:          0 HIT:          0 MISS:          0
cpu1_L2C RFO          ACCESS:          0 HIT:          0 MISS:          0
cpu1_L2C PREFETCH     ACCESS:          0 HIT:          0 MISS:          0
cpu1_L2C WRITE        ACCESS:          0 HIT:          0 MISS:          0
cpu1_L2C TRANSLATION  ACCESS:          0 HIT:          0 MISS:          0
cpu1_L2C PREFETCH REQUESTED:    2495203 ISSUED:    2495203 USEFUL:     197784 USELESS:      59093
cpu1_L2C AVERAGE MISS LATENCY: 179.2 cycles
cpu1_L2C TOTAL        ACCESS:          0 HIT:          0 MISS:          0
cpu1_L2C LOAD         ACCESS:          0 HIT:          0 MISS:          0
cpu1_L2C RFO          ACCESS:          0 HIT:          0 MISS:          0
cpu1_L2C PREFETCH     ACCESS:          0 HIT:          0 MISS:          0
cpu1_L2C WRITE        ACCESS:          0 HIT:          0 MISS:          0
cpu1_L2C TRANSLATION  ACCESS:          0 HIT:          0 MISS:          0
cpu1_L2C PREFETCH REQUESTED:    2495203 ISSUED:    2495203 USEFUL:     197784 USELESS:      59093
cpu1_L2C AVERAGE MISS LATENCY: 179.2 cycles
cpu1_STLB TOTAL        ACCESS:          0 HIT:          0 MISS:          0
cpu1_STLB LOAD         ACCESS:          0 HIT:          0 MISS:          0
cpu1_STLB RFO          ACCESS:          0 HIT:          0 MISS:          0
cpu1_STLB PREFETCH     ACCESS:          0 HIT:          0 MISS:          0
cpu1_STLB WRITE        ACCESS:          0 HIT:          0 MISS:          0
cpu1_STLB TRANSLATION  ACCESS:          0 HIT:          0 MISS:          0
cpu1_STLB PREFETCH REQUESTED:          0 ISSUED:          0 USEFUL:          0 USELESS:          0
cpu1_STLB AVERAGE MISS LATENCY: 729.6 cycles
cpu1_STLB TOTAL        ACCESS:    1968386 HIT:    1959709 MISS:       8677
cpu1_STLB LOAD         ACCESS:    1968386 HIT:    1959709 MISS:       8677
cpu1_STLB RFO          ACCESS:          0 HIT:          0 MISS:          0
cpu1_STLB PREFETCH     ACCESS:          0 HIT:          0 MISS:          0
cpu1_STLB WRITE        ACCESS:          0 HIT:          0 MISS:          0
cpu1_STLB TRANSLATION  ACCESS:          0 HIT:          0 MISS:          0
cpu1_STLB PREFETCH REQUESTED:          0 ISSUED:          0 USEFUL:          0 USELESS:          0
cpu1_STLB AVERAGE MISS LATENCY: 729.6 cycles
cpu1_STLB TOTAL        ACCESS:          0 HIT:          0 MISS:          0
cpu1_STLB LOAD         ACCESS:          0 HIT:          0 MISS:          0
cpu1_STLB RFO          ACCESS:          0 HIT:          0 MISS:          0
cpu1_STLB PREFETCH     ACCESS:          0 HIT:          0 MISS:          0
cpu1_STLB WRITE        ACCESS:          0 HIT:          0 MISS:          0
cpu1_STLB TRANSLATION  ACCESS:          0 HIT:          0 MISS:          0
cpu1_STLB PREFETCH REQUESTED:          0 ISSUED:          0 USEFUL:          0 USELESS:          0
cpu1_STLB AVERAGE MISS LATENCY: 729.6 cycles
cpu1_STLB TOTAL        ACCESS:          0 HIT:          0 MISS:          0
cpu1_STLB LOAD         ACCESS:          0 HIT:          0 MISS:          0
cpu1_STLB RFO          ACCESS:          0 HIT:          0 MISS:          0
cpu1_STLB PREFETCH     ACCESS:          0 HIT:          0 MISS:          0
cpu1_STLB WRITE        ACCESS:          0 HIT:          0 MISS:          0
cpu1_STLB TRANSLATION  ACCESS:          0 HIT:          0 MISS:          0
cpu1_STLB PREFETCH REQUESTED:          0 ISSUED:          0 USEFUL:          0 USELESS:          0
cpu1_STLB AVERAGE MISS LATENCY: 729.6 cycles
cpu2_DTLB TOTAL        ACCESS:          0 HIT:          0 MISS:          0
cpu2_DTLB LOAD         ACCESS:          0 HIT:          0 MISS:          0
cpu2_DTLB RFO          ACCESS:          0 HIT:          0 MISS:          0
cpu2_DTLB PREFETCH     ACCESS:          0 HIT:          0 MISS:          0
cpu2_DTLB WRITE        ACCESS:          0 HIT:          0 MISS:          0
cpu2_DTLB TRANSLATION  ACCESS:          0 HIT:          0 MISS:          0
cpu2_DTLB PREFETCH REQUESTED:          0 ISSUED:          0 USEFUL:          0 USELESS:          0
cpu2_DTLB AVERAGE MISS LATENCY: 7.283 cycles
cpu2_DTLB TOTAL        ACCESS:          0 HIT:          0 MISS:          0
cpu2_DTLB LOAD         ACCESS:          0 HIT:          0 MISS:          0
cpu2_DTLB RFO          ACCESS:          0 HIT:          0 MISS:          0
cpu2_DTLB PREFETCH     ACCESS:          0 HIT:          0 MISS:          0
cpu2_DTLB WRITE        ACCESS:          0 HIT:          0 MISS:          0
cpu2_DTLB TRANSLATION  ACCESS:          0 HIT:          0 MISS:          0
cpu2_DTLB PREFETCH REQUESTED:          0 ISSUED:          0 USEFUL:          0 USELESS:          0
cpu2_DTLB AVERAGE MISS LATENCY: 7.283 cycles
cpu2_DTLB TOTAL        ACCESS:  112279182 HIT:   91960351 MISS:   20318831
cpu2_DTLB LOAD         ACCESS:  112279182 HIT:   91960351 MISS:   20318831
cpu2_DTLB RFO          ACCESS:          0 HIT:          0 MISS:          0
cpu2_DTLB PREFETCH     ACCESS:          0 HIT:          0 MISS:          0
cpu2_DTLB WRITE        ACCESS:          0 HIT:          0 MISS:          0
cpu2_DTLB TRANSLATION  ACCESS:          0 HIT:          0 MISS:          0
cpu2_DTLB PREFETCH REQUESTED:          0 ISSUED:          0 USEFUL:          0 USELESS:          0
cpu2_DTLB AVERAGE MISS LATENCY: 7.283 cycles
cpu2_DTLB TOTAL        ACCESS:          0 HIT:          0 MISS:          0
cpu2_DTLB LOAD         ACCESS:          0 HIT:          0 MISS:          0
cpu2_DTLB RFO          ACCESS:          0 HIT:          0 MISS:          0
cpu2_DTLB PREFETCH     ACCESS:          0 HIT:          0 MISS:          0
cpu2_DTLB WRITE        ACCESS:          0 HIT:          0 MISS:          0
cpu2_DTLB TRANSLATION  ACCESS:          0 HIT:          0 MISS:          0
cpu2_DTLB PREFETCH REQUESTED:          0 ISSUED:          0 USEFUL:          0 USELESS:          0
cpu2_DTLB AVERAGE MISS LATENCY: 7.283 cycles
cpu2_ITLB TOTAL        ACCESS:          0 HIT:          0 MISS:          0
cpu2_ITLB LOAD         ACCESS:          0 HIT:          0 MISS:          0
cpu2_ITLB RFO          ACCESS:          0 HIT:          0 MISS:          0
cpu2_ITLB PREFETCH     ACCESS:          0 HIT:          0 MISS:          0
cpu2_ITLB WRITE        ACCESS:          0 HIT:          0 MISS:          0
cpu2_ITLB TRANSLATION  ACCESS:          0 HIT:          0 MISS:          0
cpu2_ITLB PREFETCH REQUESTED:          0 ISSUED:          0 USEFUL:          0 USELESS:          0
cpu2_ITLB AVERAGE MISS LATENCY: 5.968 cycles
cpu2_ITLB TOTAL        ACCESS:          0 HIT:          0 MISS:          0
cpu2_ITLB LOAD         ACCESS:          0 HIT:          0 MISS:          0
cpu2_ITLB RFO          ACCESS:          0 HIT:          0 MISS:          0
cpu2_ITLB PREFETCH     ACCESS:          0 HIT:          0 MISS:          0
cpu2_ITLB WRITE        ACCESS:          0 HIT:          0 MISS:          0
cpu2_ITLB TRANSLATION  ACCESS:          0 HIT:          0 MISS:          0
cpu2_ITLB PREFETCH REQUESTED:          0 ISSUED:          0 USEFUL:          0 USELESS:          0
cpu2_ITLB AVERAGE MISS LATENCY: 5.968 cycles
cpu2_ITLB TOTAL        ACCESS:   17192977 HIT:   16803681 MISS:     389296
cpu2_ITLB LOAD         ACCESS:   17192977 HIT:   16803681 MISS:     389296
cpu2_ITLB RFO          ACCESS:          0 HIT:          0 MISS:          0
cpu2_ITLB PREFETCH     ACCESS:          0 HIT:          0 MISS:          0
cpu2_ITLB WRITE        ACCESS:          0 HIT:          0 MISS:          0
cpu2_ITLB TRANSLATION  ACCESS:          0 HIT:          0 MISS:          0
cpu2_ITLB PREFETCH REQUESTED:          0 ISSUED:          0 USEFUL:          0 USELESS:          0
cpu2_ITLB AVERAGE MISS LATENCY: 5.968 cycles
cpu2_ITLB TOTAL        ACCESS:          0 HIT:          0 MISS:          0
cpu2_ITLB LOAD         ACCESS:          0 HIT:          0 MISS:          0
cpu2_ITLB RFO          ACCESS:          0 HIT:          0 MISS:          0
cpu2_ITLB PREFETCH     ACCESS:          0 HIT:          0 MISS:          0
cpu2_ITLB WRITE        ACCESS:          0 HIT:          0 MISS:          0
cpu2_ITLB TRANSLATION  ACCESS:          0 HIT:          0 MISS:          0
cpu2_ITLB PREFETCH REQUESTED:          0 ISSUED:          0 USEFUL:          0 USELESS:          0
cpu2_ITLB AVERAGE MISS LATENCY: 5.968 cycles
cpu2_L1D TOTAL        ACCESS:          0 HIT:          0 MISS:          0
cpu2_L1D LOAD         ACCESS:          0 HIT:          0 MISS:          0
cpu2_L1D RFO          ACCESS:          0 HIT:          0 MISS:          0
cpu2_L1D PREFETCH     ACCESS:          0 HIT:          0 MISS:          0
cpu2_L1D WRITE        ACCESS:          0 HIT:          0 MISS:          0
cpu2_L1D TRANSLATION  ACCESS:          0 HIT:          0 MISS:          0
cpu2_L1D PREFETCH REQUESTED:          0 ISSUED:          0 USEFUL:          0 USELESS:          0
cpu2_L1D AVERAGE MISS LATENCY: 38.97 cycles
cpu2_L1D TOTAL        ACCESS:          0 HIT:          0 MISS:          0
cpu2_L1D LOAD         ACCESS:          0 HIT:          0 MISS:          0
cpu2_L1D RFO          ACCESS:          0 HIT:          0 MISS:          0
cpu2_L1D PREFETCH     ACCESS:          0 HIT:          0 MISS:          0
cpu2_L1D WRITE        ACCESS:          0 HIT:          0 MISS:          0
cpu2_L1D TRANSLATION  ACCESS:          0 HIT:          0 MISS:          0
[...]
cpu2_L2C PREFETCH     ACCESS:          0 HIT:          0 MISS:          0
cpu2_L2C WRITE        ACCESS:          0 HIT:          0 MISS:          0
cpu2_L2C TRANSLATION  ACCESS:          0 HIT:          0 MISS:          0
cpu2_L2C PREFETCH REQUESTED:     489450 ISSUED:     489450 USEFUL:      27716 USELESS:       5923
cpu2_L2C AVERAGE MISS LATENCY: 577.3 cycles
cpu2_L2C TOTAL        ACCESS:          0 HIT:          0 MISS:          0
cpu2_L2C LOAD         ACCESS:          0 HIT:          0 MISS:          0
cpu2_L2C RFO          ACCESS:          0 HIT:          0 MISS:          0
cpu2_L2C PREFETCH     ACCESS:          0 HIT:          0 MISS:          0
cpu2_L2C WRITE        ACCESS:          0 HIT:          0 MISS:          0
cpu2_L2C TRANSLATION  ACCESS:          0 HIT:          0 MISS:          0
cpu2_L2C PREFETCH REQUESTED:     489450 ISSUED:     489450 USEFUL:      27716 USELESS:       5923
cpu2_L2C AVERAGE MISS LATENCY: 577.3 cycles
cpu2_L2C TOTAL        ACCESS:    8742420 HIT:    8169240 MISS:     573180
cpu2_L2C LOAD         ACCESS:    7783503 HIT:    7479713 MISS:     303790
cpu2_L2C RFO          ACCESS:     204120 HIT:      40185 MISS:     163935
cpu2_L2C PREFETCH     ACCESS:     160370 HIT:      87229 MISS:      73141
cpu2_L2C WRITE        ACCESS:     336630 HIT:     336630 MISS:          0
cpu2_L2C TRANSLATION  ACCESS:     257797 HIT:     225483 MISS:      32314
cpu2_L2C PREFETCH REQUESTED:     489450 ISSUED:     489450 USEFUL:      27716 USELESS:       5923
cpu2_L2C AVERAGE MISS LATENCY: 577.3 cycles
cpu2_L2C TOTAL        ACCESS:          0 HIT:          0 MISS:          0
cpu2_L2C LOAD         ACCESS:          0 HIT:          0 MISS:          0
cpu2_L2C RFO          ACCESS:          0 HIT:          0 MISS:          0
cpu2_L2C PREFETCH     ACCESS:          0 HIT:          0 MISS:          0
cpu2_L2C WRITE        ACCESS:          0 HIT:          0 MISS:          0
cpu2_L2C TRANSLATION  ACCESS:          0 HIT:          0 MISS:          0
cpu2_L2C PREFETCH REQUESTED:     489450 ISSUED:     489450 USEFUL:      27716 USELESS:       5923
cpu2_L2C AVERAGE MISS LATENCY: 577.3 cycles
cpu2_STLB TOTAL        ACCESS:          0 HIT:          0 MISS:          0
cpu2_STLB LOAD         ACCESS:          0 HIT:          0 MISS:          0
cpu2_STLB RFO          ACCESS:          0 HIT:          0 MISS:          0
cpu2_STLB PREFETCH     ACCESS:          0 HIT:          0 MISS:          0
cpu2_STLB WRITE        ACCESS:          0 HIT:          0 MISS:          0
cpu2_STLB TRANSLATION  ACCESS:          0 HIT:          0 MISS:          0
cpu2_STLB PREFETCH REQUESTED:          0 ISSUED:          0 USEFUL:          0 USELESS:          0
cpu2_STLB AVERAGE MISS LATENCY: 63.72 cycles
cpu2_STLB TOTAL        ACCESS:          0 HIT:          0 MISS:          0
cpu2_STLB LOAD         ACCESS:          0 HIT:          0 MISS:          0
cpu2_STLB RFO          ACCESS:          0 HIT:          0 MISS:          0
cpu2_STLB PREFETCH     ACCESS:          0 HIT:          0 MISS:          0
cpu2_STLB WRITE        ACCESS:          0 HIT:          0 MISS:          0
cpu2_STLB TRANSLATION  ACCESS:          0 HIT:          0 MISS:          0
cpu2_STLB PREFETCH REQUESTED:          0 ISSUED:          0 USEFUL:          0 USELESS:          0
cpu2_STLB AVERAGE MISS LATENCY: 63.72 cycles
cpu2_STLB TOTAL        ACCESS:    4507663 HIT:    4238565 MISS:     269098
cpu2_STLB LOAD         ACCESS:    4507663 HIT:    4238565 MISS:     269098
cpu2_STLB RFO          ACCESS:          0 HIT:          0 MISS:          0
cpu2_STLB PREFETCH     ACCESS:          0 HIT:          0 MISS:          0
cpu2_STLB WRITE        ACCESS:          0 HIT:          0 MISS:          0
cpu2_STLB TRANSLATION  ACCESS:          0 HIT:          0 MISS:          0
cpu2_STLB PREFETCH REQUESTED:          0 ISSUED:          0 USEFUL:          0 USELESS:          0
cpu2_STLB AVERAGE MISS LATENCY: 63.72 cycles
cpu2_STLB TOTAL        ACCESS:          0 HIT:          0 MISS:          0
cpu2_STLB LOAD         ACCESS:          0 HIT:          0 MISS:          0
cpu2_STLB RFO          ACCESS:          0 HIT:          0 MISS:          0
cpu2_STLB PREFETCH     ACCESS:          0 HIT:          0 MISS:          0
cpu2_STLB WRITE        ACCESS:          0 HIT:          0 MISS:          0
cpu2_STLB TRANSLATION  ACCESS:          0 HIT:          0 MISS:          0
cpu2_STLB PREFETCH REQUESTED:          0 ISSUED:          0 USEFUL:          0 USELESS:          0
cpu2_STLB AVERAGE MISS LATENCY: 63.72 cycles
cpu3_DTLB TOTAL        ACCESS:          0 HIT:          0 MISS:          0
cpu3_DTLB LOAD         ACCESS:          0 HIT:          0 MISS:          0
cpu3_DTLB RFO          ACCESS:          0 HIT:          0 MISS:          0
cpu3_DTLB PREFETCH     ACCESS:          0 HIT:          0 MISS:          0
cpu3_DTLB WRITE        ACCESS:          0 HIT:          0 MISS:          0
cpu3_DTLB TRANSLATION  ACCESS:          0 HIT:          0 MISS:          0
cpu3_DTLB PREFETCH REQUESTED:          0 ISSUED:          0 USEFUL:          0 USELESS:          0
cpu3_DTLB AVERAGE MISS LATENCY: 9.066 cycles
cpu3_DTLB TOTAL        ACCESS:          0 HIT:          0 MISS:          0
cpu3_DTLB LOAD         ACCESS:          0 HIT:          0 MISS:          0
cpu3_DTLB RFO          ACCESS:          0 HIT:          0 MISS:          0
cpu3_DTLB PREFETCH     ACCESS:          0 HIT:          0 MISS:          0
cpu3_DTLB WRITE        ACCESS:          0 HIT:          0 MISS:          0
cpu3_DTLB TRANSLATION  ACCESS:          0 HIT:          0 MISS:          0
cpu3_DTLB PREFETCH REQUESTED:          0 ISSUED:          0 USEFUL:          0 USELESS:          0
cpu3_DTLB AVERAGE MISS LATENCY: 9.066 cycles
cpu3_DTLB TOTAL        ACCESS:          0 HIT:          0 MISS:          0
cpu3_DTLB LOAD         ACCESS:          0 HIT:          0 MISS:          0
cpu3_DTLB RFO          ACCESS:          0 HIT:          0 MISS:          0
cpu3_DTLB PREFETCH     ACCESS:          0 HIT:          0 MISS:          0
cpu3_DTLB WRITE        ACCESS:          0 HIT:          0 MISS:          0
cpu3_DTLB TRANSLATION  ACCESS:          0 HIT:          0 MISS:          0
cpu3_DTLB PREFETCH REQUESTED:          0 ISSUED:          0 USEFUL:          0 USELESS:          0
cpu3_DTLB AVERAGE MISS LATENCY: 9.066 cycles
cpu3_DTLB TOTAL        ACCESS:   17700978 HIT:   17690499 MISS:      10479
cpu3_DTLB LOAD         ACCESS:   17700978 HIT:   17690499 MISS:      10479
cpu3_DTLB RFO          ACCESS:          0 HIT:          0 MISS:          0
cpu3_DTLB PREFETCH     ACCESS:          0 HIT:          0 MISS:          0
cpu3_DTLB WRITE        ACCESS:          0 HIT:          0 MISS:          0
cpu3_DTLB TRANSLATION  ACCESS:          0 HIT:          0 MISS:          0
cpu3_DTLB PREFETCH REQUESTED:          0 ISSUED:          0 USEFUL:          0 USELESS:          0
cpu3_DTLB AVERAGE MISS LATENCY: 9.066 cycles
cpu3_ITLB TOTAL        ACCESS:          0 HIT:          0 MISS:          0
cpu3_ITLB LOAD         ACCESS:          0 HIT:          0 MISS:          0
cpu3_ITLB RFO          ACCESS:          0 HIT:          0 MISS:          0
cpu3_ITLB PREFETCH     ACCESS:          0 HIT:          0 MISS:          0
cpu3_ITLB WRITE        ACCESS:          0 HIT:          0 MISS:          0
cpu3_ITLB TRANSLATION  ACCESS:          0 HIT:          0 MISS:          0
cpu3_ITLB PREFETCH REQUESTED:          0 ISSUED:          0 USEFUL:          0 USELESS:          0
cpu3_ITLB AVERAGE MISS LATENCY: 227.1 cycles
cpu3_ITLB TOTAL        ACCESS:          0 HIT:          0 MISS:          0
cpu3_ITLB LOAD         ACCESS:          0 HIT:          0 MISS:          0
cpu3_ITLB RFO          ACCESS:          0 HIT:          0 MISS:          0
cpu3_ITLB PREFETCH     ACCESS:          0 HIT:          0 MISS:          0
cpu3_ITLB WRITE        ACCESS:          0 HIT:          0 MISS:          0
cpu3_ITLB TRANSLATION  ACCESS:          0 HIT:          0 MISS:          0
cpu3_ITLB PREFETCH REQUESTED:          0 ISSUED:          0 USEFUL:          0 USELESS:          0
cpu3_ITLB AVERAGE MISS LATENCY: 227.1 cycles
cpu3_ITLB TOTAL        ACCESS:          0 HIT:          0 MISS:          0
cpu3_ITLB LOAD         ACCESS:          0 HIT:          0 MISS:          0
cpu3_ITLB RFO          ACCESS:          0 HIT:          0 MISS:          0
cpu3_ITLB PREFETCH     ACCESS:          0 HIT:          0 MISS:          0
cpu3_ITLB WRITE        ACCESS:          0 HIT:          0 MISS:          0
cpu3_ITLB TRANSLATION  ACCESS:          0 HIT:          0 MISS:          0
cpu3_ITLB PREFETCH REQUESTED:          0 ISSUED:          0 USEFUL:          0 USELESS:          0
cpu3_ITLB AVERAGE MISS LATENCY: 227.1 cycles
cpu3_ITLB TOTAL        ACCESS:     512828 HIT:     512828 MISS:          0
cpu3_ITLB LOAD         ACCESS:     512828 HIT:     512828 MISS:          0
cpu3_ITLB RFO          ACCESS:          0 HIT:          0 MISS:          0
cpu3_ITLB PREFETCH     ACCESS:          0 HIT:          0 MISS:          0
cpu3_ITLB WRITE        ACCESS:          0 HIT:          0 MISS:          0
cpu3_ITLB TRANSLATION  ACCESS:          0 HIT:          0 MISS:          0
cpu3_ITLB PREFETCH REQUESTED:          0 ISSUED:          0 USEFUL:          0 USELESS:          0
cpu3_ITLB AVERAGE MISS LATENCY: 227.1 cycles
cpu3_L1D TOTAL        ACCESS:          0 HIT:          0 MISS:          0
cpu3_L1D LOAD         ACCESS:          0 HIT:          0 MISS:          0
cpu3_L1D RFO          ACCESS:          0 HIT:          0 MISS:          0
cpu3_L1D PREFETCH     ACCESS:          0 HIT:          0 MISS:          0
cpu3_L1D WRITE        ACCESS:          0 HIT:          0 MISS:          0
cpu3_L1D TRANSLATION  ACCESS:          0 HIT:          0 MISS:          0
cpu3_L1D PREFETCH REQUESTED:          0 ISSUED:          0 USEFUL:          0 USELESS:          0
cpu3_L1D AVERAGE MISS LATENCY: 134.7 cycles
cpu3_L1D TOTAL        ACCESS:          0 HIT:          0 MISS:          0
cpu3_L1D LOAD         ACCESS:          0 HIT:          0 MISS:          0
cpu3_L1D RFO          ACCESS:          0 HIT:          0 MISS:          0
cpu3_L1D PREFETCH     ACCESS:          0 HIT:          0 MISS:          0
cpu3_L1D WRITE        ACCESS:          0 HIT:          0 MISS:          0
cpu3_L1D TRANSLATION  ACCESS:          0 HIT:          0 MISS:          0
cpu3_L1D PREFETCH REQUESTED:          0 ISSUED:          0 USEFUL:          0 USELESS:          0
cpu3_L1D AVERAGE MISS LATENCY: 134.7 cycles
cpu3_L1D TOTAL        ACCESS:          0 HIT:          0 MISS:          0
cpu3_L1D LOAD         ACCESS:          0 HIT:          0 MISS:          0
cpu3_L1D RFO          ACCESS:          0 HIT:          0 MISS:          0
cpu3_L1D PREFETCH     ACCESS:          0 HIT:          0 MISS:          0
cpu3_L1D WRITE        ACCESS:          0 HIT:          0 MISS:          0
cpu3_L1D TRANSLATION  ACCESS:          0 HIT:          0 MISS:          0
cpu3_L1D PREFETCH REQUESTED:          0 ISSUED:          0 USEFUL:          0 USELESS:          0
cpu3_L1D AVERAGE MISS LATENCY: 134.7 cycles
cpu3_L1D TOTAL        ACCESS:   22015045 HIT:   22006101 MISS:       8944
cpu3_L1D LOAD         ACCESS:   16452368 HIT:   16449759 MISS:       2609
cpu3_L1D RFO          ACCESS:          0 HIT:          0 MISS:          0
cpu3_L1D PREFETCH     ACCESS:          0 HIT:          0 MISS:          0
cpu3_L1D WRITE        ACCESS:    5562506 HIT:    5556324 MISS:       6182
cpu3_L1D TRANSLATION  ACCESS:        171 HIT:         18 MISS:        153
cpu3_L1D PREFETCH REQUESTED:          0 ISSUED:          0 USEFUL:          0 USELESS:          0
cpu3_L1D AVERAGE MISS LATENCY: 134.7 cycles
cpu3_L1I TOTAL        ACCESS:          0 HIT:          0 MISS:          0
cpu3_L1I LOAD         ACCESS:          0 HIT:          0 MISS:          0
cpu3_L1I RFO          ACCESS:          0 HIT:          0 MISS:          0
cpu3_L1I PREFETCH     ACCESS:          0 HIT:          0 MISS:          0
cpu3_L1I WRITE        ACCESS:          0 HIT:          0 MISS:          0
cpu3_L1I TRANSLATION  ACCESS:          0 HIT:          0 MISS:          0
cpu3_L1I PREFETCH REQUESTED:          0 ISSUED:          0 USEFUL:          0 USELESS:          0
cpu3_L1I AVERAGE MISS LATENCY: 13.31 cycles
cpu3_L1I TOTAL        ACCESS:          0 HIT:          0 MISS:          0
cpu3_L1I LOAD         ACCESS:          0 HIT:          0 MISS:          0
cpu3_L1I RFO          ACCESS:          0 HIT:          0 MISS:          0
cpu3_L1I PREFETCH     ACCESS:          0 HIT:          0 MISS:          0
cpu3_L1I WRITE        ACCESS:          0 HIT:          0 MISS:          0
cpu3_L1I TRANSLATION  ACCESS:          0 HIT:          0 MISS:          0
cpu3_L1I PREFETCH REQUESTED:          0 ISSUED:          0 USEFUL:          0 USELESS:          0
cpu3_L1I AVERAGE MISS LATENCY: 13.31 cycles
cpu3_L1I TOTAL        ACCESS:          0 HIT:          0 MISS:          0
cpu3_L1I LOAD         ACCESS:          0 HIT:          0 MISS:          0
cpu3_L1I RFO          ACCESS:          0 HIT:          0 MISS:          0
cpu3_L1I PREFETCH     ACCESS:          0 HIT:          0 MISS:          0
cpu3_L1I WRITE        ACCESS:          0 HIT:          0 MISS:          0
cpu3_L1I TRANSLATION  ACCESS:          0 HIT:          0 MISS:          0
cpu3_L1I PREFETCH REQUESTED:          0 ISSUED:          0 USEFUL:          0 USELESS:          0
cpu3_L1I AVERAGE MISS LATENCY: 13.31 cycles
cpu3_L1I TOTAL        ACCESS:     551016 HIT:     549598 MISS:       1418
cpu3_L1I LOAD         ACCESS:     551016 HIT:     549598 MISS:       1418
cpu3_L1I RFO          ACCESS:          0 HIT:          0 MISS:          0
cpu3_L1I PREFETCH     ACCESS:          0 HIT:          0 MISS:          0
cpu3_L1I WRITE        ACCESS:          0 HIT:          0 MISS:          0
cpu3_L1I TRANSLATION  ACCESS:          0 HIT:          0 MISS:          0
cpu3_L1I PREFETCH REQUESTED:          0 ISSUED:          0 USEFUL:          0 USELESS:          0
cpu3_L1I AVERAGE MISS LATENCY: 13.31 cycles
cpu3_L2C TOTAL        ACCESS:          0 HIT:          0 MISS:          0
cpu3_L2C LOAD         ACCESS:          0 HIT:          0 MISS:          0
cpu3_L2C RFO          ACCESS:          0 HIT:          0 MISS:          0
cpu3_L2C PREFETCH     ACCESS:          0 HIT:          0 MISS:          0
cpu3_L2C WRITE        ACCESS:          0 HIT:          0 MISS:          0
cpu3_L2C TRANSLATION  ACCESS:          0 HIT:          0 MISS:          0
cpu3_L2C PREFETCH REQUESTED:   21977719 ISSUED:   17835230 USEFUL:    1841405 USELESS:     273335
cpu3_L2C AVERAGE MISS LATENCY: 433.4 cycles
cpu3_L2C TOTAL        ACCESS:          0 HIT:          0 MISS:          0
cpu3_L2C LOAD         ACCESS:          0 HIT:          0 MISS:          0
cpu3_L2C RFO          ACCESS:          0 HIT:          0 MISS:          0
cpu3_L2C PREFETCH     ACCESS:          0 HIT:          0 MISS:          0
cpu3_L2C WRITE        ACCESS:          0 HIT:          0 MISS:          0
cpu3_L2C TRANSLATION  ACCESS:          0 HIT:          0 MISS:          0
cpu3_L2C PREFETCH REQUESTED:   21977719 ISSUED:   17835230 USEFUL:    1841405 USELESS:     273335
cpu3_L2C AVERAGE MISS LATENCY: 433.4 cycles
cpu3_L2C TOTAL        ACCESS:          0 HIT:          0 MISS:          0
cpu3_L2C LOAD         ACCESS:          0 HIT:          0 MISS:          0
cpu3_L2C RFO          ACCESS:          0 HIT:          0 MISS:          0
cpu3_L2C PREFETCH     ACCESS:          0 HIT:          0 MISS:          0
cpu3_L2C WRITE        ACCESS:          0 HIT:          0 MISS:          0
cpu3_L2C TRANSLATION  ACCESS:          0 HIT:          0 MISS:          0
cpu3_L2C PREFETCH REQUESTED:   21977719 ISSUED:   17835230 USEFUL:    1841405 USELESS:     273335
cpu3_L2C AVERAGE MISS LATENCY: 433.4 cycles
cpu3_L2C TOTAL        ACCESS:      11368 HIT:       5575 MISS:       5793
cpu3_L2C LOAD         ACCESS:       2776 HIT:       1880 MISS:        896
cpu3_L2C RFO          ACCESS:       2556 HIT:        115 MISS:       2441
cpu3_L2C PREFETCH     ACCESS:       2834 HIT:        482 MISS:       2352
cpu3_L2C WRITE        ACCESS:       3049 HIT:       3040 MISS:          9
cpu3_L2C TRANSLATION  ACCESS:        153 HIT:         58 MISS:         95
cpu3_L2C PREFETCH REQUESTED:   21977719 ISSUED:   17835230 USEFUL:    1841405 USELESS:     273335
cpu3_L2C AVERAGE MISS LATENCY: 433.4 cycles
cpu3_STLB TOTAL        ACCESS:          0 HIT:          0 MISS:          0
cpu3_STLB LOAD         ACCESS:          0 HIT:          0 MISS:          0
cpu3_STLB RFO          ACCESS:          0 HIT:          0 MISS:          0
cpu3_STLB PREFETCH     ACCESS:          0 HIT:          0 MISS:          0
cpu3_STLB WRITE        ACCESS:          0 HIT:          0 MISS:          0
cpu3_STLB TRANSLATION  ACCESS:          0 HIT:          0 MISS:          0
cpu3_STLB PREFETCH REQUESTED:          0 ISSUED:          0 USEFUL:          0 USELESS:          0
cpu3_STLB AVERAGE MISS LATENCY: 306.7 cycles
cpu3_STLB TOTAL        ACCESS:          0 HIT:          0 MISS:          0
cpu3_STLB LOAD         ACCESS:          0 HIT:          0 MISS:          0
cpu3_STLB RFO          ACCESS:          0 HIT:          0 MISS:          0
cpu3_STLB PREFETCH     ACCESS:          0 HIT:          0 MISS:          0
cpu3_STLB WRITE        ACCESS:          0 HIT:          0 MISS:          0
cpu3_STLB TRANSLATION  ACCESS:          0 HIT:          0 MISS:          0
cpu3_STLB PREFETCH REQUESTED:          0 ISSUED:          0 USEFUL:          0 USELESS:          0
cpu3_STLB AVERAGE MISS LATENCY: 306.7 cycles
cpu3_STLB TOTAL        ACCESS:          0 HIT:          0 MISS:          0
cpu3_STLB LOAD         ACCESS:          0 HIT:          0 MISS:          0
cpu3_STLB RFO          ACCESS:          0 HIT:          0 MISS:          0
cpu3_STLB PREFETCH     ACCESS:          0 HIT:          0 MISS:          0
cpu3_STLB WRITE        ACCESS:          0 HIT:          0 MISS:          0
cpu3_STLB TRANSLATION  ACCESS:          0 HIT:          0 MISS:          0
cpu3_STLB PREFETCH REQUESTED:          0 ISSUED:          0 USEFUL:          0 USELESS:          0
cpu3_STLB AVERAGE MISS LATENCY: 306.7 cycles
cpu3_STLB TOTAL        ACCESS:       9190 HIT:       9020 MISS:        170
cpu3_STLB LOAD         ACCESS:       9190 HIT:       9020 MISS:        170
cpu3_STLB RFO          ACCESS:          0 HIT:          0 MISS:          0
cpu3_STLB PREFETCH     ACCESS:          0 HIT:          0 MISS:          0
cpu3_STLB WRITE        ACCESS:          0 HIT:          0 MISS:          0
cpu3_STLB TRANSLATION  ACCESS:          0 HIT:          0 MISS:          0
cpu3_STLB PREFETCH REQUESTED:          0 ISSUED:          0 USEFUL:          0 USELESS:          0
cpu3_STLB AVERAGE MISS LATENCY: 306.7 cycles

DRAM Statistics

Channel 0 RQ ROW_BUFFER_HIT:     961796
  ROW_BUFFER_MISS:    3946181
 AVG DBUS CONGESTED CYCLE: 3.972
WQ ROW_BUFFER_HIT: Channel 0 
  ROW_BUFFER_MISS:      64520
  FULL:    2243529
BERTI TO_L1: 16357943 TO_L2: 9008957 TO_L2_BC_MSHR: 104982
BERTI AVG_LAT: 411.968 NUM_TRACK_LATENCY: 6355372 NUM_CANT_TRACK_LATENCY: 80468
BERTI CROSS_PAGE 4534992 NO_CROSS_PAGE: 20831908
BERTI FOUND_BERTI: 37784338 NO_FOUND_BERTI: 5337089
BERTI AVERAGE_ISSUED: 5.65225
BERTI TO_L1: 16357943 TO_L2: 9008957 TO_L2_BC_MSHR: 104982
BERTI AVG_LAT: 411.968 NUM_TRACK_LATENCY: 6355372 NUM_CANT_TRACK_LATENCY: 80468
BERTI CROSS_PAGE 4534992 NO_CROSS_PAGE: 20831908
BERTI FOUND_BERTI: 37784338 NO_FOUND_BERTI: 5337089
BERTI AVERAGE_ISSUED: 5.65225
BERTI TO_L1: 16357943 TO_L2: 9008957 TO_L2_BC_MSHR: 104982
BERTI AVG_LAT: 411.968 NUM_TRACK_LATENCY: 6355372 NUM_CANT_TRACK_LATENCY: 80468
BERTI CROSS_PAGE 4534992 NO_CROSS_PAGE: 20831908
BERTI FOUND_BERTI: 37784338 NO_FOUND_BERTI: 5337089
BERTI AVERAGE_ISSUED: 5.65225
BERTI TO_L1: 16357943 TO_L2: 9008957 TO_L2_BC_MSHR: 104982
BERTI AVG_LAT: 411.968 NUM_TRACK_LATENCY: 6355372 NUM_CANT_TRACK_LATENCY: 80468
BERTI CROSS_PAGE 4534992 NO_CROSS_PAGE: 20831908
BERTI FOUND_BERTI: 37784338 NO_FOUND_BERTI: 5337089
BERTI AVERAGE_ISSUED: 5.65225
