WARNING: physical memory size is smaller than virtual memory size.
WARNING: option --warmup_instructions is deprecated. Use --warmup-instructions instead.
WARNING: option --simulation_instructions is deprecated. Use --simulation-instructions instead.

*** ChampSim Multicore Out-of-Order Simulator ***
Warmup Instructions: 50000000
Simulation Instructions: 150000000
Number of CPUs: 4
Page size: 4096

Berti Prefetcher
BERTI HASH ORIGINAL
BERTI IP MASK ffff
Berti Prefetcher
BERTI HASH ORIGINAL
BERTI IP MASK ffff
Berti Prefetcher
BERTI HASH ORIGINAL
BERTI IP MASK ffff
Berti Prefetcher
BERTI HASH ORIGINAL
BERTI IP MASK ffff
Off-chip DRAM Size: 4 GiB Channels: 1 Width: 64-bit Data Race: 3200 MT/s
Heartbeat CPU 3 instructions: 10000001 cycles: 2502909 heartbeat IPC: 3.995 cumulative IPC: 3.995 (Simulation time: 00 hr 02 min 09 sec)
Heartbeat CPU 2 instructions: 10000000 cycles: 2638593 heartbeat IPC: 3.79 cumulative IPC: 3.79 (Simulation time: 00 hr 02 min 17 sec)
Heartbeat CPU 1 instructions: 10000003 cycles: 2696881 heartbeat IPC: 3.708 cumulative IPC: 3.708 (Simulation time: 00 hr 02 min 20 sec)
Heartbeat CPU 0 instructions: 10000002 cycles: 3839644 heartbeat IPC: 2.604 cumulative IPC: 2.604 (Simulation time: 00 hr 03 min 19 sec)
Heartbeat CPU 3 instructions: 20000001 cycles: 5005630 heartbeat IPC: 3.996 cumulative IPC: 3.996 (Simulation time: 00 hr 04 min 20 sec)
Heartbeat CPU 1 instructions: 20000002 cycles: 5210278 heartbeat IPC: 3.979 cumulative IPC: 3.839 (Simulation time: 00 hr 04 min 31 sec)
Heartbeat CPU 2 instructions: 20000000 cycles: 5277523 heartbeat IPC: 3.789 cumulative IPC: 3.79 (Simulation time: 00 hr 04 min 35 sec)
Heartbeat CPU 3 instructions: 30000003 cycles: 7507965 heartbeat IPC: 3.996 cumulative IPC: 3.996 (Simulation time: 00 hr 06 min 32 sec)
Heartbeat CPU 0 instructions: 20000001 cycles: 7675716 heartbeat IPC: 2.607 cumulative IPC: 2.606 (Simulation time: 00 hr 06 min 40 sec)
Heartbeat CPU 1 instructions: 30000000 cycles: 7723451 heartbeat IPC: 3.979 cumulative IPC: 3.884 (Simulation time: 00 hr 06 min 43 sec)
Heartbeat CPU 2 instructions: 30000003 cycles: 7916587 heartbeat IPC: 3.789 cumulative IPC: 3.79 (Simulation time: 00 hr 06 min 53 sec)
Heartbeat CPU 3 instructions: 40000002 cycles: 10010596 heartbeat IPC: 3.996 cumulative IPC: 3.996 (Simulation time: 00 hr 08 min 48 sec)
Heartbeat CPU 1 instructions: 40000003 cycles: 10240010 heartbeat IPC: 3.974 cumulative IPC: 3.906 (Simulation time: 00 hr 09 min 02 sec)
Heartbeat CPU 2 instructions: 40000002 cycles: 10555239 heartbeat IPC: 3.79 cumulative IPC: 3.79 (Simulation time: 00 hr 09 min 22 sec)
Heartbeat CPU 0 instructions: 30000003 cycles: 11515135 heartbeat IPC: 2.605 cumulative IPC: 2.605 (Simulation time: 00 hr 10 min 17 sec)
Heartbeat CPU 3 instructions: 50000003 cycles: 12513280 heartbeat IPC: 3.996 cumulative IPC: 3.996 (Simulation time: 00 hr 11 min 17 sec)
Warmup finished CPU 3 instructions: 50000003 cycles: 12513281 cumulative IPC: 3.996 (Simulation time: 00 hr 11 min 17 sec)
Heartbeat CPU 1 instructions: 50000002 cycles: 12761260 heartbeat IPC: 3.966 cumulative IPC: 3.918 (Simulation time: 00 hr 11 min 36 sec)
Warmup finished CPU 1 instructions: 50000002 cycles: 12761261 cumulative IPC: 3.918 (Simulation time: 00 hr 11 min 36 sec)
Heartbeat CPU 2 instructions: 50000000 cycles: 13195269 heartbeat IPC: 3.788 cumulative IPC: 3.789 (Simulation time: 00 hr 12 min 03 sec)
Warmup finished CPU 2 instructions: 50000000 cycles: 13195270 cumulative IPC: 3.789 (Simulation time: 00 hr 12 min 03 sec)
Heartbeat CPU 3 instructions: 60000001 cycles: 15016014 heartbeat IPC: 3.996 cumulative IPC: 3.996 (Simulation time: 00 hr 13 min 46 sec)
Heartbeat CPU 1 instructions: 60000001 cycles: 15282046 heartbeat IPC: 3.967 cumulative IPC: 3.926 (Simulation time: 00 hr 14 min 03 sec)
Heartbeat CPU 0 instructions: 40000003 cycles: 15355992 heartbeat IPC: 2.604 cumulative IPC: 2.605 (Simulation time: 00 hr 14 min 07 sec)
Heartbeat CPU 2 instructions: 60000000 cycles: 15838415 heartbeat IPC: 3.783 cumulative IPC: 3.788 (Simulation time: 00 hr 14 min 34 sec)
Heartbeat CPU 3 instructions: 70000001 cycles: 17520823 heartbeat IPC: 3.992 cumulative IPC: 3.995 (Simulation time: 00 hr 16 min 06 sec)
Heartbeat CPU 1 instructions: 70000003 cycles: 17798144 heartbeat IPC: 3.974 cumulative IPC: 3.933 (Simulation time: 00 hr 16 min 21 sec)
Heartbeat CPU 2 instructions: 70000003 cycles: 18485483 heartbeat IPC: 3.778 cumulative IPC: 3.787 (Simulation time: 00 hr 16 min 56 sec)
Heartbeat CPU 0 instructions: 50000002 cycles: 19197139 heartbeat IPC: 2.603 cumulative IPC: 2.605 (Simulation time: 00 hr 17 min 34 sec)
Warmup finished CPU 0 instructions: 50000002 cycles: 19197140 cumulative IPC: 2.605 (Simulation time: 00 hr 17 min 34 sec)
Warmup complete CPU 0 instructions: 50000002 cycles: 19197140 cumulative IPC: 2.605 (Simulation time: 00 hr 17 min 34 sec)
Warmup complete CPU 1 instructions: 75567317 cycles: 19197140 cumulative IPC: 3.936 (Simulation time: 00 hr 17 min 34 sec)
Warmup complete CPU 2 instructions: 72796489 cycles: 19197140 cumulative IPC: 3.792 (Simulation time: 00 hr 17 min 34 sec)
Warmup complete CPU 3 instructions: 76705265 cycles: 19197140 cumulative IPC: 3.996 (Simulation time: 00 hr 17 min 34 sec)
Heartbeat CPU 3 instructions: 80000001 cycles: 20742373 heartbeat IPC: 3.104 cumulative IPC: 2.132 (Simulation time: 00 hr 18 min 38 sec)
Heartbeat CPU 1 instructions: 80000002 cycles: 21196124 heartbeat IPC: 2.943 cumulative IPC: 2.217 (Simulation time: 00 hr 18 min 56 sec)
Heartbeat CPU 2 instructions: 80000000 cycles: 23052374 heartbeat IPC: 2.19 cumulative IPC: 1.869 (Simulation time: 00 hr 20 min 04 sec)
Heartbeat CPU 3 instructions: 90000002 cycles: 25465048 heartbeat IPC: 2.117 cumulative IPC: 2.121 (Simulation time: 00 hr 21 min 38 sec)
Heartbeat CPU 1 instructions: 90000003 cycles: 25616389 heartbeat IPC: 2.262 cumulative IPC: 2.248 (Simulation time: 00 hr 21 min 45 sec)
Heartbeat CPU 2 instructions: 90000000 cycles: 27836203 heartbeat IPC: 2.09 cumulative IPC: 1.991 (Simulation time: 00 hr 23 min 12 sec)
Heartbeat CPU 3 instructions: 100000000 cycles: 30190135 heartbeat IPC: 2.116 cumulative IPC: 2.119 (Simulation time: 00 hr 24 min 35 sec)
Heartbeat CPU 0 instructions: 60000004 cycles: 30499570 heartbeat IPC: 0.8848 cumulative IPC: 0.8848 (Simulation time: 00 hr 24 min 45 sec)
Heartbeat CPU 2 instructions: 100000004 cycles: 34306270 heartbeat IPC: 1.546 cumulative IPC: 1.8 (Simulation time: 00 hr 26 min 49 sec)
Heartbeat CPU 3 instructions: 110000001 cycles: 34911928 heartbeat IPC: 2.118 cumulative IPC: 2.119 (Simulation time: 00 hr 27 min 12 sec)
Heartbeat CPU 3 instructions: 120000000 cycles: 39565426 heartbeat IPC: 2.149 cumulative IPC: 2.126 (Simulation time: 00 hr 29 min 44 sec)
Heartbeat CPU 2 instructions: 110000001 cycles: 43389360 heartbeat IPC: 1.101 cumulative IPC: 1.538 (Simulation time: 00 hr 31 min 38 sec)
Heartbeat CPU 1 instructions: 100000000 cycles: 43427354 heartbeat IPC: 0.5615 cumulative IPC: 1.008 (Simulation time: 00 hr 31 min 39 sec)
Heartbeat CPU 3 instructions: 130000002 cycles: 44305579 heartbeat IPC: 2.11 cumulative IPC: 2.123 (Simulation time: 00 hr 32 min 05 sec)
Heartbeat CPU 3 instructions: 140000000 cycles: 49156739 heartbeat IPC: 2.061 cumulative IPC: 2.113 (Simulation time: 00 hr 34 min 39 sec)
Heartbeat CPU 3 instructions: 150000004 cycles: 53913055 heartbeat IPC: 2.102 cumulative IPC: 2.111 (Simulation time: 00 hr 37 min 03 sec)
Heartbeat CPU 0 instructions: 70000000 cycles: 57801768 heartbeat IPC: 0.3663 cumulative IPC: 0.5181 (Simulation time: 00 hr 39 min 00 sec)
Heartbeat CPU 3 instructions: 160000003 cycles: 58600325 heartbeat IPC: 2.133 cumulative IPC: 2.114 (Simulation time: 00 hr 39 min 25 sec)
Heartbeat CPU 2 instructions: 120000003 cycles: 59436514 heartbeat IPC: 0.6232 cumulative IPC: 1.173 (Simulation time: 00 hr 39 min 52 sec)
Heartbeat CPU 3 instructions: 170000003 cycles: 63396233 heartbeat IPC: 2.085 cumulative IPC: 2.111 (Simulation time: 00 hr 41 min 51 sec)
Heartbeat CPU 3 instructions: 180000004 cycles: 68106455 heartbeat IPC: 2.123 cumulative IPC: 2.112 (Simulation time: 00 hr 44 min 15 sec)
Heartbeat CPU 2 instructions: 130000001 cycles: 72413414 heartbeat IPC: 0.7706 cumulative IPC: 1.075 (Simulation time: 00 hr 46 min 18 sec)
Heartbeat CPU 3 instructions: 190000002 cycles: 73071228 heartbeat IPC: 2.014 cumulative IPC: 2.103 (Simulation time: 00 hr 46 min 37 sec)
Heartbeat CPU 3 instructions: 200000000 cycles: 78001075 heartbeat IPC: 2.028 cumulative IPC: 2.097 (Simulation time: 00 hr 48 min 50 sec)
Heartbeat CPU 3 instructions: 210000000 cycles: 82654775 heartbeat IPC: 2.149 cumulative IPC: 2.101 (Simulation time: 00 hr 50 min 57 sec)
Heartbeat CPU 2 instructions: 140000002 cycles: 84575788 heartbeat IPC: 0.8222 cumulative IPC: 1.028 (Simulation time: 00 hr 52 min 01 sec)
Heartbeat CPU 3 instructions: 220000000 cycles: 87315723 heartbeat IPC: 2.145 cumulative IPC: 2.104 (Simulation time: 00 hr 53 min 20 sec)
Simulation finished CPU 3 instructions: 150000002 cycles: 71316944 cumulative IPC: 2.103 (Simulation time: 00 hr 54 min 50 sec)
Heartbeat CPU 3 instructions: 230000001 cycles: 91998711 heartbeat IPC: 2.135 cumulative IPC: 2.106 (Simulation time: 00 hr 55 min 33 sec)
Heartbeat CPU 0 instructions: 80000000 cycles: 93224354 heartbeat IPC: 0.2823 cumulative IPC: 0.4053 (Simulation time: 00 hr 56 min 09 sec)
Heartbeat CPU 3 instructions: 240000000 cycles: 96718340 heartbeat IPC: 2.119 cumulative IPC: 2.106 (Simulation time: 00 hr 57 min 50 sec)
Heartbeat CPU 2 instructions: 150000000 cycles: 97427388 heartbeat IPC: 0.7781 cumulative IPC: 0.9869 (Simulation time: 00 hr 58 min 10 sec)
Heartbeat CPU 3 instructions: 250000002 cycles: 101415330 heartbeat IPC: 2.129 cumulative IPC: 2.108 (Simulation time: 01 hr 00 min 16 sec)
Heartbeat CPU 1 instructions: 110000001 cycles: 103788543 heartbeat IPC: 0.1657 cumulative IPC: 0.407 (Simulation time: 01 hr 01 min 36 sec)
Heartbeat CPU 3 instructions: 260000000 cycles: 106150824 heartbeat IPC: 2.112 cumulative IPC: 2.108 (Simulation time: 01 hr 02 min 48 sec)
Heartbeat CPU 2 instructions: 160000000 cycles: 107459491 heartbeat IPC: 0.9968 cumulative IPC: 0.988 (Simulation time: 01 hr 03 min 39 sec)
Heartbeat CPU 1 instructions: 120000003 cycles: 109453340 heartbeat IPC: 1.765 cumulative IPC: 0.4923 (Simulation time: 01 hr 05 min 01 sec)
Heartbeat CPU 3 instructions: 270000000 cycles: 110802652 heartbeat IPC: 2.15 cumulative IPC: 2.11 (Simulation time: 01 hr 05 min 56 sec)
Heartbeat CPU 2 instructions: 170000002 cycles: 112201479 heartbeat IPC: 2.109 cumulative IPC: 1.045 (Simulation time: 01 hr 06 min 54 sec)
Heartbeat CPU 1 instructions: 130000002 cycles: 113223516 heartbeat IPC: 2.652 cumulative IPC: 0.5789 (Simulation time: 01 hr 07 min 35 sec)
Heartbeat CPU 0 instructions: 90000000 cycles: 113477686 heartbeat IPC: 0.4937 cumulative IPC: 0.4243 (Simulation time: 01 hr 07 min 45 sec)
Heartbeat CPU 3 instructions: 280000001 cycles: 115465663 heartbeat IPC: 2.145 cumulative IPC: 2.112 (Simulation time: 01 hr 09 min 04 sec)
Heartbeat CPU 1 instructions: 140000000 cycles: 116932237 heartbeat IPC: 2.696 cumulative IPC: 0.6593 (Simulation time: 01 hr 10 min 00 sec)
Heartbeat CPU 2 instructions: 180000003 cycles: 119532191 heartbeat IPC: 1.364 cumulative IPC: 1.068 (Simulation time: 01 hr 11 min 40 sec)
Heartbeat CPU 3 instructions: 290000004 cycles: 120145221 heartbeat IPC: 2.137 cumulative IPC: 2.113 (Simulation time: 01 hr 12 min 04 sec)
Heartbeat CPU 1 instructions: 150000001 cycles: 122204297 heartbeat IPC: 1.897 cumulative IPC: 0.7226 (Simulation time: 01 hr 13 min 23 sec)
Heartbeat CPU 3 instructions: 300000000 cycles: 124770986 heartbeat IPC: 2.162 cumulative IPC: 2.115 (Simulation time: 01 hr 15 min 00 sec)
Heartbeat CPU 2 instructions: 190000004 cycles: 126834019 heartbeat IPC: 1.37 cumulative IPC: 1.089 (Simulation time: 01 hr 16 min 21 sec)
Heartbeat CPU 0 instructions: 100000000 cycles: 126996627 heartbeat IPC: 0.7397 cumulative IPC: 0.4638 (Simulation time: 01 hr 16 min 28 sec)
Heartbeat CPU 1 instructions: 160000000 cycles: 127550655 heartbeat IPC: 1.87 cumulative IPC: 0.7792 (Simulation time: 01 hr 16 min 50 sec)
Heartbeat CPU 3 instructions: 310000001 cycles: 129404164 heartbeat IPC: 2.158 cumulative IPC: 2.117 (Simulation time: 01 hr 18 min 02 sec)
Heartbeat CPU 1 instructions: 170000000 cycles: 132888015 heartbeat IPC: 1.874 cumulative IPC: 0.8306 (Simulation time: 01 hr 20 min 22 sec)
Heartbeat CPU 2 instructions: 200000002 cycles: 133142690 heartbeat IPC: 1.585 cumulative IPC: 1.116 (Simulation time: 01 hr 20 min 33 sec)
Heartbeat CPU 3 instructions: 320000001 cycles: 134037792 heartbeat IPC: 2.158 cumulative IPC: 2.119 (Simulation time: 01 hr 21 min 09 sec)
Heartbeat CPU 1 instructions: 180000000 cycles: 137984071 heartbeat IPC: 1.962 cumulative IPC: 0.8792 (Simulation time: 01 hr 23 min 51 sec)
Heartbeat CPU 0 instructions: 110000003 cycles: 138485223 heartbeat IPC: 0.8704 cumulative IPC: 0.503 (Simulation time: 01 hr 24 min 12 sec)
Heartbeat CPU 3 instructions: 330000001 cycles: 138638570 heartbeat IPC: 2.174 cumulative IPC: 2.121 (Simulation time: 01 hr 24 min 19 sec)
Heartbeat CPU 2 instructions: 210000000 cycles: 139469212 heartbeat IPC: 1.581 cumulative IPC: 1.141 (Simulation time: 01 hr 24 min 53 sec)
Heartbeat CPU 1 instructions: 190000003 cycles: 142795263 heartbeat IPC: 2.078 cumulative IPC: 0.9258 (Simulation time: 01 hr 27 min 09 sec)
Heartbeat CPU 3 instructions: 340000000 cycles: 144709155 heartbeat IPC: 1.647 cumulative IPC: 2.098 (Simulation time: 01 hr 28 min 33 sec)
Heartbeat CPU 2 instructions: 220000004 cycles: 146416169 heartbeat IPC: 1.439 cumulative IPC: 1.157 (Simulation time: 01 hr 29 min 33 sec)
Simulation finished CPU 2 instructions: 150000001 cycles: 129328087 cumulative IPC: 1.16 (Simulation time: 01 hr 30 min 51 sec)
Heartbeat CPU 3 instructions: 350000002 cycles: 150307678 heartbeat IPC: 1.786 cumulative IPC: 2.084 (Simulation time: 01 hr 31 min 59 sec)
Heartbeat CPU 0 instructions: 120000004 cycles: 151333420 heartbeat IPC: 0.7783 cumulative IPC: 0.5298 (Simulation time: 01 hr 32 min 35 sec)
Heartbeat CPU 1 instructions: 200000004 cycles: 154113846 heartbeat IPC: 0.8835 cumulative IPC: 0.9223 (Simulation time: 01 hr 34 min 24 sec)
Heartbeat CPU 2 instructions: 230000000 cycles: 154629694 heartbeat IPC: 1.218 cumulative IPC: 1.161 (Simulation time: 01 hr 34 min 45 sec)
Heartbeat CPU 3 instructions: 360000003 cycles: 155739407 heartbeat IPC: 1.841 cumulative IPC: 2.075 (Simulation time: 01 hr 35 min 23 sec)
Heartbeat CPU 3 instructions: 370000000 cycles: 161140620 heartbeat IPC: 1.851 cumulative IPC: 2.066 (Simulation time: 01 hr 38 min 28 sec)
Heartbeat CPU 3 instructions: 380000002 cycles: 166888935 heartbeat IPC: 1.74 cumulative IPC: 2.054 (Simulation time: 01 hr 41 min 25 sec)
Heartbeat CPU 2 instructions: 240000002 cycles: 169594763 heartbeat IPC: 0.6682 cumulative IPC: 1.112 (Simulation time: 01 hr 42 min 41 sec)
Heartbeat CPU 0 instructions: 130000004 cycles: 174473003 heartbeat IPC: 0.4322 cumulative IPC: 0.5152 (Simulation time: 01 hr 44 min 44 sec)
Heartbeat CPU 3 instructions: 390000001 cycles: 206042530 heartbeat IPC: 0.2554 cumulative IPC: 1.677 (Simulation time: 01 hr 58 min 02 sec)
Heartbeat CPU 2 instructions: 250000003 cycles: 207853106 heartbeat IPC: 0.2614 cumulative IPC: 0.9393 (Simulation time: 01 hr 58 min 58 sec)
Heartbeat CPU 3 instructions: 400000003 cycles: 213951051 heartbeat IPC: 1.264 cumulative IPC: 1.66 (Simulation time: 02 hr 02 min 06 sec)
Heartbeat CPU 0 instructions: 140000002 cycles: 218941166 heartbeat IPC: 0.2249 cumulative IPC: 0.4506 (Simulation time: 02 hr 04 min 30 sec)
Heartbeat CPU 3 instructions: 410000003 cycles: 223027851 heartbeat IPC: 1.102 cumulative IPC: 1.635 (Simulation time: 02 hr 06 min 31 sec)
Heartbeat CPU 2 instructions: 260000002 cycles: 225066674 heartbeat IPC: 0.5809 cumulative IPC: 0.9093 (Simulation time: 02 hr 07 min 39 sec)
Heartbeat CPU 1 instructions: 210000003 cycles: 226278853 heartbeat IPC: 0.1386 cumulative IPC: 0.6492 (Simulation time: 02 hr 08 min 20 sec)
Heartbeat CPU 3 instructions: 420000002 cycles: 229469362 heartbeat IPC: 1.552 cumulative IPC: 1.633 (Simulation time: 02 hr 10 min 22 sec)
Heartbeat CPU 1 instructions: 220000001 cycles: 231834104 heartbeat IPC: 1.8 cumulative IPC: 0.6792 (Simulation time: 02 hr 12 min 01 sec)
Heartbeat CPU 2 instructions: 270000001 cycles: 232313273 heartbeat IPC: 1.38 cumulative IPC: 0.9253 (Simulation time: 02 hr 12 min 21 sec)
Simulation finished CPU 1 instructions: 150000000 cycles: 214692970 cumulative IPC: 0.6987 (Simulation time: 02 hr 13 min 25 sec)
Heartbeat CPU 3 instructions: 430000004 cycles: 235160373 heartbeat IPC: 1.757 cumulative IPC: 1.636 (Simulation time: 02 hr 14 min 17 sec)
Heartbeat CPU 1 instructions: 230000001 cycles: 235661539 heartbeat IPC: 2.613 cumulative IPC: 0.7134 (Simulation time: 02 hr 14 min 37 sec)
Heartbeat CPU 1 instructions: 240000000 cycles: 239748201 heartbeat IPC: 2.447 cumulative IPC: 0.7456 (Simulation time: 02 hr 17 min 21 sec)
Heartbeat CPU 0 instructions: 150000004 cycles: 240476521 heartbeat IPC: 0.4644 cumulative IPC: 0.4519 (Simulation time: 02 hr 17 min 48 sec)
Heartbeat CPU 2 instructions: 280000003 cycles: 241087503 heartbeat IPC: 1.14 cumulative IPC: 0.9338 (Simulation time: 02 hr 18 min 13 sec)
Heartbeat CPU 3 instructions: 440000003 cycles: 241621061 heartbeat IPC: 1.548 cumulative IPC: 1.633 (Simulation time: 02 hr 18 min 37 sec)
Heartbeat CPU 1 instructions: 250000004 cycles: 244949966 heartbeat IPC: 1.922 cumulative IPC: 0.7727 (Simulation time: 02 hr 20 min 52 sec)
Heartbeat CPU 3 instructions: 450000000 cycles: 247727612 heartbeat IPC: 1.638 cumulative IPC: 1.633 (Simulation time: 02 hr 22 min 40 sec)
Heartbeat CPU 2 instructions: 290000000 cycles: 250265071 heartbeat IPC: 1.09 cumulative IPC: 0.94 (Simulation time: 02 hr 24 min 13 sec)
Heartbeat CPU 1 instructions: 260000004 cycles: 251628466 heartbeat IPC: 1.497 cumulative IPC: 0.7935 (Simulation time: 02 hr 25 min 06 sec)
Heartbeat CPU 3 instructions: 460000004 cycles: 254456437 heartbeat IPC: 1.486 cumulative IPC: 1.629 (Simulation time: 02 hr 26 min 50 sec)
Heartbeat CPU 1 instructions: 270000000 cycles: 258379905 heartbeat IPC: 1.481 cumulative IPC: 0.8129 (Simulation time: 02 hr 29 min 23 sec)
Heartbeat CPU 2 instructions: 300000000 cycles: 259071585 heartbeat IPC: 1.136 cumulative IPC: 0.9472 (Simulation time: 02 hr 29 min 53 sec)
Heartbeat CPU 3 instructions: 470000001 cycles: 260136387 heartbeat IPC: 1.761 cumulative IPC: 1.632 (Simulation time: 02 hr 30 min 36 sec)
Heartbeat CPU 0 instructions: 160000004 cycles: 260563966 heartbeat IPC: 0.4978 cumulative IPC: 0.4557 (Simulation time: 02 hr 30 min 52 sec)
Heartbeat CPU 1 instructions: 280000001 cycles: 263947101 heartbeat IPC: 1.796 cumulative IPC: 0.8353 (Simulation time: 02 hr 33 min 09 sec)
Heartbeat CPU 3 instructions: 480000000 cycles: 266031930 heartbeat IPC: 1.696 cumulative IPC: 1.634 (Simulation time: 02 hr 34 min 17 sec)
Heartbeat CPU 2 instructions: 310000002 cycles: 266500025 heartbeat IPC: 1.346 cumulative IPC: 0.9592 (Simulation time: 02 hr 34 min 36 sec)
Heartbeat CPU 1 instructions: 290000002 cycles: 271782276 heartbeat IPC: 1.276 cumulative IPC: 0.849 (Simulation time: 02 hr 37 min 44 sec)
Heartbeat CPU 2 instructions: 320000003 cycles: 273663686 heartbeat IPC: 1.396 cumulative IPC: 0.9715 (Simulation time: 02 hr 39 min 06 sec)
Heartbeat CPU 3 instructions: 490000002 cycles: 274636574 heartbeat IPC: 1.162 cumulative IPC: 1.618 (Simulation time: 02 hr 39 min 48 sec)
Heartbeat CPU 0 instructions: 170000000 cycles: 279306353 heartbeat IPC: 0.5335 cumulative IPC: 0.4613 (Simulation time: 02 hr 42 min 15 sec)
Heartbeat CPU 2 instructions: 330000002 cycles: 281949505 heartbeat IPC: 1.207 cumulative IPC: 0.9789 (Simulation time: 02 hr 43 min 42 sec)
Heartbeat CPU 3 instructions: 500000000 cycles: 283039428 heartbeat IPC: 1.19 cumulative IPC: 1.604 (Simulation time: 02 hr 44 min 23 sec)
Heartbeat CPU 1 instructions: 300000001 cycles: 283714285 heartbeat IPC: 0.8381 cumulative IPC: 0.8485 (Simulation time: 02 hr 44 min 46 sec)
Heartbeat CPU 3 instructions: 510000002 cycles: 290910226 heartbeat IPC: 1.271 cumulative IPC: 1.595 (Simulation time: 02 hr 48 min 34 sec)
Heartbeat CPU 2 instructions: 340000000 cycles: 292205072 heartbeat IPC: 0.9751 cumulative IPC: 0.9787 (Simulation time: 02 hr 49 min 24 sec)
Heartbeat CPU 3 instructions: 520000000 cycles: 299221309 heartbeat IPC: 1.203 cumulative IPC: 1.583 (Simulation time: 02 hr 53 min 09 sec)
Heartbeat CPU 2 instructions: 350000000 cycles: 299979352 heartbeat IPC: 1.286 cumulative IPC: 0.9873 (Simulation time: 02 hr 53 min 32 sec)
Heartbeat CPU 0 instructions: 180000001 cycles: 300643447 heartbeat IPC: 0.4687 cumulative IPC: 0.4619 (Simulation time: 02 hr 53 min 52 sec)
Heartbeat CPU 3 instructions: 530000003 cycles: 308724409 heartbeat IPC: 1.052 cumulative IPC: 1.566 (Simulation time: 02 hr 57 min 45 sec)
Heartbeat CPU 3 instructions: 540000000 cycles: 318309089 heartbeat IPC: 1.043 cumulative IPC: 1.549 (Simulation time: 03 hr 02 min 05 sec)
Heartbeat CPU 2 instructions: 360000002 cycles: 327316474 heartbeat IPC: 0.3658 cumulative IPC: 0.9321 (Simulation time: 03 hr 06 min 18 sec)
Heartbeat CPU 3 instructions: 550000002 cycles: 327779665 heartbeat IPC: 1.056 cumulative IPC: 1.534 (Simulation time: 03 hr 06 min 32 sec)
Heartbeat CPU 3 instructions: 560000001 cycles: 336899127 heartbeat IPC: 1.097 cumulative IPC: 1.521 (Simulation time: 03 hr 10 min 51 sec)
Heartbeat CPU 0 instructions: 190000003 cycles: 337040354 heartbeat IPC: 0.2747 cumulative IPC: 0.4405 (Simulation time: 03 hr 10 min 54 sec)
Heartbeat CPU 3 instructions: 570000004 cycles: 346844686 heartbeat IPC: 1.005 cumulative IPC: 1.506 (Simulation time: 03 hr 15 min 35 sec)
Heartbeat CPU 2 instructions: 370000000 cycles: 354409143 heartbeat IPC: 0.3691 cumulative IPC: 0.8866 (Simulation time: 03 hr 19 min 10 sec)
Heartbeat CPU 1 instructions: 310000000 cycles: 354611662 heartbeat IPC: 0.141 cumulative IPC: 0.6989 (Simulation time: 03 hr 19 min 17 sec)
Heartbeat CPU 3 instructions: 580000000 cycles: 355836347 heartbeat IPC: 1.112 cumulative IPC: 1.495 (Simulation time: 03 hr 19 min 56 sec)
Heartbeat CPU 1 instructions: 320000004 cycles: 362634742 heartbeat IPC: 1.246 cumulative IPC: 0.7117 (Simulation time: 03 hr 24 min 25 sec)
Heartbeat CPU 3 instructions: 590000001 cycles: 363861910 heartbeat IPC: 1.246 cumulative IPC: 1.489 (Simulation time: 03 hr 25 min 18 sec)
Heartbeat CPU 0 instructions: 200000002 cycles: 365306032 heartbeat IPC: 0.3538 cumulative IPC: 0.4334 (Simulation time: 03 hr 26 min 22 sec)
Simulation finished CPU 0 instructions: 150000000 cycles: 346108893 cumulative IPC: 0.4334 (Simulation time: 03 hr 26 min 22 sec)
Simulation complete CPU 0 instructions: 150000000 cycles: 346108893 cumulative IPC: 0.4334 (Simulation time: 03 hr 26 min 22 sec)
Simulation complete CPU 1 instructions: 251216789 cycles: 346108893 cumulative IPC: 0.7258 (Simulation time: 03 hr 26 min 22 sec)
Simulation complete CPU 2 instructions: 306706420 cycles: 346108893 cumulative IPC: 0.8862 (Simulation time: 03 hr 26 min 22 sec)
Simulation complete CPU 3 instructions: 515362297 cycles: 346108893 cumulative IPC: 1.489 (Simulation time: 03 hr 26 min 22 sec)

ChampSim completed all CPUs

=== Simulation ===
CPU 0 runs /home/das/dpc3_traces/607.cactuBSSN_s-2421B.champsimtrace.xzCPU 1 runs /home/das/dpc3_traces/627.cam4_s-573B.champsimtrace.xzCPU 2 runs /home/das/dpc3_traces/628.pop2_s-17B.champsimtrace.xzCPU 3 runs /home/das/dpc3_traces/621.wrf_s-575B.champsimtrace.xz
Total Simulation Statistics (not including warmup)

CPU 0 cumulative IPC: 0.4334 instructions: 150000000 cycles: 346108893
CPU 0 Branch Prediction Accuracy: 97.89% MPKI: 0.03078 Average ROB Occupancy at Mispredict: 115.5
Branch type MPKI
BRANCH_DIRECT_JUMP: 0.0002
BRANCH_INDIRECT: 0.000567
BRANCH_CONDITIONAL: 0.0181
BRANCH_DIRECT_CALL: 0.00413
BRANCH_INDIRECT_CALL: 2e-05
BRANCH_RETURN: 0.00775


CPU 1 cumulative IPC: 0.7258 instructions: 251216789 cycles: 346108893
CPU 1 Branch Prediction Accuracy: 94.77% MPKI: 7.127 Average ROB Occupancy at Mispredict: 64.53
Branch type MPKI
BRANCH_DIRECT_JUMP: 0.00661
BRANCH_INDIRECT: 0.00206
BRANCH_CONDITIONAL: 6.49
BRANCH_DIRECT_CALL: 0.0228
BRANCH_INDIRECT_CALL: 0
BRANCH_RETURN: 0.601


CPU 2 cumulative IPC: 0.8862 instructions: 306706420 cycles: 346108893
CPU 2 Branch Prediction Accuracy: 97.61% MPKI: 3.911 Average ROB Occupancy at Mispredict: 95.01
Branch type MPKI
BRANCH_DIRECT_JUMP: 0.026
BRANCH_INDIRECT: 0.000603
BRANCH_CONDITIONAL: 3.83
BRANCH_DIRECT_CALL: 0.000844
BRANCH_INDIRECT_CALL: 0
BRANCH_RETURN: 0.0576


CPU 3 cumulative IPC: 1.489 instructions: 515362297 cycles: 346108893
CPU 3 Branch Prediction Accuracy: 95.5% MPKI: 6.218 Average ROB Occupancy at Mispredict: 91.86
Branch type MPKI
BRANCH_DIRECT_JUMP: 0.000415
BRANCH_INDIRECT: 1.16e-05
BRANCH_CONDITIONAL: 5.93
BRANCH_DIRECT_CALL: 0.00227
BRANCH_INDIRECT_CALL: 0
BRANCH_RETURN: 0.287

LLC TOTAL        ACCESS:    1706959 HIT:     545906 MISS:    1161053
LLC LOAD         ACCESS:    1503354 HIT:     383949 MISS:    1119405
LLC RFO          ACCESS:       2827 HIT:       1719 MISS:       1108
LLC PREFETCH     ACCESS:      32344 HIT:       6071 MISS:      26273
LLC WRITE        ACCESS:     145656 HIT:     145601 MISS:         55
LLC TRANSLATION  ACCESS:      22778 HIT:       8566 MISS:      14212
LLC PREFETCH REQUESTED:          0 ISSUED:          0 USEFUL:          0 USELESS:          0
LLC AVERAGE MISS LATENCY: 3200 cycles
LLC TOTAL        ACCESS:    3295178 HIT:    1617563 MISS:    1677615
LLC LOAD         ACCESS:     154056 HIT:      29160 MISS:     124896
LLC RFO          ACCESS:    1454932 HIT:      27860 MISS:    1427072
LLC PREFETCH     ACCESS:     208699 HIT:     103471 MISS:     105228
LLC WRITE        ACCESS:    1472793 HIT:    1456662 MISS:      16131
LLC TRANSLATION  ACCESS:       4698 HIT:        410 MISS:       4288
LLC PREFETCH REQUESTED:          0 ISSUED:          0 USEFUL:          0 USELESS:          0
LLC AVERAGE MISS LATENCY: 3200 cycles
LLC TOTAL        ACCESS:    4761740 HIT:    2895036 MISS:    1866704
LLC LOAD         ACCESS:     602084 HIT:     391134 MISS:     210950
LLC RFO          ACCESS:     667374 HIT:     221195 MISS:     446179
LLC PREFETCH     ACCESS:    2561617 HIT:    1366013 MISS:    1195604
LLC WRITE        ACCESS:     922975 HIT:     914506 MISS:       8469
LLC TRANSLATION  ACCESS:       7690 HIT:       2188 MISS:       5502
LLC PREFETCH REQUESTED:          0 ISSUED:          0 USEFUL:          0 USELESS:          0
LLC AVERAGE MISS LATENCY: 3200 cycles
LLC TOTAL        ACCESS:    1495428 HIT:     859720 MISS:     635708
LLC LOAD         ACCESS:     149787 HIT:      73270 MISS:      76517
LLC RFO          ACCESS:     316170 HIT:      96543 MISS:     219627
LLC PREFETCH     ACCESS:     682632 HIT:     366170 MISS:     316462
LLC WRITE        ACCESS:     344248 HIT:     322561 MISS:      21687
LLC TRANSLATION  ACCESS:       2591 HIT:       1176 MISS:       1415
LLC PREFETCH REQUESTED:          0 ISSUED:          0 USEFUL:          0 USELESS:          0
LLC AVERAGE MISS LATENCY: 3200 cycles
cpu0_DTLB TOTAL        ACCESS:   31560921 HIT:   18430206 MISS:   13130715
cpu0_DTLB LOAD         ACCESS:   31560921 HIT:   18430206 MISS:   13130715
cpu0_DTLB RFO          ACCESS:          0 HIT:          0 MISS:          0
cpu0_DTLB PREFETCH     ACCESS:          0 HIT:          0 MISS:          0
cpu0_DTLB WRITE        ACCESS:          0 HIT:          0 MISS:          0
cpu0_DTLB TRANSLATION  ACCESS:          0 HIT:          0 MISS:          0
cpu0_DTLB PREFETCH REQUESTED:          0 ISSUED:          0 USEFUL:          0 USELESS:          0
cpu0_DTLB AVERAGE MISS LATENCY: 9.99 cycles
cpu0_DTLB TOTAL        ACCESS:          0 HIT:          0 MISS:          0
cpu0_DTLB LOAD         ACCESS:          0 HIT:          0 MISS:          0
cpu0_DTLB RFO          ACCESS:          0 HIT:          0 MISS:          0
cpu0_DTLB PREFETCH     ACCESS:          0 HIT:          0 MISS:          0
cpu0_DTLB WRITE        ACCESS:          0 HIT:          0 MISS:          0
cpu0_DTLB TRANSLATION  ACCESS:          0 HIT:          0 MISS:          0
cpu0_DTLB PREFETCH REQUESTED:          0 ISSUED:          0 USEFUL:          0 USELESS:          0
cpu0_DTLB AVERAGE MISS LATENCY: 9.99 cycles
cpu0_DTLB TOTAL        ACCESS:          0 HIT:          0 MISS:          0
cpu0_DTLB LOAD         ACCESS:          0 HIT:          0 MISS:          0
cpu0_DTLB RFO          ACCESS:          0 HIT:          0 MISS:          0
cpu0_DTLB PREFETCH     ACCESS:          0 HIT:          0 MISS:          0
cpu0_DTLB WRITE        ACCESS:          0 HIT:          0 MISS:          0
cpu0_DTLB TRANSLATION  ACCESS:          0 HIT:          0 MISS:          0
cpu0_DTLB PREFETCH REQUESTED:          0 ISSUED:          0 USEFUL:          0 USELESS:          0
cpu0_DTLB AVERAGE MISS LATENCY: 9.99 cycles
cpu0_DTLB TOTAL        ACCESS:          0 HIT:          0 MISS:          0
cpu0_DTLB LOAD         ACCESS:          0 HIT:          0 MISS:          0
cpu0_DTLB RFO          ACCESS:          0 HIT:          0 MISS:          0
cpu0_DTLB PREFETCH     ACCESS:          0 HIT:          0 MISS:          0
cpu0_DTLB WRITE        ACCESS:          0 HIT:          0 MISS:          0
cpu0_DTLB TRANSLATION  ACCESS:          0 HIT:          0 MISS:          0
cpu0_DTLB PREFETCH REQUESTED:          0 ISSUED:          0 USEFUL:          0 USELESS:          0
cpu0_DTLB AVERAGE MISS LATENCY: 9.99 cycles
cpu0_ITLB TOTAL        ACCESS:   19783221 HIT:   19783136 MISS:         85
cpu0_ITLB LOAD         ACCESS:   19783221 HIT:   19783136 MISS:         85
cpu0_ITLB RFO          ACCESS:          0 HIT:          0 MISS:          0
cpu0_ITLB PREFETCH     ACCESS:          0 HIT:          0 MISS:          0
cpu0_ITLB WRITE        ACCESS:          0 HIT:          0 MISS:          0
cpu0_ITLB TRANSLATION  ACCESS:          0 HIT:          0 MISS:          0
cpu0_ITLB PREFETCH REQUESTED:          0 ISSUED:          0 USEFUL:          0 USELESS:          0
cpu0_ITLB AVERAGE MISS LATENCY: 245.1 cycles
cpu0_ITLB TOTAL        ACCESS:          0 HIT:          0 MISS:          0
cpu0_ITLB LOAD         ACCESS:          0 HIT:          0 MISS:          0
cpu0_ITLB RFO          ACCESS:          0 HIT:          0 MISS:          0
cpu0_ITLB PREFETCH     ACCESS:          0 HIT:          0 MISS:          0
cpu0_ITLB WRITE        ACCESS:          0 HIT:          0 MISS:          0
cpu0_ITLB TRANSLATION  ACCESS:          0 HIT:          0 MISS:          0
cpu0_ITLB PREFETCH REQUESTED:          0 ISSUED:          0 USEFUL:          0 USELESS:          0
cpu0_ITLB AVERAGE MISS LATENCY: 245.1 cycles
cpu0_ITLB TOTAL        ACCESS:          0 HIT:          0 MISS:          0
cpu0_ITLB LOAD         ACCESS:          0 HIT:          0 MISS:          0
cpu0_ITLB RFO          ACCESS:          0 HIT:          0 MISS:          0
cpu0_ITLB PREFETCH     ACCESS:          0 HIT:          0 MISS:          0
cpu0_ITLB WRITE        ACCESS:          0 HIT:          0 MISS:          0
cpu0_ITLB TRANSLATION  ACCESS:          0 HIT:          0 MISS:          0
cpu0_ITLB PREFETCH REQUESTED:          0 ISSUED:          0 USEFUL:          0 USELESS:          0
cpu0_ITLB AVERAGE MISS LATENCY: 245.1 cycles
cpu0_ITLB TOTAL        ACCESS:          0 HIT:          0 MISS:          0
cpu0_ITLB LOAD         ACCESS:          0 HIT:          0 MISS:          0
cpu0_ITLB RFO          ACCESS:          0 HIT:          0 MISS:          0
cpu0_ITLB PREFETCH     ACCESS:          0 HIT:          0 MISS:          0
cpu0_ITLB WRITE        ACCESS:          0 HIT:          0 MISS:          0
cpu0_ITLB TRANSLATION  ACCESS:          0 HIT:          0 MISS:          0
cpu0_ITLB PREFETCH REQUESTED:          0 ISSUED:          0 USEFUL:          0 USELESS:          0
cpu0_ITLB AVERAGE MISS LATENCY: 245.1 cycles
cpu0_L1D TOTAL        ACCESS:   39215171 HIT:   21864974 MISS:   17350197
cpu0_L1D LOAD         ACCESS:   22117043 HIT:    5708771 MISS:   16408272
cpu0_L1D RFO          ACCESS:          0 HIT:          0 MISS:          0
cpu0_L1D PREFETCH     ACCESS:          0 HIT:          0 MISS:          0
cpu0_L1D WRITE        ACCESS:   17069561 HIT:   16155918 MISS:     913643
cpu0_L1D TRANSLATION  ACCESS:      28567 HIT:        285 MISS:      28282
cpu0_L1D PREFETCH REQUESTED:          0 ISSUED:          0 USEFUL:          0 USELESS:          0
cpu0_L1D AVERAGE MISS LATENCY: 231.6 cycles
cpu0_L1D TOTAL        ACCESS:          0 HIT:          0 MISS:          0
cpu0_L1D LOAD         ACCESS:          0 HIT:          0 MISS:          0
cpu0_L1D RFO          ACCESS:          0 HIT:          0 MISS:          0
cpu0_L1D PREFETCH     ACCESS:          0 HIT:          0 MISS:          0
cpu0_L1D WRITE        ACCESS:          0 HIT:          0 MISS:          0
cpu0_L1D TRANSLATION  ACCESS:          0 HIT:          0 MISS:          0
cpu0_L1D PREFETCH REQUESTED:          0 ISSUED:          0 USEFUL:          0 USELESS:          0
cpu0_L1D AVERAGE MISS LATENCY: 231.6 cycles
cpu0_L1D TOTAL        ACCESS:          0 HIT:          0 MISS:          0
cpu0_L1D LOAD         ACCESS:          0 HIT:          0 MISS:          0
cpu0_L1D RFO          ACCESS:          0 HIT:          0 MISS:          0
cpu0_L1D PREFETCH     ACCESS:          0 HIT:          0 MISS:          0
cpu0_L1D WRITE        ACCESS:          0 HIT:          0 MISS:          0
cpu0_L1D TRANSLATION  ACCESS:          0 HIT:          0 MISS:          0
cpu0_L1D PREFETCH REQUESTED:          0 ISSUED:          0 USEFUL:          0 USELESS:          0
cpu0_L1D AVERAGE MISS LATENCY: 231.6 cycles
cpu0_L1D TOTAL        ACCESS:          0 HIT:          0 MISS:          0
cpu0_L1D LOAD         ACCESS:          0 HIT:          0 MISS:          0
cpu0_L1D RFO          ACCESS:          0 HIT:          0 MISS:          0
cpu0_L1D PREFETCH     ACCESS:          0 HIT:          0 MISS:          0
cpu0_L1D WRITE        ACCESS:          0 HIT:          0 MISS:          0
cpu0_L1D TRANSLATION  ACCESS:          0 HIT:          0 MISS:          0
cpu0_L1D PREFETCH REQUESTED:          0 ISSUED:          0 USEFUL:          0 USELESS:          0
cpu0_L1D AVERAGE MISS LATENCY: 231.6 cycles
cpu0_L1I TOTAL        ACCESS:   25714490 HIT:   25638160 MISS:      76330
cpu0_L1I LOAD         ACCESS:   25714490 HIT:   25638160 MISS:      76330
cpu0_L1I RFO          ACCESS:          0 HIT:          0 MISS:          0
cpu0_L1I PREFETCH     ACCESS:          0 HIT:          0 MISS:          0
cpu0_L1I WRITE        ACCESS:          0 HIT:          0 MISS:          0
cpu0_L1I TRANSLATION  ACCESS:          0 HIT:          0 MISS:          0
cpu0_L1I PREFETCH REQUESTED:          0 ISSUED:          0 USEFUL:          0 USELESS:          0
cpu0_L1I AVERAGE MISS LATENCY: 11.64 cycles
cpu0_L1I TOTAL        ACCESS:          0 HIT:          0 MISS:          0
cpu0_L1I LOAD         ACCESS:          0 HIT:          0 MISS:          0
cpu0_L1I RFO          ACCESS:          0 HIT:          0 MISS:          0
cpu0_L1I PREFETCH     ACCESS:          0 HIT:          0 MISS:          0
cpu0_L1I WRITE        ACCESS:          0 HIT:          0 MISS:          0
cpu0_L1I TRANSLATION  ACCESS:          0 HIT:          0 MISS:          0
cpu0_L1I PREFETCH REQUESTED:          0 ISSUED:          0 USEFUL:          0 USELESS:          0
cpu0_L1I AVERAGE MISS LATENCY: 11.64 cycles
cpu0_L1I TOTAL        ACCESS:          0 HIT:          0 MISS:          0
cpu0_L1I LOAD         ACCESS:          0 HIT:          0 MISS:          0
cpu0_L1I RFO          ACCESS:          0 HIT:          0 MISS:          0
cpu0_L1I PREFETCH     ACCESS:          0 HIT:          0 MISS:          0
cpu0_L1I WRITE        ACCESS:          0 HIT:          0 MISS:          0
cpu0_L1I TRANSLATION  ACCESS:          0 HIT:          0 MISS:          0
cpu0_L1I PREFETCH REQUESTED:          0 ISSUED:          0 USEFUL:          0 USELESS:          0
cpu0_L1I AVERAGE MISS LATENCY: 11.64 cycles
cpu0_L1I TOTAL        ACCESS:          0 HIT:          0 MISS:          0
cpu0_L1I LOAD         ACCESS:          0 HIT:          0 MISS:          0
cpu0_L1I RFO          ACCESS:          0 HIT:          0 MISS:          0
cpu0_L1I PREFETCH     ACCESS:          0 HIT:          0 MISS:          0
cpu0_L1I WRITE        ACCESS:          0 HIT:          0 MISS:          0
cpu0_L1I TRANSLATION  ACCESS:          0 HIT:          0 MISS:          0
cpu0_L1I PREFETCH REQUESTED:          0 ISSUED:          0 USEFUL:          0 USELESS:          0
cpu0_L1I AVERAGE MISS LATENCY: 11.64 cycles
cpu0_L2C TOTAL        ACCESS:   18614122 HIT:   17052523 MISS:    1561599
cpu0_L2C LOAD         ACCESS:   16281166 HIT:   14777778 MISS:    1503388
cpu0_L2C RFO          ACCESS:     679066 HIT:     676218 MISS:       2848
cpu0_L2C PREFETCH     ACCESS:     331652 HIT:     299068 MISS:      32584
cpu0_L2C WRITE        ACCESS:    1294005 HIT:    1294004 MISS:          1
cpu0_L2C TRANSLATION  ACCESS:      28233 HIT:       5455 MISS:      22778
cpu0_L2C PREFETCH REQUESTED:     331652 ISSUED:     331652 USEFUL:      29970 USELESS:       2298
cpu0_L2C AVERAGE MISS LATENCY: 2516 cycles
cpu0_L2C TOTAL        ACCESS:          0 HIT:          0 MISS:          0
cpu0_L2C LOAD         ACCESS:          0 HIT:          0 MISS:          0
cpu0_L2C RFO          ACCESS:          0 HIT:          0 MISS:          0
cpu0_L2C PREFETCH     ACCESS:          0 HIT:          0 MISS:          0
cpu0_L2C WRITE        ACCESS:          0 HIT:          0 MISS:          0
cpu0_L2C TRANSLATION  ACCESS:          0 HIT:          0 MISS:          0
cpu0_L2C PREFETCH REQUESTED:     331652 ISSUED:     331652 USEFUL:      29970 USELESS:       2298
cpu0_L2C AVERAGE MISS LATENCY: 2516 cycles
cpu0_L2C TOTAL        ACCESS:          0 HIT:          0 MISS:          0
cpu0_L2C LOAD         ACCESS:          0 HIT:          0 MISS:          0
cpu0_L2C RFO          ACCESS:          0 HIT:          0 MISS:          0
cpu0_L2C PREFETCH     ACCESS:          0 HIT:          0 MISS:          0
cpu0_L2C WRITE        ACCESS:          0 HIT:          0 MISS:          0
cpu0_L2C TRANSLATION  ACCESS:          0 HIT:          0 MISS:          0
cpu0_L2C PREFETCH REQUESTED:     331652 ISSUED:     331652 USEFUL:      29970 USELESS:       2298
cpu0_L2C AVERAGE MISS LATENCY: 2516 cycles
cpu0_L2C TOTAL        ACCESS:          0 HIT:          0 MISS:          0
cpu0_L2C LOAD         ACCESS:          0 HIT:          0 MISS:          0
cpu0_L2C RFO          ACCESS:          0 HIT:          0 MISS:          0
cpu0_L2C PREFETCH     ACCESS:          0 HIT:          0 MISS:          0
cpu0_L2C WRITE        ACCESS:          0 HIT:          0 MISS:          0
cpu0_L2C TRANSLATION  ACCESS:          0 HIT:          0 MISS:          0
cpu0_L2C PREFETCH REQUESTED:     331652 ISSUED:     331652 USEFUL:      29970 USELESS:       2298
cpu0_L2C AVERAGE MISS LATENCY: 2516 cycles
cpu0_STLB TOTAL        ACCESS:   11239508 HIT:   11221163 MISS:      18345
cpu0_STLB LOAD         ACCESS:   11239508 HIT:   11221163 MISS:      18345
cpu0_STLB RFO          ACCESS:          0 HIT:          0 MISS:          0
cpu0_STLB PREFETCH     ACCESS:          0 HIT:          0 MISS:          0
cpu0_STLB WRITE        ACCESS:          0 HIT:          0 MISS:          0
cpu0_STLB TRANSLATION  ACCESS:          0 HIT:          0 MISS:          0
cpu0_STLB PREFETCH REQUESTED:          0 ISSUED:          0 USEFUL:          0 USELESS:          0
cpu0_STLB AVERAGE MISS LATENCY: 2843 cycles
cpu0_STLB TOTAL        ACCESS:          0 HIT:          0 MISS:          0
cpu0_STLB LOAD         ACCESS:          0 HIT:          0 MISS:          0
cpu0_STLB RFO          ACCESS:          0 HIT:          0 MISS:          0
cpu0_STLB PREFETCH     ACCESS:          0 HIT:          0 MISS:          0
cpu0_STLB WRITE        ACCESS:          0 HIT:          0 MISS:          0
cpu0_STLB TRANSLATION  ACCESS:          0 HIT:          0 MISS:          0
cpu0_STLB PREFETCH REQUESTED:          0 ISSUED:          0 USEFUL:          0 USELESS:          0
cpu0_STLB AVERAGE MISS LATENCY: 2843 cycles
cpu0_STLB TOTAL        ACCESS:          0 HIT:          0 MISS:          0
cpu0_STLB LOAD         ACCESS:          0 HIT:          0 MISS:          0
cpu0_STLB RFO          ACCESS:          0 HIT:          0 MISS:          0
cpu0_STLB PREFETCH     ACCESS:          0 HIT:          0 MISS:          0
cpu0_STLB WRITE        ACCESS:          0 HIT:          0 MISS:          0
cpu0_STLB TRANSLATION  ACCESS:          0 HIT:          0 MISS:          0
cpu0_STLB PREFETCH REQUESTED:          0 ISSUED:          0 USEFUL:          0 USELESS:          0
cpu0_STLB AVERAGE MISS LATENCY: 2843 cycles
cpu0_STLB TOTAL        ACCESS:          0 HIT:          0 MISS:          0
cpu0_STLB LOAD         ACCESS:          0 HIT:          0 MISS:          0
cpu0_STLB RFO          ACCESS:          0 HIT:          0 MISS:          0
cpu0_STLB PREFETCH     ACCESS:          0 HIT:          0 MISS:          0
cpu0_STLB WRITE        ACCESS:          0 HIT:          0 MISS:          0
cpu0_STLB TRANSLATION  ACCESS:          0 HIT:          0 MISS:          0
cpu0_STLB PREFETCH REQUESTED:          0 ISSUED:          0 USEFUL:          0 USELESS:          0
cpu0_STLB AVERAGE MISS LATENCY: 2843 cycles
cpu1_DTLB TOTAL        ACCESS:          0 HIT:          0 MISS:          0
cpu1_DTLB LOAD         ACCESS:          0 HIT:          0 MISS:          0
cpu1_DTLB RFO          ACCESS:          0 HIT:          0 MISS:          0
cpu1_DTLB PREFETCH     ACCESS:          0 HIT:          0 MISS:          0
cpu1_DTLB WRITE        ACCESS:          0 HIT:          0 MISS:          0
cpu1_DTLB TRANSLATION  ACCESS:          0 HIT:          0 MISS:          0
cpu1_DTLB PREFETCH REQUESTED:          0 ISSUED:          0 USEFUL:          0 USELESS:          0
cpu1_DTLB AVERAGE MISS LATENCY: 17.17 cycles
cpu1_DTLB TOTAL        ACCESS:   37069625 HIT:   36639871 MISS:     429754
cpu1_DTLB LOAD         ACCESS:   37069625 HIT:   36639871 MISS:     429754
cpu1_DTLB RFO          ACCESS:          0 HIT:          0 MISS:          0
cpu1_DTLB PREFETCH     ACCESS:          0 HIT:          0 MISS:          0
cpu1_DTLB WRITE        ACCESS:          0 HIT:          0 MISS:          0
cpu1_DTLB TRANSLATION  ACCESS:          0 HIT:          0 MISS:          0
cpu1_DTLB PREFETCH REQUESTED:          0 ISSUED:          0 USEFUL:          0 USELESS:          0
cpu1_DTLB AVERAGE MISS LATENCY: 17.17 cycles
cpu1_DTLB TOTAL        ACCESS:          0 HIT:          0 MISS:          0
cpu1_DTLB LOAD         ACCESS:          0 HIT:          0 MISS:          0
cpu1_DTLB RFO          ACCESS:          0 HIT:          0 MISS:          0
cpu1_DTLB PREFETCH     ACCESS:          0 HIT:          0 MISS:          0
cpu1_DTLB WRITE        ACCESS:          0 HIT:          0 MISS:          0
cpu1_DTLB TRANSLATION  ACCESS:          0 HIT:          0 MISS:          0
cpu1_DTLB PREFETCH REQUESTED:          0 ISSUED:          0 USEFUL:          0 USELESS:          0
cpu1_DTLB AVERAGE MISS LATENCY: 17.17 cycles
cpu1_DTLB TOTAL        ACCESS:          0 HIT:          0 MISS:          0
cpu1_DTLB LOAD         ACCESS:          0 HIT:          0 MISS:          0
cpu1_DTLB RFO          ACCESS:          0 HIT:          0 MISS:          0
cpu1_DTLB PREFETCH     ACCESS:          0 HIT:          0 MISS:          0
cpu1_DTLB WRITE        ACCESS:          0 HIT:          0 MISS:          0
cpu1_DTLB TRANSLATION  ACCESS:          0 HIT:          0 MISS:          0
cpu1_DTLB PREFETCH REQUESTED:          0 ISSUED:          0 USEFUL:          0 USELESS:          0
cpu1_DTLB AVERAGE MISS LATENCY: 17.17 cycles
cpu1_ITLB TOTAL        ACCESS:          0 HIT:          0 MISS:          0
cpu1_ITLB LOAD         ACCESS:          0 HIT:          0 MISS:          0
cpu1_ITLB RFO          ACCESS:          0 HIT:          0 MISS:          0
cpu1_ITLB PREFETCH     ACCESS:          0 HIT:          0 MISS:          0
cpu1_ITLB WRITE        ACCESS:          0 HIT:          0 MISS:          0
cpu1_ITLB TRANSLATION  ACCESS:          0 HIT:          0 MISS:          0
cpu1_ITLB PREFETCH REQUESTED:          0 ISSUED:          0 USEFUL:          0 USELESS:          0
cpu1_ITLB AVERAGE MISS LATENCY: 125.1 cycles
cpu1_ITLB TOTAL        ACCESS:    4890116 HIT:    4883916 MISS:       6200
cpu1_ITLB LOAD         ACCESS:    4890116 HIT:    4883916 MISS:       6200
cpu1_ITLB RFO          ACCESS:          0 HIT:          0 MISS:          0
cpu1_ITLB PREFETCH     ACCESS:          0 HIT:          0 MISS:          0
cpu1_ITLB WRITE        ACCESS:          0 HIT:          0 MISS:          0
cpu1_ITLB TRANSLATION  ACCESS:          0 HIT:          0 MISS:          0
cpu1_ITLB PREFETCH REQUESTED:          0 ISSUED:          0 USEFUL:          0 USELESS:          0
cpu1_ITLB AVERAGE MISS LATENCY: 125.1 cycles
cpu1_ITLB TOTAL        ACCESS:          0 HIT:          0 MISS:          0
cpu1_ITLB LOAD         ACCESS:          0 HIT:          0 MISS:          0
cpu1_ITLB RFO          ACCESS:          0 HIT:          0 MISS:          0
cpu1_ITLB PREFETCH     ACCESS:          0 HIT:          0 MISS:          0
cpu1_ITLB WRITE        ACCESS:          0 HIT:          0 MISS:          0
cpu1_ITLB TRANSLATION  ACCESS:          0 HIT:          0 MISS:          0
cpu1_ITLB PREFETCH REQUESTED:          0 ISSUED:          0 USEFUL:          0 USELESS:          0
cpu1_ITLB AVERAGE MISS LATENCY: 125.1 cycles
cpu1_ITLB TOTAL        ACCESS:          0 HIT:          0 MISS:          0
cpu1_ITLB LOAD         ACCESS:          0 HIT:          0 MISS:          0
cpu1_ITLB RFO          ACCESS:          0 HIT:          0 MISS:          0
cpu1_ITLB PREFETCH     ACCESS:          0 HIT:          0 MISS:          0
cpu1_ITLB WRITE        ACCESS:          0 HIT:          0 MISS:          0
cpu1_ITLB TRANSLATION  ACCESS:          0 HIT:          0 MISS:          0
cpu1_ITLB PREFETCH REQUESTED:          0 ISSUED:          0 USEFUL:          0 USELESS:          0
cpu1_ITLB AVERAGE MISS LATENCY: 125.1 cycles
cpu1_L1D TOTAL        ACCESS:          0 HIT:          0 MISS:          0
cpu1_L1D LOAD         ACCESS:          0 HIT:          0 MISS:          0
cpu1_L1D RFO          ACCESS:          0 HIT:          0 MISS:          0
cpu1_L1D PREFETCH     ACCESS:          0 HIT:          0 MISS:          0
cpu1_L1D WRITE        ACCESS:          0 HIT:          0 MISS:          0
cpu1_L1D TRANSLATION  ACCESS:          0 HIT:          0 MISS:          0
cpu1_L1D PREFETCH REQUESTED:          0 ISSUED:          0 USEFUL:          0 USELESS:          0
cpu1_L1D AVERAGE MISS LATENCY: 764.7 cycles
cpu1_L1D TOTAL        ACCESS:   49092716 HIT:   40770626 MISS:    8322090
cpu1_L1D LOAD         ACCESS:   23595657 HIT:   22369817 MISS:    1225840
cpu1_L1D RFO          ACCESS:          0 HIT:          0 MISS:          0
cpu1_L1D PREFETCH     ACCESS:          0 HIT:          0 MISS:          0
cpu1_L1D WRITE        ACCESS:   25467727 HIT:   18378047 MISS:    7089680
cpu1_L1D TRANSLATION  ACCESS:      29332 HIT:      22762 MISS:       6570
cpu1_L1D PREFETCH REQUESTED:          0 ISSUED:          0 USEFUL:          0 USELESS:          0
cpu1_L1D AVERAGE MISS LATENCY: 764.7 cycles
cpu1_L1D TOTAL        ACCESS:          0 HIT:          0 MISS:          0
cpu1_L1D LOAD         ACCESS:          0 HIT:          0 MISS:          0
cpu1_L1D RFO          ACCESS:          0 HIT:          0 MISS:          0
cpu1_L1D PREFETCH     ACCESS:          0 HIT:          0 MISS:          0
cpu1_L1D WRITE        ACCESS:          0 HIT:          0 MISS:          0
cpu1_L1D TRANSLATION  ACCESS:          0 HIT:          0 MISS:          0
cpu1_L1D PREFETCH REQUESTED:          0 ISSUED:          0 USEFUL:          0 USELESS:          0
cpu1_L1D AVERAGE MISS LATENCY: 764.7 cycles
cpu1_L1D TOTAL        ACCESS:          0 HIT:          0 MISS:          0
cpu1_L1D LOAD         ACCESS:          0 HIT:          0 MISS:          0
cpu1_L1D RFO          ACCESS:          0 HIT:          0 MISS:          0
cpu1_L1D PREFETCH     ACCESS:          0 HIT:          0 MISS:          0
cpu1_L1D WRITE        ACCESS:          0 HIT:          0 MISS:          0
cpu1_L1D TRANSLATION  ACCESS:          0 HIT:          0 MISS:          0
cpu1_L1D PREFETCH REQUESTED:          0 ISSUED:          0 USEFUL:          0 USELESS:          0
cpu1_L1D AVERAGE MISS LATENCY: 764.7 cycles
cpu1_L1I TOTAL        ACCESS:          0 HIT:          0 MISS:          0
cpu1_L1I LOAD         ACCESS:          0 HIT:          0 MISS:          0
cpu1_L1I RFO          ACCESS:          0 HIT:          0 MISS:          0
cpu1_L1I PREFETCH     ACCESS:          0 HIT:          0 MISS:          0
cpu1_L1I WRITE        ACCESS:          0 HIT:          0 MISS:          0
cpu1_L1I TRANSLATION  ACCESS:          0 HIT:          0 MISS:          0
cpu1_L1I PREFETCH REQUESTED:          0 ISSUED:          0 USEFUL:          0 USELESS:          0
cpu1_L1I AVERAGE MISS LATENCY: 323.1 cycles
cpu1_L1I TOTAL        ACCESS:    6285811 HIT:    6140180 MISS:     145631
cpu1_L1I LOAD         ACCESS:    6285811 HIT:    6140180 MISS:     145631
cpu1_L1I RFO          ACCESS:          0 HIT:          0 MISS:          0
cpu1_L1I PREFETCH     ACCESS:          0 HIT:          0 MISS:          0
cpu1_L1I WRITE        ACCESS:          0 HIT:          0 MISS:          0
cpu1_L1I TRANSLATION  ACCESS:          0 HIT:          0 MISS:          0
cpu1_L1I PREFETCH REQUESTED:          0 ISSUED:          0 USEFUL:          0 USELESS:          0
cpu1_L1I AVERAGE MISS LATENCY: 323.1 cycles
cpu1_L1I TOTAL        ACCESS:          0 HIT:          0 MISS:          0
cpu1_L1I LOAD         ACCESS:          0 HIT:          0 MISS:          0
cpu1_L1I RFO          ACCESS:          0 HIT:          0 MISS:          0
cpu1_L1I PREFETCH     ACCESS:          0 HIT:          0 MISS:          0
cpu1_L1I WRITE        ACCESS:          0 HIT:          0 MISS:          0
cpu1_L1I TRANSLATION  ACCESS:          0 HIT:          0 MISS:          0
cpu1_L1I PREFETCH REQUESTED:          0 ISSUED:          0 USEFUL:          0 USELESS:          0
cpu1_L1I AVERAGE MISS LATENCY: 323.1 cycles
cpu1_L1I TOTAL        ACCESS:          0 HIT:          0 MISS:          0
cpu1_L1I LOAD         ACCESS:          0 HIT:          0 MISS:          0
cpu1_L1I RFO          ACCESS:          0 HIT:          0 MISS:          0
cpu1_L1I PREFETCH     ACCESS:          0 HIT:          0 MISS:          0
cpu1_L1I WRITE        ACCESS:          0 HIT:          0 MISS:          0
cpu1_L1I TRANSLATION  ACCESS:          0 HIT:          0 MISS:          0
cpu1_L1I PREFETCH REQUESTED:          0 ISSUED:          0 USEFUL:          0 USELESS:          0
cpu1_L1I AVERAGE MISS LATENCY: 323.1 cycles
cpu1_L2C TOTAL        ACCESS:          0 HIT:          0 MISS:          0
cpu1_L2C LOAD         ACCESS:          0 HIT:          0 MISS:          0
cpu1_L2C RFO          ACCESS:          0 HIT:          0 MISS:          0
cpu1_L2C PREFETCH     ACCESS:          0 HIT:          0 MISS:          0
cpu1_L2C WRITE        ACCESS:          0 HIT:          0 MISS:          0
cpu1_L2C TRANSLATION  ACCESS:          0 HIT:          0 MISS:          0
cpu1_L2C PREFETCH REQUESTED:    1105735 ISSUED:     884336 USEFUL:      29821 USELESS:       9759
cpu1_L2C AVERAGE MISS LATENCY: 3512 cycles
cpu1_L2C TOTAL        ACCESS:    5540354 HIT:    3703174 MISS:    1837180
cpu1_L2C LOAD         ACCESS:     935633 HIT:     774966 MISS:     160667
cpu1_L2C RFO          ACCESS:    1796571 HIT:     341639 MISS:    1454932
cpu1_L2C PREFETCH     ACCESS:     884336 HIT:     667529 MISS:     216807
cpu1_L2C WRITE        ACCESS:    1917295 HIT:    1917219 MISS:         76
cpu1_L2C TRANSLATION  ACCESS:       6519 HIT:       1821 MISS:       4698
cpu1_L2C PREFETCH REQUESTED:    1105735 ISSUED:     884336 USEFUL:      29821 USELESS:       9759
cpu1_L2C AVERAGE MISS LATENCY: 3512 cycles
cpu1_L2C TOTAL        ACCESS:          0 HIT:          0 MISS:          0
cpu1_L2C LOAD         ACCESS:          0 HIT:          0 MISS:          0
cpu1_L2C RFO          ACCESS:          0 HIT:          0 MISS:          0
cpu1_L2C PREFETCH     ACCESS:          0 HIT:          0 MISS:          0
cpu1_L2C WRITE        ACCESS:          0 HIT:          0 MISS:          0
cpu1_L2C TRANSLATION  ACCESS:          0 HIT:          0 MISS:          0
cpu1_L2C PREFETCH REQUESTED:    1105735 ISSUED:     884336 USEFUL:      29821 USELESS:       9759
cpu1_L2C AVERAGE MISS LATENCY: 3512 cycles
cpu1_L2C TOTAL        ACCESS:          0 HIT:          0 MISS:          0
cpu1_L2C LOAD         ACCESS:          0 HIT:          0 MISS:          0
cpu1_L2C RFO          ACCESS:          0 HIT:          0 MISS:          0
cpu1_L2C PREFETCH     ACCESS:          0 HIT:          0 MISS:          0
cpu1_L2C WRITE        ACCESS:          0 HIT:          0 MISS:          0
cpu1_L2C TRANSLATION  ACCESS:          0 HIT:          0 MISS:          0
cpu1_L2C PREFETCH REQUESTED:    1105735 ISSUED:     884336 USEFUL:      29821 USELESS:       9759
cpu1_L2C AVERAGE MISS LATENCY: 3512 cycles
cpu1_STLB TOTAL        ACCESS:          0 HIT:          0 MISS:          0
cpu1_STLB LOAD         ACCESS:          0 HIT:          0 MISS:          0
cpu1_STLB RFO          ACCESS:          0 HIT:          0 MISS:          0
cpu1_STLB PREFETCH     ACCESS:          0 HIT:          0 MISS:          0
cpu1_STLB WRITE        ACCESS:          0 HIT:          0 MISS:          0
cpu1_STLB TRANSLATION  ACCESS:          0 HIT:          0 MISS:          0
cpu1_STLB PREFETCH REQUESTED:          0 ISSUED:          0 USEFUL:          0 USELESS:          0
cpu1_STLB AVERAGE MISS LATENCY: 297.3 cycles
cpu1_STLB TOTAL        ACCESS:     165662 HIT:     136882 MISS:      28780
cpu1_STLB LOAD         ACCESS:     165662 HIT:     136882 MISS:      28780
cpu1_STLB RFO          ACCESS:          0 HIT:          0 MISS:          0
cpu1_STLB PREFETCH     ACCESS:          0 HIT:          0 MISS:          0
cpu1_STLB WRITE        ACCESS:          0 HIT:          0 MISS:          0
cpu1_STLB TRANSLATION  ACCESS:          0 HIT:          0 MISS:          0
cpu1_STLB PREFETCH REQUESTED:          0 ISSUED:          0 USEFUL:          0 USELESS:          0
cpu1_STLB AVERAGE MISS LATENCY: 297.3 cycles
cpu1_STLB TOTAL        ACCESS:          0 HIT:          0 MISS:          0
cpu1_STLB LOAD         ACCESS:          0 HIT:          0 MISS:          0
cpu1_STLB RFO          ACCESS:          0 HIT:          0 MISS:          0
cpu1_STLB PREFETCH     ACCESS:          0 HIT:          0 MISS:          0
cpu1_STLB WRITE        ACCESS:          0 HIT:          0 MISS:          0
cpu1_STLB TRANSLATION  ACCESS:          0 HIT:          0 MISS:          0
cpu1_STLB PREFETCH REQUESTED:          0 ISSUED:          0 USEFUL:          0 USELESS:          0
cpu1_STLB AVERAGE MISS LATENCY: 297.3 cycles
cpu1_STLB TOTAL        ACCESS:          0 HIT:          0 MISS:          0
cpu1_STLB LOAD         ACCESS:          0 HIT:          0 MISS:          0
cpu1_STLB RFO          ACCESS:          0 HIT:          0 MISS:          0
cpu1_STLB PREFETCH     ACCESS:          0 HIT:          0 MISS:          0
cpu1_STLB WRITE        ACCESS:          0 HIT:          0 MISS:          0
cpu1_STLB TRANSLATION  ACCESS:          0 HIT:          0 MISS:          0
cpu1_STLB PREFETCH REQUESTED:          0 ISSUED:          0 USEFUL:          0 USELESS:          0
cpu1_STLB AVERAGE MISS LATENCY: 297.3 cycles
cpu2_DTLB TOTAL        ACCESS:          0 HIT:          0 MISS:          0
cpu2_DTLB LOAD         ACCESS:          0 HIT:          0 MISS:          0
cpu2_DTLB RFO          ACCESS:          0 HIT:          0 MISS:          0
cpu2_DTLB PREFETCH     ACCESS:          0 HIT:          0 MISS:          0
cpu2_DTLB WRITE        ACCESS:          0 HIT:          0 MISS:          0
cpu2_DTLB TRANSLATION  ACCESS:          0 HIT:          0 MISS:          0
cpu2_DTLB PREFETCH REQUESTED:          0 ISSUED:          0 USEFUL:          0 USELESS:          0
cpu2_DTLB AVERAGE MISS LATENCY: 40.53 cycles
cpu2_DTLB TOTAL        ACCESS:          0 HIT:          0 MISS:          0
cpu2_DTLB LOAD         ACCESS:          0 HIT:          0 MISS:          0
cpu2_DTLB RFO          ACCESS:          0 HIT:          0 MISS:          0
cpu2_DTLB PREFETCH     ACCESS:          0 HIT:          0 MISS:          0
cpu2_DTLB WRITE        ACCESS:          0 HIT:          0 MISS:          0
cpu2_DTLB TRANSLATION  ACCESS:          0 HIT:          0 MISS:          0
cpu2_DTLB PREFETCH REQUESTED:          0 ISSUED:          0 USEFUL:          0 USELESS:          0
cpu2_DTLB AVERAGE MISS LATENCY: 40.53 cycles
cpu2_DTLB TOTAL        ACCESS:   41333774 HIT:   40983027 MISS:     350747
cpu2_DTLB LOAD         ACCESS:   41333774 HIT:   40983027 MISS:     350747
cpu2_DTLB RFO          ACCESS:          0 HIT:          0 MISS:          0
cpu2_DTLB PREFETCH     ACCESS:          0 HIT:          0 MISS:          0
cpu2_DTLB WRITE        ACCESS:          0 HIT:          0 MISS:          0
cpu2_DTLB TRANSLATION  ACCESS:          0 HIT:          0 MISS:          0
cpu2_DTLB PREFETCH REQUESTED:          0 ISSUED:          0 USEFUL:          0 USELESS:          0
cpu2_DTLB AVERAGE MISS LATENCY: 40.53 cycles
cpu2_DTLB TOTAL        ACCESS:          0 HIT:          0 MISS:          0
cpu2_DTLB LOAD         ACCESS:          0 HIT:          0 MISS:          0
cpu2_DTLB RFO          ACCESS:          0 HIT:          0 MISS:          0
cpu2_DTLB PREFETCH     ACCESS:          0 HIT:          0 MISS:          0
cpu2_DTLB WRITE        ACCESS:          0 HIT:          0 MISS:          0
cpu2_DTLB TRANSLATION  ACCESS:          0 HIT:          0 MISS:          0
cpu2_DTLB PREFETCH REQUESTED:          0 ISSUED:          0 USEFUL:          0 USELESS:          0
cpu2_DTLB AVERAGE MISS LATENCY: 40.53 cycles
cpu2_ITLB TOTAL        ACCESS:          0 HIT:          0 MISS:          0
cpu2_ITLB LOAD         ACCESS:          0 HIT:          0 MISS:          0
cpu2_ITLB RFO          ACCESS:          0 HIT:          0 MISS:          0
cpu2_ITLB PREFETCH     ACCESS:          0 HIT:          0 MISS:          0
cpu2_ITLB WRITE        ACCESS:          0 HIT:          0 MISS:          0
cpu2_ITLB TRANSLATION  ACCESS:          0 HIT:          0 MISS:          0
cpu2_ITLB PREFETCH REQUESTED:          0 ISSUED:          0 USEFUL:          0 USELESS:          0
cpu2_ITLB AVERAGE MISS LATENCY: 36.5 cycles
cpu2_ITLB TOTAL        ACCESS:          0 HIT:          0 MISS:          0
cpu2_ITLB LOAD         ACCESS:          0 HIT:          0 MISS:          0
cpu2_ITLB RFO          ACCESS:          0 HIT:          0 MISS:          0
cpu2_ITLB PREFETCH     ACCESS:          0 HIT:          0 MISS:          0
cpu2_ITLB WRITE        ACCESS:          0 HIT:          0 MISS:          0
cpu2_ITLB TRANSLATION  ACCESS:          0 HIT:          0 MISS:          0
cpu2_ITLB PREFETCH REQUESTED:          0 ISSUED:          0 USEFUL:          0 USELESS:          0
cpu2_ITLB AVERAGE MISS LATENCY: 36.5 cycles
cpu2_ITLB TOTAL        ACCESS:     576403 HIT:     564527 MISS:      11876
cpu2_ITLB LOAD         ACCESS:     576403 HIT:     564527 MISS:      11876
cpu2_ITLB RFO          ACCESS:          0 HIT:          0 MISS:          0
cpu2_ITLB PREFETCH     ACCESS:          0 HIT:          0 MISS:          0
cpu2_ITLB WRITE        ACCESS:          0 HIT:          0 MISS:          0
cpu2_ITLB TRANSLATION  ACCESS:          0 HIT:          0 MISS:          0
cpu2_ITLB PREFETCH REQUESTED:          0 ISSUED:          0 USEFUL:          0 USELESS:          0
cpu2_ITLB AVERAGE MISS LATENCY: 36.5 cycles
cpu2_ITLB TOTAL        ACCESS:          0 HIT:          0 MISS:          0
cpu2_ITLB LOAD         ACCESS:          0 HIT:          0 MISS:          0
cpu2_ITLB RFO          ACCESS:          0 HIT:          0 MISS:          0
cpu2_ITLB PREFETCH     ACCESS:          0 HIT:          0 MISS:          0
cpu2_ITLB WRITE        ACCESS:          0 HIT:          0 MISS:          0
cpu2_ITLB TRANSLATION  ACCESS:          0 HIT:          0 MISS:          0
cpu2_ITLB PREFETCH REQUESTED:          0 ISSUED:          0 USEFUL:          0 USELESS:          0
cpu2_ITLB AVERAGE MISS LATENCY: 36.5 cycles
cpu2_L1D TOTAL        ACCESS:          0 HIT:          0 MISS:          0
cpu2_L1D LOAD         ACCESS:          0 HIT:          0 MISS:          0
cpu2_L1D RFO          ACCESS:          0 HIT:          0 MISS:          0
cpu2_L1D PREFETCH     ACCESS:          0 HIT:          0 MISS:          0
cpu2_L1D WRITE        ACCESS:          0 HIT:          0 MISS:          0
cpu2_L1D TRANSLATION  ACCESS:          0 HIT:          0 MISS:          0
cpu2_L1D PREFETCH REQUESTED:          0 ISSUED:          0 USEFUL:          0 USELESS:          0
cpu2_L1D AVERAGE MISS LATENCY: 218.9 cycles
cpu2_L1D TOTAL        ACCESS:          0 HIT:          0 MISS:          0
cpu2_L1D LOAD         ACCESS:          0 HIT:          0 MISS:          0
cpu2_L1D RFO          ACCESS:          0 HIT:          0 MISS:          0
cpu2_L1D PREFETCH     ACCESS:          0 HIT:          0 MISS:          0
cpu2_L1D WRITE        ACCESS:          0 HIT:          0 MISS:          0
cpu2_L1D TRANSLATION  ACCESS:          0 HIT:          0 MISS:          0
cpu2_L1D PREFETCH REQUESTED:          0 ISSUED:          0 USEFUL:          0 USELESS:          0
cpu2_L1D AVERAGE MISS LATENCY: 218.9 cycles
cpu2_L1D TOTAL        ACCESS:   50994862 HIT:   40701834 MISS:   10293028
cpu2_L1D LOAD         ACCESS:   31104043 HIT:   26875384 MISS:    4228659
cpu2_L1D RFO          ACCESS:          0 HIT:          0 MISS:          0
cpu2_L1D PREFETCH     ACCESS:          0 HIT:          0 MISS:          0
cpu2_L1D WRITE        ACCESS:   19873955 HIT:   13821960 MISS:    6051995
cpu2_L1D TRANSLATION  ACCESS:      16864 HIT:       4490 MISS:      12374
cpu2_L1D PREFETCH REQUESTED:          0 ISSUED:          0 USEFUL:          0 USELESS:          0
cpu2_L1D AVERAGE MISS LATENCY: 218.9 cycles
cpu2_L1D TOTAL        ACCESS:          0 HIT:          0 MISS:          0
cpu2_L1D LOAD         ACCESS:          0 HIT:          0 MISS:          0
cpu2_L1D RFO          ACCESS:          0 HIT:          0 MISS:          0
cpu2_L1D PREFETCH     ACCESS:          0 HIT:          0 MISS:          0
cpu2_L1D WRITE        ACCESS:          0 HIT:          0 MISS:          0
cpu2_L1D TRANSLATION  ACCESS:          0 HIT:          0 MISS:          0
cpu2_L1D PREFETCH REQUESTED:          0 ISSUED:          0 USEFUL:          0 USELESS:          0
cpu2_L1D AVERAGE MISS LATENCY: 218.9 cycles
cpu2_L1I TOTAL        ACCESS:          0 HIT:          0 MISS:          0
cpu2_L1I LOAD         ACCESS:          0 HIT:          0 MISS:          0
cpu2_L1I RFO          ACCESS:          0 HIT:          0 MISS:          0
cpu2_L1I PREFETCH     ACCESS:          0 HIT:          0 MISS:          0
cpu2_L1I WRITE        ACCESS:          0 HIT:          0 MISS:          0
cpu2_L1I TRANSLATION  ACCESS:          0 HIT:          0 MISS:          0
cpu2_L1I PREFETCH REQUESTED:          0 ISSUED:          0 USEFUL:          0 USELESS:          0
cpu2_L1I AVERAGE MISS LATENCY: 115 cycles
cpu2_L1I TOTAL        ACCESS:          0 HIT:          0 MISS:          0
cpu2_L1I LOAD         ACCESS:          0 HIT:          0 MISS:          0
cpu2_L1I RFO          ACCESS:          0 HIT:          0 MISS:          0
cpu2_L1I PREFETCH     ACCESS:          0 HIT:          0 MISS:          0
cpu2_L1I WRITE        ACCESS:          0 HIT:          0 MISS:          0
cpu2_L1I TRANSLATION  ACCESS:          0 HIT:          0 MISS:          0
cpu2_L1I PREFETCH REQUESTED:          0 ISSUED:          0 USEFUL:          0 USELESS:          0
cpu2_L1I AVERAGE MISS LATENCY: 115 cycles
cpu2_L1I TOTAL        ACCESS:     708455 HIT:     504723 MISS:     203732
cpu2_L1I LOAD         ACCESS:     708455 HIT:     504723 MISS:     203732
cpu2_L1I RFO          ACCESS:          0 HIT:          0 MISS:          0
cpu2_L1I PREFETCH     ACCESS:          0 HIT:          0 MISS:          0
cpu2_L1I WRITE        ACCESS:          0 HIT:          0 MISS:          0
cpu2_L1I TRANSLATION  ACCESS:          0 HIT:          0 MISS:          0
cpu2_L1I PREFETCH REQUESTED:          0 ISSUED:          0 USEFUL:          0 USELESS:          0
cpu2_L1I AVERAGE MISS LATENCY: 115 cycles
cpu2_L1I TOTAL        ACCESS:          0 HIT:          0 MISS:          0
cpu2_L1I LOAD         ACCESS:          0 HIT:          0 MISS:          0
cpu2_L1I RFO          ACCESS:          0 HIT:          0 MISS:          0
cpu2_L1I PREFETCH     ACCESS:          0 HIT:          0 MISS:          0
cpu2_L1I WRITE        ACCESS:          0 HIT:          0 MISS:          0
cpu2_L1I TRANSLATION  ACCESS:          0 HIT:          0 MISS:          0
cpu2_L1I PREFETCH REQUESTED:          0 ISSUED:          0 USEFUL:          0 USELESS:          0
cpu2_L1I AVERAGE MISS LATENCY: 115 cycles
cpu2_L2C TOTAL        ACCESS:          0 HIT:          0 MISS:          0
cpu2_L2C LOAD         ACCESS:          0 HIT:          0 MISS:          0
cpu2_L2C RFO          ACCESS:          0 HIT:          0 MISS:          0
cpu2_L2C PREFETCH     ACCESS:          0 HIT:          0 MISS:          0
cpu2_L2C WRITE        ACCESS:          0 HIT:          0 MISS:          0
cpu2_L2C TRANSLATION  ACCESS:          0 HIT:          0 MISS:          0
cpu2_L2C PREFETCH REQUESTED:    8176935 ISSUED:    7063908 USEFUL:     612246 USELESS:     154491
cpu2_L2C AVERAGE MISS LATENCY: 802.8 cycles
cpu2_L2C TOTAL        ACCESS:          0 HIT:          0 MISS:          0
cpu2_L2C LOAD         ACCESS:          0 HIT:          0 MISS:          0
cpu2_L2C RFO          ACCESS:          0 HIT:          0 MISS:          0
cpu2_L2C PREFETCH     ACCESS:          0 HIT:          0 MISS:          0
cpu2_L2C WRITE        ACCESS:          0 HIT:          0 MISS:          0
cpu2_L2C TRANSLATION  ACCESS:          0 HIT:          0 MISS:          0
cpu2_L2C PREFETCH REQUESTED:    8176935 ISSUED:    7063908 USEFUL:     612246 USELESS:     154491
cpu2_L2C AVERAGE MISS LATENCY: 802.8 cycles
cpu2_L2C TOTAL        ACCESS:   13248367 HIT:    9297177 MISS:    3951190
cpu2_L2C LOAD         ACCESS:    2743825 HIT:    2052150 MISS:     691675
cpu2_L2C RFO          ACCESS:    1484403 HIT:     817021 MISS:     667382
cpu2_L2C PREFETCH     ACCESS:    7063914 HIT:    4480532 MISS:    2583382
cpu2_L2C WRITE        ACCESS:    1944045 HIT:    1942984 MISS:       1061
cpu2_L2C TRANSLATION  ACCESS:      12180 HIT:       4490 MISS:       7690
cpu2_L2C PREFETCH REQUESTED:    8176935 ISSUED:    7063908 USEFUL:     612246 USELESS:     154491
cpu2_L2C AVERAGE MISS LATENCY: 802.8 cycles
cpu2_L2C TOTAL        ACCESS:          0 HIT:          0 MISS:          0
cpu2_L2C LOAD         ACCESS:          0 HIT:          0 MISS:          0
cpu2_L2C RFO          ACCESS:          0 HIT:          0 MISS:          0
cpu2_L2C PREFETCH     ACCESS:          0 HIT:          0 MISS:          0
cpu2_L2C WRITE        ACCESS:          0 HIT:          0 MISS:          0
cpu2_L2C TRANSLATION  ACCESS:          0 HIT:          0 MISS:          0
cpu2_L2C PREFETCH REQUESTED:    8176935 ISSUED:    7063908 USEFUL:     612246 USELESS:     154491
cpu2_L2C AVERAGE MISS LATENCY: 802.8 cycles
cpu2_STLB TOTAL        ACCESS:          0 HIT:          0 MISS:          0
cpu2_STLB LOAD         ACCESS:          0 HIT:          0 MISS:          0
cpu2_STLB RFO          ACCESS:          0 HIT:          0 MISS:          0
cpu2_STLB PREFETCH     ACCESS:          0 HIT:          0 MISS:          0
cpu2_STLB WRITE        ACCESS:          0 HIT:          0 MISS:          0
cpu2_STLB TRANSLATION  ACCESS:          0 HIT:          0 MISS:          0
cpu2_STLB PREFETCH REQUESTED:          0 ISSUED:          0 USEFUL:          0 USELESS:          0
cpu2_STLB AVERAGE MISS LATENCY: 1179 cycles
cpu2_STLB TOTAL        ACCESS:          0 HIT:          0 MISS:          0
cpu2_STLB LOAD         ACCESS:          0 HIT:          0 MISS:          0
cpu2_STLB RFO          ACCESS:          0 HIT:          0 MISS:          0
cpu2_STLB PREFETCH     ACCESS:          0 HIT:          0 MISS:          0
cpu2_STLB WRITE        ACCESS:          0 HIT:          0 MISS:          0
cpu2_STLB TRANSLATION  ACCESS:          0 HIT:          0 MISS:          0
cpu2_STLB PREFETCH REQUESTED:          0 ISSUED:          0 USEFUL:          0 USELESS:          0
cpu2_STLB AVERAGE MISS LATENCY: 1179 cycles
cpu2_STLB TOTAL        ACCESS:     130147 HIT:     115444 MISS:      14703
cpu2_STLB LOAD         ACCESS:     130147 HIT:     115444 MISS:      14703
cpu2_STLB RFO          ACCESS:          0 HIT:          0 MISS:          0
cpu2_STLB PREFETCH     ACCESS:          0 HIT:          0 MISS:          0
cpu2_STLB WRITE        ACCESS:          0 HIT:          0 MISS:          0
cpu2_STLB TRANSLATION  ACCESS:          0 HIT:          0 MISS:          0
cpu2_STLB PREFETCH REQUESTED:          0 ISSUED:          0 USEFUL:          0 USELESS:          0
cpu2_STLB AVERAGE MISS LATENCY: 1179 cycles
cpu2_STLB TOTAL        ACCESS:          0 HIT:          0 MISS:          0
cpu2_STLB LOAD         ACCESS:          0 HIT:          0 MISS:          0
cpu2_STLB RFO          ACCESS:          0 HIT:          0 MISS:          0
cpu2_STLB PREFETCH     ACCESS:          0 HIT:          0 MISS:          0
cpu2_STLB WRITE        ACCESS:          0 HIT:          0 MISS:          0
cpu2_STLB TRANSLATION  ACCESS:          0 HIT:          0 MISS:          0
cpu2_STLB PREFETCH REQUESTED:          0 ISSUED:          0 USEFUL:          0 USELESS:          0
cpu2_STLB AVERAGE MISS LATENCY: 1179 cycles
cpu3_DTLB TOTAL        ACCESS:          0 HIT:          0 MISS:          0
cpu3_DTLB LOAD         ACCESS:          0 HIT:          0 MISS:          0
cpu3_DTLB RFO          ACCESS:          0 HIT:          0 MISS:          0
cpu3_DTLB PREFETCH     ACCESS:          0 HIT:          0 MISS:          0
cpu3_DTLB WRITE        ACCESS:          0 HIT:          0 MISS:          0
cpu3_DTLB TRANSLATION  ACCESS:          0 HIT:          0 MISS:          0
cpu3_DTLB PREFETCH REQUESTED:          0 ISSUED:          0 USEFUL:          0 USELESS:          0
cpu3_DTLB AVERAGE MISS LATENCY: 11.04 cycles
cpu3_DTLB TOTAL        ACCESS:          0 HIT:          0 MISS:          0
cpu3_DTLB LOAD         ACCESS:          0 HIT:          0 MISS:          0
cpu3_DTLB RFO          ACCESS:          0 HIT:          0 MISS:          0
cpu3_DTLB PREFETCH     ACCESS:          0 HIT:          0 MISS:          0
cpu3_DTLB WRITE        ACCESS:          0 HIT:          0 MISS:          0
cpu3_DTLB TRANSLATION  ACCESS:          0 HIT:          0 MISS:          0
cpu3_DTLB PREFETCH REQUESTED:          0 ISSUED:          0 USEFUL:          0 USELESS:          0
cpu3_DTLB AVERAGE MISS LATENCY: 11.04 cycles
cpu3_DTLB TOTAL        ACCESS:          0 HIT:          0 MISS:          0
cpu3_DTLB LOAD         ACCESS:          0 HIT:          0 MISS:          0
cpu3_DTLB RFO          ACCESS:          0 HIT:          0 MISS:          0
cpu3_DTLB PREFETCH     ACCESS:          0 HIT:          0 MISS:          0
cpu3_DTLB WRITE        ACCESS:          0 HIT:          0 MISS:          0
cpu3_DTLB TRANSLATION  ACCESS:          0 HIT:          0 MISS:          0
cpu3_DTLB PREFETCH REQUESTED:          0 ISSUED:          0 USEFUL:          0 USELESS:          0
cpu3_DTLB AVERAGE MISS LATENCY: 11.04 cycles
cpu3_DTLB TOTAL        ACCESS:   78334860 HIT:   77540694 MISS:     794166
cpu3_DTLB LOAD         ACCESS:   78334860 HIT:   77540694 MISS:     794166
cpu3_DTLB RFO          ACCESS:          0 HIT:          0 MISS:          0
cpu3_DTLB PREFETCH     ACCESS:          0 HIT:          0 MISS:          0
cpu3_DTLB WRITE        ACCESS:          0 HIT:          0 MISS:          0
cpu3_DTLB TRANSLATION  ACCESS:          0 HIT:          0 MISS:          0
cpu3_DTLB PREFETCH REQUESTED:          0 ISSUED:          0 USEFUL:          0 USELESS:          0
cpu3_DTLB AVERAGE MISS LATENCY: 11.04 cycles
cpu3_ITLB TOTAL        ACCESS:          0 HIT:          0 MISS:          0
cpu3_ITLB LOAD         ACCESS:          0 HIT:          0 MISS:          0
cpu3_ITLB RFO          ACCESS:          0 HIT:          0 MISS:          0
cpu3_ITLB PREFETCH     ACCESS:          0 HIT:          0 MISS:          0
cpu3_ITLB WRITE        ACCESS:          0 HIT:          0 MISS:          0
cpu3_ITLB TRANSLATION  ACCESS:          0 HIT:          0 MISS:          0
cpu3_ITLB PREFETCH REQUESTED:          0 ISSUED:          0 USEFUL:          0 USELESS:          0
cpu3_ITLB AVERAGE MISS LATENCY: 900 cycles
cpu3_ITLB TOTAL        ACCESS:          0 HIT:          0 MISS:          0
cpu3_ITLB LOAD         ACCESS:          0 HIT:          0 MISS:          0
cpu3_ITLB RFO          ACCESS:          0 HIT:          0 MISS:          0
cpu3_ITLB PREFETCH     ACCESS:          0 HIT:          0 MISS:          0
cpu3_ITLB WRITE        ACCESS:          0 HIT:          0 MISS:          0
cpu3_ITLB TRANSLATION  ACCESS:          0 HIT:          0 MISS:          0
cpu3_ITLB PREFETCH REQUESTED:          0 ISSUED:          0 USEFUL:          0 USELESS:          0
cpu3_ITLB AVERAGE MISS LATENCY: 900 cycles
cpu3_ITLB TOTAL        ACCESS:          0 HIT:          0 MISS:          0
cpu3_ITLB LOAD         ACCESS:          0 HIT:          0 MISS:          0
cpu3_ITLB RFO          ACCESS:          0 HIT:          0 MISS:          0
cpu3_ITLB PREFETCH     ACCESS:          0 HIT:          0 MISS:          0
cpu3_ITLB WRITE        ACCESS:          0 HIT:          0 MISS:          0
cpu3_ITLB TRANSLATION  ACCESS:          0 HIT:          0 MISS:          0
cpu3_ITLB PREFETCH REQUESTED:          0 ISSUED:          0 USEFUL:          0 USELESS:          0
cpu3_ITLB AVERAGE MISS LATENCY: 900 cycles
cpu3_ITLB TOTAL        ACCESS:    5120937 HIT:    5120712 MISS:        225
cpu3_ITLB LOAD         ACCESS:    5120937 HIT:    5120712 MISS:        225
cpu3_ITLB RFO          ACCESS:          0 HIT:          0 MISS:          0
cpu3_ITLB PREFETCH     ACCESS:          0 HIT:          0 MISS:          0
cpu3_ITLB WRITE        ACCESS:          0 HIT:          0 MISS:          0
cpu3_ITLB TRANSLATION  ACCESS:          0 HIT:          0 MISS:          0
cpu3_ITLB PREFETCH REQUESTED:          0 ISSUED:          0 USEFUL:          0 USELESS:          0
cpu3_ITLB AVERAGE MISS LATENCY: 900 cycles
cpu3_L1D TOTAL        ACCESS:          0 HIT:          0 MISS:          0
cpu3_L1D LOAD         ACCESS:          0 HIT:          0 MISS:          0
cpu3_L1D RFO          ACCESS:          0 HIT:          0 MISS:          0
cpu3_L1D PREFETCH     ACCESS:          0 HIT:          0 MISS:          0
cpu3_L1D WRITE        ACCESS:          0 HIT:          0 MISS:          0
cpu3_L1D TRANSLATION  ACCESS:          0 HIT:          0 MISS:          0
cpu3_L1D PREFETCH REQUESTED:          0 ISSUED:          0 USEFUL:          0 USELESS:          0
cpu3_L1D AVERAGE MISS LATENCY: 246.9 cycles
cpu3_L1D TOTAL        ACCESS:          0 HIT:          0 MISS:          0
cpu3_L1D LOAD         ACCESS:          0 HIT:          0 MISS:          0
cpu3_L1D RFO          ACCESS:          0 HIT:          0 MISS:          0
cpu3_L1D PREFETCH     ACCESS:          0 HIT:          0 MISS:          0
cpu3_L1D WRITE        ACCESS:          0 HIT:          0 MISS:          0
cpu3_L1D TRANSLATION  ACCESS:          0 HIT:          0 MISS:          0
cpu3_L1D PREFETCH REQUESTED:          0 ISSUED:          0 USEFUL:          0 USELESS:          0
cpu3_L1D AVERAGE MISS LATENCY: 246.9 cycles
cpu3_L1D TOTAL        ACCESS:          0 HIT:          0 MISS:          0
cpu3_L1D LOAD         ACCESS:          0 HIT:          0 MISS:          0
cpu3_L1D RFO          ACCESS:          0 HIT:          0 MISS:          0
cpu3_L1D PREFETCH     ACCESS:          0 HIT:          0 MISS:          0
cpu3_L1D WRITE        ACCESS:          0 HIT:          0 MISS:          0
cpu3_L1D TRANSLATION  ACCESS:          0 HIT:          0 MISS:          0
cpu3_L1D PREFETCH REQUESTED:          0 ISSUED:          0 USEFUL:          0 USELESS:          0
cpu3_L1D AVERAGE MISS LATENCY: 246.9 cycles
cpu3_L1D TOTAL        ACCESS:   99349149 HIT:   93528481 MISS:    5820668
cpu3_L1D LOAD         ACCESS:   59008439 HIT:   56973474 MISS:    2034965
cpu3_L1D RFO          ACCESS:          0 HIT:          0 MISS:          0
cpu3_L1D PREFETCH     ACCESS:          0 HIT:          0 MISS:          0
cpu3_L1D WRITE        ACCESS:   40333471 HIT:   36552683 MISS:    3780788
cpu3_L1D TRANSLATION  ACCESS:       7239 HIT:       2324 MISS:       4915
cpu3_L1D PREFETCH REQUESTED:          0 ISSUED:          0 USEFUL:          0 USELESS:          0
cpu3_L1D AVERAGE MISS LATENCY: 246.9 cycles
cpu3_L1I TOTAL        ACCESS:          0 HIT:          0 MISS:          0
cpu3_L1I LOAD         ACCESS:          0 HIT:          0 MISS:          0
cpu3_L1I RFO          ACCESS:          0 HIT:          0 MISS:          0
cpu3_L1I PREFETCH     ACCESS:          0 HIT:          0 MISS:          0
cpu3_L1I WRITE        ACCESS:          0 HIT:          0 MISS:          0
cpu3_L1I TRANSLATION  ACCESS:          0 HIT:          0 MISS:          0
cpu3_L1I PREFETCH REQUESTED:          0 ISSUED:          0 USEFUL:          0 USELESS:          0
cpu3_L1I AVERAGE MISS LATENCY: 25.62 cycles
cpu3_L1I TOTAL        ACCESS:          0 HIT:          0 MISS:          0
cpu3_L1I LOAD         ACCESS:          0 HIT:          0 MISS:          0
cpu3_L1I RFO          ACCESS:          0 HIT:          0 MISS:          0
cpu3_L1I PREFETCH     ACCESS:          0 HIT:          0 MISS:          0
cpu3_L1I WRITE        ACCESS:          0 HIT:          0 MISS:          0
cpu3_L1I TRANSLATION  ACCESS:          0 HIT:          0 MISS:          0
cpu3_L1I PREFETCH REQUESTED:          0 ISSUED:          0 USEFUL:          0 USELESS:          0
cpu3_L1I AVERAGE MISS LATENCY: 25.62 cycles
cpu3_L1I TOTAL        ACCESS:          0 HIT:          0 MISS:          0
cpu3_L1I LOAD         ACCESS:          0 HIT:          0 MISS:          0
cpu3_L1I RFO          ACCESS:          0 HIT:          0 MISS:          0
cpu3_L1I PREFETCH     ACCESS:          0 HIT:          0 MISS:          0
cpu3_L1I WRITE        ACCESS:          0 HIT:          0 MISS:          0
cpu3_L1I TRANSLATION  ACCESS:          0 HIT:          0 MISS:          0
cpu3_L1I PREFETCH REQUESTED:          0 ISSUED:          0 USEFUL:          0 USELESS:          0
cpu3_L1I AVERAGE MISS LATENCY: 25.62 cycles
cpu3_L1I TOTAL        ACCESS:    6330454 HIT:    5370629 MISS:     959825
cpu3_L1I LOAD         ACCESS:    6330454 HIT:    5370629 MISS:     959825
cpu3_L1I RFO          ACCESS:          0 HIT:          0 MISS:          0
cpu3_L1I PREFETCH     ACCESS:          0 HIT:          0 MISS:          0
cpu3_L1I WRITE        ACCESS:          0 HIT:          0 MISS:          0
cpu3_L1I TRANSLATION  ACCESS:          0 HIT:          0 MISS:          0
cpu3_L1I PREFETCH REQUESTED:          0 ISSUED:          0 USEFUL:          0 USELESS:          0
cpu3_L1I AVERAGE MISS LATENCY: 25.62 cycles
cpu3_L2C TOTAL        ACCESS:          0 HIT:          0 MISS:          0
cpu3_L2C LOAD         ACCESS:          0 HIT:          0 MISS:          0
cpu3_L2C RFO          ACCESS:          0 HIT:          0 MISS:          0
cpu3_L2C PREFETCH     ACCESS:          0 HIT:          0 MISS:          0
cpu3_L2C WRITE        ACCESS:          0 HIT:          0 MISS:          0
cpu3_L2C TRANSLATION  ACCESS:          0 HIT:          0 MISS:          0
cpu3_L2C PREFETCH REQUESTED:    2802044 ISSUED:    2395428 USEFUL:     103090 USELESS:      19203
cpu3_L2C AVERAGE MISS LATENCY: 1642 cycles
cpu3_L2C TOTAL        ACCESS:          0 HIT:          0 MISS:          0
cpu3_L2C LOAD         ACCESS:          0 HIT:          0 MISS:          0
cpu3_L2C RFO          ACCESS:          0 HIT:          0 MISS:          0
[...]
cpu2_L2C RFO          ACCESS:          0 HIT:          0 MISS:          0
cpu2_L2C PREFETCH     ACCESS:          0 HIT:          0 MISS:          0
cpu2_L2C WRITE        ACCESS:          0 HIT:          0 MISS:          0
cpu2_L2C TRANSLATION  ACCESS:          0 HIT:          0 MISS:          0
cpu2_L2C PREFETCH REQUESTED:    8176935 ISSUED:    7063908 USEFUL:     612246 USELESS:     154491
cpu2_L2C AVERAGE MISS LATENCY: 802.8 cycles
cpu2_L2C TOTAL        ACCESS:          0 HIT:          0 MISS:          0
cpu2_L2C LOAD         ACCESS:          0 HIT:          0 MISS:          0
cpu2_L2C RFO          ACCESS:          0 HIT:          0 MISS:          0
cpu2_L2C PREFETCH     ACCESS:          0 HIT:          0 MISS:          0
cpu2_L2C WRITE        ACCESS:          0 HIT:          0 MISS:          0
cpu2_L2C TRANSLATION  ACCESS:          0 HIT:          0 MISS:          0
cpu2_L2C PREFETCH REQUESTED:    8176935 ISSUED:    7063908 USEFUL:     612246 USELESS:     154491
cpu2_L2C AVERAGE MISS LATENCY: 802.8 cycles
cpu2_L2C TOTAL        ACCESS:    6412197 HIT:    4510216 MISS:    1901981
cpu2_L2C LOAD         ACCESS:    1327884 HIT:     999170 MISS:     328714
cpu2_L2C RFO          ACCESS:     718576 HIT:     398430 MISS:     320146
cpu2_L2C PREFETCH     ACCESS:    3416879 HIT:    2168049 MISS:    1248830
cpu2_L2C WRITE        ACCESS:     942910 HIT:     942392 MISS:        518
cpu2_L2C TRANSLATION  ACCESS:       5948 HIT:       2175 MISS:       3773
cpu2_L2C PREFETCH REQUESTED:    8176935 ISSUED:    7063908 USEFUL:     612246 USELESS:     154491
cpu2_L2C AVERAGE MISS LATENCY: 802.8 cycles
cpu2_L2C TOTAL        ACCESS:          0 HIT:          0 MISS:          0
cpu2_L2C LOAD         ACCESS:          0 HIT:          0 MISS:          0
cpu2_L2C RFO          ACCESS:          0 HIT:          0 MISS:          0
cpu2_L2C PREFETCH     ACCESS:          0 HIT:          0 MISS:          0
cpu2_L2C WRITE        ACCESS:          0 HIT:          0 MISS:          0
cpu2_L2C TRANSLATION  ACCESS:          0 HIT:          0 MISS:          0
cpu2_L2C PREFETCH REQUESTED:    8176935 ISSUED:    7063908 USEFUL:     612246 USELESS:     154491
cpu2_L2C AVERAGE MISS LATENCY: 802.8 cycles
cpu2_STLB TOTAL        ACCESS:          0 HIT:          0 MISS:          0
cpu2_STLB LOAD         ACCESS:          0 HIT:          0 MISS:          0
cpu2_STLB RFO          ACCESS:          0 HIT:          0 MISS:          0
cpu2_STLB PREFETCH     ACCESS:          0 HIT:          0 MISS:          0
cpu2_STLB WRITE        ACCESS:          0 HIT:          0 MISS:          0
cpu2_STLB TRANSLATION  ACCESS:          0 HIT:          0 MISS:          0
cpu2_STLB PREFETCH REQUESTED:          0 ISSUED:          0 USEFUL:          0 USELESS:          0
cpu2_STLB AVERAGE MISS LATENCY: 1179 cycles
cpu2_STLB TOTAL        ACCESS:          0 HIT:          0 MISS:          0
cpu2_STLB LOAD         ACCESS:          0 HIT:          0 MISS:          0
cpu2_STLB RFO          ACCESS:          0 HIT:          0 MISS:          0
cpu2_STLB PREFETCH     ACCESS:          0 HIT:          0 MISS:          0
cpu2_STLB WRITE        ACCESS:          0 HIT:          0 MISS:          0
cpu2_STLB TRANSLATION  ACCESS:          0 HIT:          0 MISS:          0
cpu2_STLB PREFETCH REQUESTED:          0 ISSUED:          0 USEFUL:          0 USELESS:          0
cpu2_STLB AVERAGE MISS LATENCY: 1179 cycles
cpu2_STLB TOTAL        ACCESS:      63828 HIT:      56587 MISS:       7241
cpu2_STLB LOAD         ACCESS:      63828 HIT:      56587 MISS:       7241
cpu2_STLB RFO          ACCESS:          0 HIT:          0 MISS:          0
cpu2_STLB PREFETCH     ACCESS:          0 HIT:          0 MISS:          0
cpu2_STLB WRITE        ACCESS:          0 HIT:          0 MISS:          0
cpu2_STLB TRANSLATION  ACCESS:          0 HIT:          0 MISS:          0
cpu2_STLB PREFETCH REQUESTED:          0 ISSUED:          0 USEFUL:          0 USELESS:          0
cpu2_STLB AVERAGE MISS LATENCY: 1179 cycles
cpu2_STLB TOTAL        ACCESS:          0 HIT:          0 MISS:          0
cpu2_STLB LOAD         ACCESS:          0 HIT:          0 MISS:          0
cpu2_STLB RFO          ACCESS:          0 HIT:          0 MISS:          0
cpu2_STLB PREFETCH     ACCESS:          0 HIT:          0 MISS:          0
cpu2_STLB WRITE        ACCESS:          0 HIT:          0 MISS:          0
cpu2_STLB TRANSLATION  ACCESS:          0 HIT:          0 MISS:          0
cpu2_STLB PREFETCH REQUESTED:          0 ISSUED:          0 USEFUL:          0 USELESS:          0
cpu2_STLB AVERAGE MISS LATENCY: 1179 cycles
cpu3_DTLB TOTAL        ACCESS:          0 HIT:          0 MISS:          0
cpu3_DTLB LOAD         ACCESS:          0 HIT:          0 MISS:          0
cpu3_DTLB RFO          ACCESS:          0 HIT:          0 MISS:          0
cpu3_DTLB PREFETCH     ACCESS:          0 HIT:          0 MISS:          0
cpu3_DTLB WRITE        ACCESS:          0 HIT:          0 MISS:          0
cpu3_DTLB TRANSLATION  ACCESS:          0 HIT:          0 MISS:          0
cpu3_DTLB PREFETCH REQUESTED:          0 ISSUED:          0 USEFUL:          0 USELESS:          0
cpu3_DTLB AVERAGE MISS LATENCY: 11.04 cycles
cpu3_DTLB TOTAL        ACCESS:          0 HIT:          0 MISS:          0
cpu3_DTLB LOAD         ACCESS:          0 HIT:          0 MISS:          0
cpu3_DTLB RFO          ACCESS:          0 HIT:          0 MISS:          0
cpu3_DTLB PREFETCH     ACCESS:          0 HIT:          0 MISS:          0
cpu3_DTLB WRITE        ACCESS:          0 HIT:          0 MISS:          0
cpu3_DTLB TRANSLATION  ACCESS:          0 HIT:          0 MISS:          0
cpu3_DTLB PREFETCH REQUESTED:          0 ISSUED:          0 USEFUL:          0 USELESS:          0
cpu3_DTLB AVERAGE MISS LATENCY: 11.04 cycles
cpu3_DTLB TOTAL        ACCESS:          0 HIT:          0 MISS:          0
cpu3_DTLB LOAD         ACCESS:          0 HIT:          0 MISS:          0
cpu3_DTLB RFO          ACCESS:          0 HIT:          0 MISS:          0
cpu3_DTLB PREFETCH     ACCESS:          0 HIT:          0 MISS:          0
cpu3_DTLB WRITE        ACCESS:          0 HIT:          0 MISS:          0
cpu3_DTLB TRANSLATION  ACCESS:          0 HIT:          0 MISS:          0
cpu3_DTLB PREFETCH REQUESTED:          0 ISSUED:          0 USEFUL:          0 USELESS:          0
cpu3_DTLB AVERAGE MISS LATENCY: 11.04 cycles
cpu3_DTLB TOTAL        ACCESS:   17912483 HIT:   17901182 MISS:      11301
cpu3_DTLB LOAD         ACCESS:   17912483 HIT:   17901182 MISS:      11301
cpu3_DTLB RFO          ACCESS:          0 HIT:          0 MISS:          0
cpu3_DTLB PREFETCH     ACCESS:          0 HIT:          0 MISS:          0
cpu3_DTLB WRITE        ACCESS:          0 HIT:          0 MISS:          0
cpu3_DTLB TRANSLATION  ACCESS:          0 HIT:          0 MISS:          0
cpu3_DTLB PREFETCH REQUESTED:          0 ISSUED:          0 USEFUL:          0 USELESS:          0
cpu3_DTLB AVERAGE MISS LATENCY: 11.04 cycles
cpu3_ITLB TOTAL        ACCESS:          0 HIT:          0 MISS:          0
cpu3_ITLB LOAD         ACCESS:          0 HIT:          0 MISS:          0
cpu3_ITLB RFO          ACCESS:          0 HIT:          0 MISS:          0
cpu3_ITLB PREFETCH     ACCESS:          0 HIT:          0 MISS:          0
cpu3_ITLB WRITE        ACCESS:          0 HIT:          0 MISS:          0
cpu3_ITLB TRANSLATION  ACCESS:          0 HIT:          0 MISS:          0
cpu3_ITLB PREFETCH REQUESTED:          0 ISSUED:          0 USEFUL:          0 USELESS:          0
cpu3_ITLB AVERAGE MISS LATENCY: 900 cycles
cpu3_ITLB TOTAL        ACCESS:          0 HIT:          0 MISS:          0
cpu3_ITLB LOAD         ACCESS:          0 HIT:          0 MISS:          0
cpu3_ITLB RFO          ACCESS:          0 HIT:          0 MISS:          0
cpu3_ITLB PREFETCH     ACCESS:          0 HIT:          0 MISS:          0
cpu3_ITLB WRITE        ACCESS:          0 HIT:          0 MISS:          0
cpu3_ITLB TRANSLATION  ACCESS:          0 HIT:          0 MISS:          0
cpu3_ITLB PREFETCH REQUESTED:          0 ISSUED:          0 USEFUL:          0 USELESS:          0
cpu3_ITLB AVERAGE MISS LATENCY: 900 cycles
cpu3_ITLB TOTAL        ACCESS:          0 HIT:          0 MISS:          0
cpu3_ITLB LOAD         ACCESS:          0 HIT:          0 MISS:          0
cpu3_ITLB RFO          ACCESS:          0 HIT:          0 MISS:          0
cpu3_ITLB PREFETCH     ACCESS:          0 HIT:          0 MISS:          0
cpu3_ITLB WRITE        ACCESS:          0 HIT:          0 MISS:          0
cpu3_ITLB TRANSLATION  ACCESS:          0 HIT:          0 MISS:          0
cpu3_ITLB PREFETCH REQUESTED:          0 ISSUED:          0 USEFUL:          0 USELESS:          0
cpu3_ITLB AVERAGE MISS LATENCY: 900 cycles
cpu3_ITLB TOTAL        ACCESS:     506325 HIT:     506325 MISS:          0
cpu3_ITLB LOAD         ACCESS:     506325 HIT:     506325 MISS:          0
cpu3_ITLB RFO          ACCESS:          0 HIT:          0 MISS:          0
cpu3_ITLB PREFETCH     ACCESS:          0 HIT:          0 MISS:          0
cpu3_ITLB WRITE        ACCESS:          0 HIT:          0 MISS:          0
cpu3_ITLB TRANSLATION  ACCESS:          0 HIT:          0 MISS:          0
cpu3_ITLB PREFETCH REQUESTED:          0 ISSUED:          0 USEFUL:          0 USELESS:          0
cpu3_ITLB AVERAGE MISS LATENCY: 900 cycles
cpu3_L1D TOTAL        ACCESS:          0 HIT:          0 MISS:          0
cpu3_L1D LOAD         ACCESS:          0 HIT:          0 MISS:          0
cpu3_L1D RFO          ACCESS:          0 HIT:          0 MISS:          0
cpu3_L1D PREFETCH     ACCESS:          0 HIT:          0 MISS:          0
cpu3_L1D WRITE        ACCESS:          0 HIT:          0 MISS:          0
cpu3_L1D TRANSLATION  ACCESS:          0 HIT:          0 MISS:          0
cpu3_L1D PREFETCH REQUESTED:          0 ISSUED:          0 USEFUL:          0 USELESS:          0
cpu3_L1D AVERAGE MISS LATENCY: 246.9 cycles
cpu3_L1D TOTAL        ACCESS:          0 HIT:          0 MISS:          0
cpu3_L1D LOAD         ACCESS:          0 HIT:          0 MISS:          0
cpu3_L1D RFO          ACCESS:          0 HIT:          0 MISS:          0
cpu3_L1D PREFETCH     ACCESS:          0 HIT:          0 MISS:          0
cpu3_L1D WRITE        ACCESS:          0 HIT:          0 MISS:          0
cpu3_L1D TRANSLATION  ACCESS:          0 HIT:          0 MISS:          0
cpu3_L1D PREFETCH REQUESTED:          0 ISSUED:          0 USEFUL:          0 USELESS:          0
cpu3_L1D AVERAGE MISS LATENCY: 246.9 cycles
cpu3_L1D TOTAL        ACCESS:          0 HIT:          0 MISS:          0
cpu3_L1D LOAD         ACCESS:          0 HIT:          0 MISS:          0
cpu3_L1D RFO          ACCESS:          0 HIT:          0 MISS:          0
cpu3_L1D PREFETCH     ACCESS:          0 HIT:          0 MISS:          0
cpu3_L1D WRITE        ACCESS:          0 HIT:          0 MISS:          0
cpu3_L1D TRANSLATION  ACCESS:          0 HIT:          0 MISS:          0
cpu3_L1D PREFETCH REQUESTED:          0 ISSUED:          0 USEFUL:          0 USELESS:          0
cpu3_L1D AVERAGE MISS LATENCY: 246.9 cycles
cpu3_L1D TOTAL        ACCESS:   22000973 HIT:   21977484 MISS:      23489
cpu3_L1D LOAD         ACCESS:   16416339 HIT:   16413452 MISS:       2887
cpu3_L1D RFO          ACCESS:          0 HIT:          0 MISS:          0
cpu3_L1D PREFETCH     ACCESS:          0 HIT:          0 MISS:          0
cpu3_L1D WRITE        ACCESS:    5584456 HIT:    5564013 MISS:      20443
cpu3_L1D TRANSLATION  ACCESS:        178 HIT:         19 MISS:        159
cpu3_L1D PREFETCH REQUESTED:          0 ISSUED:          0 USEFUL:          0 USELESS:          0
cpu3_L1D AVERAGE MISS LATENCY: 246.9 cycles
cpu3_L1I TOTAL        ACCESS:          0 HIT:          0 MISS:          0
cpu3_L1I LOAD         ACCESS:          0 HIT:          0 MISS:          0
cpu3_L1I RFO          ACCESS:          0 HIT:          0 MISS:          0
cpu3_L1I PREFETCH     ACCESS:          0 HIT:          0 MISS:          0
cpu3_L1I WRITE        ACCESS:          0 HIT:          0 MISS:          0
cpu3_L1I TRANSLATION  ACCESS:          0 HIT:          0 MISS:          0
cpu3_L1I PREFETCH REQUESTED:          0 ISSUED:          0 USEFUL:          0 USELESS:          0
cpu3_L1I AVERAGE MISS LATENCY: 25.62 cycles
cpu3_L1I TOTAL        ACCESS:          0 HIT:          0 MISS:          0
cpu3_L1I LOAD         ACCESS:          0 HIT:          0 MISS:          0
cpu3_L1I RFO          ACCESS:          0 HIT:          0 MISS:          0
cpu3_L1I PREFETCH     ACCESS:          0 HIT:          0 MISS:          0
cpu3_L1I WRITE        ACCESS:          0 HIT:          0 MISS:          0
cpu3_L1I TRANSLATION  ACCESS:          0 HIT:          0 MISS:          0
cpu3_L1I PREFETCH REQUESTED:          0 ISSUED:          0 USEFUL:          0 USELESS:          0
cpu3_L1I AVERAGE MISS LATENCY: 25.62 cycles
cpu3_L1I TOTAL        ACCESS:          0 HIT:          0 MISS:          0
cpu3_L1I LOAD         ACCESS:          0 HIT:          0 MISS:          0
cpu3_L1I RFO          ACCESS:          0 HIT:          0 MISS:          0
cpu3_L1I PREFETCH     ACCESS:          0 HIT:          0 MISS:          0
cpu3_L1I WRITE        ACCESS:          0 HIT:          0 MISS:          0
cpu3_L1I TRANSLATION  ACCESS:          0 HIT:          0 MISS:          0
cpu3_L1I PREFETCH REQUESTED:          0 ISSUED:          0 USEFUL:          0 USELESS:          0
cpu3_L1I AVERAGE MISS LATENCY: 25.62 cycles
cpu3_L1I TOTAL        ACCESS:     563830 HIT:     562323 MISS:       1507
cpu3_L1I LOAD         ACCESS:     563830 HIT:     562323 MISS:       1507
cpu3_L1I RFO          ACCESS:          0 HIT:          0 MISS:          0
cpu3_L1I PREFETCH     ACCESS:          0 HIT:          0 MISS:          0
cpu3_L1I WRITE        ACCESS:          0 HIT:          0 MISS:          0
cpu3_L1I TRANSLATION  ACCESS:          0 HIT:          0 MISS:          0
cpu3_L1I PREFETCH REQUESTED:          0 ISSUED:          0 USEFUL:          0 USELESS:          0
cpu3_L1I AVERAGE MISS LATENCY: 25.62 cycles
cpu3_L2C TOTAL        ACCESS:          0 HIT:          0 MISS:          0
cpu3_L2C LOAD         ACCESS:          0 HIT:          0 MISS:          0
cpu3_L2C RFO          ACCESS:          0 HIT:          0 MISS:          0
cpu3_L2C PREFETCH     ACCESS:          0 HIT:          0 MISS:          0
cpu3_L2C WRITE        ACCESS:          0 HIT:          0 MISS:          0
cpu3_L2C TRANSLATION  ACCESS:          0 HIT:          0 MISS:          0
cpu3_L2C PREFETCH REQUESTED:    2802044 ISSUED:    2395428 USEFUL:     103090 USELESS:      19203
cpu3_L2C AVERAGE MISS LATENCY: 1642 cycles
cpu3_L2C TOTAL        ACCESS:          0 HIT:          0 MISS:          0
cpu3_L2C LOAD         ACCESS:          0 HIT:          0 MISS:          0
cpu3_L2C RFO          ACCESS:          0 HIT:          0 MISS:          0
cpu3_L2C PREFETCH     ACCESS:          0 HIT:          0 MISS:          0
cpu3_L2C WRITE        ACCESS:          0 HIT:          0 MISS:          0
cpu3_L2C TRANSLATION  ACCESS:          0 HIT:          0 MISS:          0
cpu3_L2C PREFETCH REQUESTED:    2802044 ISSUED:    2395428 USEFUL:     103090 USELESS:      19203
cpu3_L2C AVERAGE MISS LATENCY: 1642 cycles
cpu3_L2C TOTAL        ACCESS:          0 HIT:          0 MISS:          0
cpu3_L2C LOAD         ACCESS:          0 HIT:          0 MISS:          0
cpu3_L2C RFO          ACCESS:          0 HIT:          0 MISS:          0
cpu3_L2C PREFETCH     ACCESS:          0 HIT:          0 MISS:          0
cpu3_L2C WRITE        ACCESS:          0 HIT:          0 MISS:          0
cpu3_L2C TRANSLATION  ACCESS:          0 HIT:          0 MISS:          0
cpu3_L2C PREFETCH REQUESTED:    2802044 ISSUED:    2395428 USEFUL:     103090 USELESS:      19203
cpu3_L2C AVERAGE MISS LATENCY: 1642 cycles
cpu3_L2C TOTAL        ACCESS:      12252 HIT:       5623 MISS:       6629
cpu3_L2C LOAD         ACCESS:       2935 HIT:       1891 MISS:       1044
cpu3_L2C RFO          ACCESS:       2688 HIT:        113 MISS:       2575
cpu3_L2C PREFETCH     ACCESS:       3275 HIT:        367 MISS:       2908
cpu3_L2C WRITE        ACCESS:       3195 HIT:       3194 MISS:          1
cpu3_L2C TRANSLATION  ACCESS:        159 HIT:         58 MISS:        101
cpu3_L2C PREFETCH REQUESTED:    2802044 ISSUED:    2395428 USEFUL:     103090 USELESS:      19203
cpu3_L2C AVERAGE MISS LATENCY: 1642 cycles
cpu3_STLB TOTAL        ACCESS:          0 HIT:          0 MISS:          0
cpu3_STLB LOAD         ACCESS:          0 HIT:          0 MISS:          0
cpu3_STLB RFO          ACCESS:          0 HIT:          0 MISS:          0
cpu3_STLB PREFETCH     ACCESS:          0 HIT:          0 MISS:          0
cpu3_STLB WRITE        ACCESS:          0 HIT:          0 MISS:          0
cpu3_STLB TRANSLATION  ACCESS:          0 HIT:          0 MISS:          0
cpu3_STLB PREFETCH REQUESTED:          0 ISSUED:          0 USEFUL:          0 USELESS:          0
cpu3_STLB AVERAGE MISS LATENCY: 1196 cycles
cpu3_STLB TOTAL        ACCESS:          0 HIT:          0 MISS:          0
cpu3_STLB LOAD         ACCESS:          0 HIT:          0 MISS:          0
cpu3_STLB RFO          ACCESS:          0 HIT:          0 MISS:          0
cpu3_STLB PREFETCH     ACCESS:          0 HIT:          0 MISS:          0
cpu3_STLB WRITE        ACCESS:          0 HIT:          0 MISS:          0
cpu3_STLB TRANSLATION  ACCESS:          0 HIT:          0 MISS:          0
cpu3_STLB PREFETCH REQUESTED:          0 ISSUED:          0 USEFUL:          0 USELESS:          0
cpu3_STLB AVERAGE MISS LATENCY: 1196 cycles
cpu3_STLB TOTAL        ACCESS:          0 HIT:          0 MISS:          0
cpu3_STLB LOAD         ACCESS:          0 HIT:          0 MISS:          0
cpu3_STLB RFO          ACCESS:          0 HIT:          0 MISS:          0
cpu3_STLB PREFETCH     ACCESS:          0 HIT:          0 MISS:          0
cpu3_STLB WRITE        ACCESS:          0 HIT:          0 MISS:          0
cpu3_STLB TRANSLATION  ACCESS:          0 HIT:          0 MISS:          0
cpu3_STLB PREFETCH REQUESTED:          0 ISSUED:          0 USEFUL:          0 USELESS:          0
cpu3_STLB AVERAGE MISS LATENCY: 1196 cycles
cpu3_STLB TOTAL        ACCESS:       9996 HIT:       9819 MISS:        177
cpu3_STLB LOAD         ACCESS:       9996 HIT:       9819 MISS:        177
cpu3_STLB RFO          ACCESS:          0 HIT:          0 MISS:          0
cpu3_STLB PREFETCH     ACCESS:          0 HIT:          0 MISS:          0
cpu3_STLB WRITE        ACCESS:          0 HIT:          0 MISS:          0
cpu3_STLB TRANSLATION  ACCESS:          0 HIT:          0 MISS:          0
cpu3_STLB PREFETCH REQUESTED:          0 ISSUED:          0 USEFUL:          0 USELESS:          0
cpu3_STLB AVERAGE MISS LATENCY: 1196 cycles

DRAM Statistics

Channel 0 RQ ROW_BUFFER_HIT:    1213468
  ROW_BUFFER_MISS:    3130759
 AVG DBUS CONGESTED CYCLE: 3.986
WQ ROW_BUFFER_HIT: Channel 0 
  ROW_BUFFER_MISS:     133699
  FULL:    2261841
BERTI TO_L1: 8766813 TO_L2: 7154017 TO_L2_BC_MSHR: 74440
BERTI AVG_LAT: 787.025 NUM_TRACK_LATENCY: 3591374 NUM_CANT_TRACK_LATENCY: 512178
BERTI CROSS_PAGE 3078826 NO_CROSS_PAGE: 12842004
BERTI FOUND_BERTI: 6745547 NO_FOUND_BERTI: 21619178
BERTI AVERAGE_ISSUED: 5.24911
BERTI TO_L1: 8766813 TO_L2: 7154017 TO_L2_BC_MSHR: 74440
BERTI AVG_LAT: 787.025 NUM_TRACK_LATENCY: 3591374 NUM_CANT_TRACK_LATENCY: 512178
BERTI CROSS_PAGE 3078826 NO_CROSS_PAGE: 12842004
BERTI FOUND_BERTI: 6745547 NO_FOUND_BERTI: 21619178
BERTI AVERAGE_ISSUED: 5.24911
BERTI TO_L1: 8766813 TO_L2: 7154017 TO_L2_BC_MSHR: 74440
BERTI AVG_LAT: 787.025 NUM_TRACK_LATENCY: 3591374 NUM_CANT_TRACK_LATENCY: 512178
BERTI CROSS_PAGE 3078826 NO_CROSS_PAGE: 12842004
BERTI FOUND_BERTI: 6745547 NO_FOUND_BERTI: 21619178
BERTI AVERAGE_ISSUED: 5.24911
BERTI TO_L1: 8766813 TO_L2: 7154017 TO_L2_BC_MSHR: 74440
BERTI AVG_LAT: 787.025 NUM_TRACK_LATENCY: 3591374 NUM_CANT_TRACK_LATENCY: 512178
BERTI CROSS_PAGE 3078826 NO_CROSS_PAGE: 12842004
BERTI FOUND_BERTI: 6745547 NO_FOUND_BERTI: 21619178
BERTI AVERAGE_ISSUED: 5.24911
