WARNING: physical memory size is smaller than virtual memory size.
WARNING: option --warmup_instructions is deprecated. Use --warmup-instructions instead.
WARNING: option --simulation_instructions is deprecated. Use --simulation-instructions instead.

*** ChampSim Multicore Out-of-Order Simulator ***
Warmup Instructions: 50000000
Simulation Instructions: 150000000
Number of CPUs: 4
Page size: 4096

Initialize SIGNATURE TABLE
ST_SET: 1
ST_WAY: 256
ST_TAG_BIT: 16
ST_TAG_MASK: ffff

Initialize PATTERN TABLE
PT_SET: 512
PT_WAY: 4
SIG_DELTA_BIT: 7
C_SIG_BIT: 4
C_DELTA_BIT: 4

Initialize PREFETCH FILTER
FILTER_SET: 1024
Initialize SIGNATURE TABLE
ST_SET: 1
ST_WAY: 256
ST_TAG_BIT: 16
ST_TAG_MASK: ffff

Initialize PATTERN TABLE
PT_SET: 512
PT_WAY: 4
SIG_DELTA_BIT: 7
C_SIG_BIT: 4
C_DELTA_BIT: 4

Initialize PREFETCH FILTER
FILTER_SET: 1024
Initialize SIGNATURE TABLE
ST_SET: 1
ST_WAY: 256
ST_TAG_BIT: 16
ST_TAG_MASK: ffff

Initialize PATTERN TABLE
PT_SET: 512
PT_WAY: 4
SIG_DELTA_BIT: 7
C_SIG_BIT: 4
C_DELTA_BIT: 4

Initialize PREFETCH FILTER
FILTER_SET: 1024
Initialize SIGNATURE TABLE
ST_SET: 1
ST_WAY: 256
ST_TAG_BIT: 16
ST_TAG_MASK: ffff

Initialize PATTERN TABLE
PT_SET: 512
PT_WAY: 4
SIG_DELTA_BIT: 7
C_SIG_BIT: 4
C_DELTA_BIT: 4

Initialize PREFETCH FILTER
FILTER_SET: 1024
Off-chip DRAM Size: 4 GiB Channels: 1 Width: 64-bit Data Race: 3200 MT/s
Heartbeat CPU 3 instructions: 10000003 cycles: 2502873 heartbeat IPC: 3.995 cumulative IPC: 3.995 (Simulation time: 00 hr 02 min 30 sec)
Heartbeat CPU 0 instructions: 10000003 cycles: 2511302 heartbeat IPC: 3.982 cumulative IPC: 3.982 (Simulation time: 00 hr 02 min 30 sec)
Heartbeat CPU 2 instructions: 10000000 cycles: 2638518 heartbeat IPC: 3.79 cumulative IPC: 3.79 (Simulation time: 00 hr 02 min 38 sec)
Heartbeat CPU 1 instructions: 10000003 cycles: 2696860 heartbeat IPC: 3.708 cumulative IPC: 3.708 (Simulation time: 00 hr 02 min 42 sec)
Heartbeat CPU 3 instructions: 20000000 cycles: 5005501 heartbeat IPC: 3.996 cumulative IPC: 3.996 (Simulation time: 00 hr 04 min 59 sec)
Heartbeat CPU 0 instructions: 20000000 cycles: 5026766 heartbeat IPC: 3.975 cumulative IPC: 3.979 (Simulation time: 00 hr 05 min 01 sec)
Heartbeat CPU 1 instructions: 20000001 cycles: 5210238 heartbeat IPC: 3.979 cumulative IPC: 3.839 (Simulation time: 00 hr 05 min 11 sec)
Heartbeat CPU 2 instructions: 20000000 cycles: 5277372 heartbeat IPC: 3.79 cumulative IPC: 3.79 (Simulation time: 00 hr 05 min 15 sec)
Heartbeat CPU 3 instructions: 30000003 cycles: 7507881 heartbeat IPC: 3.996 cumulative IPC: 3.996 (Simulation time: 00 hr 07 min 29 sec)
Heartbeat CPU 0 instructions: 30000002 cycles: 7533787 heartbeat IPC: 3.989 cumulative IPC: 3.982 (Simulation time: 00 hr 07 min 30 sec)
Heartbeat CPU 1 instructions: 30000000 cycles: 7723360 heartbeat IPC: 3.979 cumulative IPC: 3.884 (Simulation time: 00 hr 07 min 42 sec)
Heartbeat CPU 2 instructions: 30000003 cycles: 7916126 heartbeat IPC: 3.79 cumulative IPC: 3.79 (Simulation time: 00 hr 07 min 54 sec)
Heartbeat CPU 3 instructions: 40000000 cycles: 10010576 heartbeat IPC: 3.996 cumulative IPC: 3.996 (Simulation time: 00 hr 10 min 05 sec)
Heartbeat CPU 0 instructions: 40000003 cycles: 10050666 heartbeat IPC: 3.973 cumulative IPC: 3.98 (Simulation time: 00 hr 10 min 07 sec)
Heartbeat CPU 1 instructions: 40000003 cycles: 10239860 heartbeat IPC: 3.974 cumulative IPC: 3.906 (Simulation time: 00 hr 10 min 21 sec)
Heartbeat CPU 2 instructions: 40000002 cycles: 10554999 heartbeat IPC: 3.789 cumulative IPC: 3.79 (Simulation time: 00 hr 10 min 43 sec)
Heartbeat CPU 3 instructions: 50000001 cycles: 12513266 heartbeat IPC: 3.996 cumulative IPC: 3.996 (Simulation time: 00 hr 12 min 44 sec)
Warmup finished CPU 3 instructions: 50000001 cycles: 12513267 cumulative IPC: 3.996 (Simulation time: 00 hr 12 min 44 sec)
Heartbeat CPU 0 instructions: 50000001 cycles: 12588708 heartbeat IPC: 3.94 cumulative IPC: 3.972 (Simulation time: 00 hr 12 min 49 sec)
Warmup finished CPU 0 instructions: 50000001 cycles: 12588709 cumulative IPC: 3.972 (Simulation time: 00 hr 12 min 49 sec)
Heartbeat CPU 1 instructions: 50000002 cycles: 12761110 heartbeat IPC: 3.966 cumulative IPC: 3.918 (Simulation time: 00 hr 13 min 00 sec)
Warmup finished CPU 1 instructions: 50000002 cycles: 12761111 cumulative IPC: 3.918 (Simulation time: 00 hr 13 min 00 sec)
Heartbeat CPU 2 instructions: 50000002 cycles: 13195239 heartbeat IPC: 3.788 cumulative IPC: 3.789 (Simulation time: 00 hr 13 min 26 sec)
Warmup finished CPU 2 instructions: 50000002 cycles: 13195240 cumulative IPC: 3.789 (Simulation time: 00 hr 13 min 26 sec)
Warmup complete CPU 0 instructions: 52414883 cycles: 13195240 cumulative IPC: 3.972 (Simulation time: 00 hr 13 min 26 sec)
Warmup complete CPU 1 instructions: 51721733 cycles: 13195240 cumulative IPC: 3.92 (Simulation time: 00 hr 13 min 26 sec)
Warmup complete CPU 2 instructions: 50000002 cycles: 13195240 cumulative IPC: 3.789 (Simulation time: 00 hr 13 min 26 sec)
Warmup complete CPU 3 instructions: 52717076 cycles: 13195240 cumulative IPC: 3.995 (Simulation time: 00 hr 13 min 26 sec)
Heartbeat CPU 0 instructions: 60000002 cycles: 15667613 heartbeat IPC: 3.248 cumulative IPC: 3.068 (Simulation time: 00 hr 15 min 36 sec)
Heartbeat CPU 3 instructions: 60000004 cycles: 16633670 heartbeat IPC: 2.427 cumulative IPC: 2.118 (Simulation time: 00 hr 16 min 27 sec)
Heartbeat CPU 1 instructions: 60000000 cycles: 17111053 heartbeat IPC: 2.299 cumulative IPC: 2.114 (Simulation time: 00 hr 16 min 50 sec)
Heartbeat CPU 2 instructions: 60000004 cycles: 17265217 heartbeat IPC: 2.457 cumulative IPC: 2.457 (Simulation time: 00 hr 16 min 58 sec)
Heartbeat CPU 0 instructions: 70000003 cycles: 19228262 heartbeat IPC: 2.808 cumulative IPC: 2.915 (Simulation time: 00 hr 18 min 36 sec)
Heartbeat CPU 2 instructions: 70000002 cycles: 21203332 heartbeat IPC: 2.539 cumulative IPC: 2.497 (Simulation time: 00 hr 20 min 20 sec)
Heartbeat CPU 3 instructions: 70000000 cycles: 21336240 heartbeat IPC: 2.126 cumulative IPC: 2.123 (Simulation time: 00 hr 20 min 27 sec)
Heartbeat CPU 1 instructions: 70000000 cycles: 21536240 heartbeat IPC: 2.26 cumulative IPC: 2.191 (Simulation time: 00 hr 20 min 36 sec)
Heartbeat CPU 0 instructions: 80000000 cycles: 22516794 heartbeat IPC: 3.041 cumulative IPC: 2.959 (Simulation time: 00 hr 21 min 26 sec)
Heartbeat CPU 2 instructions: 80000000 cycles: 24835175 heartbeat IPC: 2.753 cumulative IPC: 2.577 (Simulation time: 00 hr 23 min 14 sec)
Heartbeat CPU 0 instructions: 90000001 cycles: 25888367 heartbeat IPC: 2.966 cumulative IPC: 2.961 (Simulation time: 00 hr 24 min 06 sec)
Heartbeat CPU 1 instructions: 80000003 cycles: 25948381 heartbeat IPC: 2.266 cumulative IPC: 2.217 (Simulation time: 00 hr 24 min 09 sec)
Heartbeat CPU 3 instructions: 80000001 cycles: 26033313 heartbeat IPC: 2.129 cumulative IPC: 2.125 (Simulation time: 00 hr 24 min 14 sec)
Heartbeat CPU 2 instructions: 90000000 cycles: 28565096 heartbeat IPC: 2.681 cumulative IPC: 2.602 (Simulation time: 00 hr 26 min 11 sec)
Heartbeat CPU 0 instructions: 100000004 cycles: 29272133 heartbeat IPC: 2.955 cumulative IPC: 2.96 (Simulation time: 00 hr 26 min 47 sec)
Heartbeat CPU 1 instructions: 90000003 cycles: 29773389 heartbeat IPC: 2.614 cumulative IPC: 2.309 (Simulation time: 00 hr 27 min 11 sec)
Heartbeat CPU 3 instructions: 90000002 cycles: 30740148 heartbeat IPC: 2.125 cumulative IPC: 2.125 (Simulation time: 00 hr 27 min 54 sec)
Heartbeat CPU 0 instructions: 110000001 cycles: 32623090 heartbeat IPC: 2.984 cumulative IPC: 2.964 (Simulation time: 00 hr 29 min 15 sec)
Heartbeat CPU 2 instructions: 100000003 cycles: 32707100 heartbeat IPC: 2.414 cumulative IPC: 2.563 (Simulation time: 00 hr 29 min 19 sec)
Heartbeat CPU 3 instructions: 100000000 cycles: 35462595 heartbeat IPC: 2.118 cumulative IPC: 2.123 (Simulation time: 00 hr 31 min 11 sec)
Heartbeat CPU 0 instructions: 120000002 cycles: 36076386 heartbeat IPC: 2.896 cumulative IPC: 2.954 (Simulation time: 00 hr 31 min 35 sec)
Heartbeat CPU 2 instructions: 110000001 cycles: 38968448 heartbeat IPC: 1.597 cumulative IPC: 2.328 (Simulation time: 00 hr 33 min 29 sec)
Heartbeat CPU 0 instructions: 130000003 cycles: 39527987 heartbeat IPC: 2.897 cumulative IPC: 2.946 (Simulation time: 00 hr 33 min 51 sec)
Heartbeat CPU 3 instructions: 110000001 cycles: 40198488 heartbeat IPC: 2.112 cumulative IPC: 2.121 (Simulation time: 00 hr 34 min 16 sec)
Heartbeat CPU 1 instructions: 100000000 cycles: 41639948 heartbeat IPC: 0.8427 cumulative IPC: 1.697 (Simulation time: 00 hr 35 min 08 sec)
Heartbeat CPU 0 instructions: 140000003 cycles: 43399361 heartbeat IPC: 2.583 cumulative IPC: 2.9 (Simulation time: 00 hr 36 min 09 sec)
Heartbeat CPU 3 instructions: 120000000 cycles: 44869506 heartbeat IPC: 2.141 cumulative IPC: 2.124 (Simulation time: 00 hr 37 min 02 sec)
Heartbeat CPU 0 instructions: 150000003 cycles: 47199044 heartbeat IPC: 2.632 cumulative IPC: 2.87 (Simulation time: 00 hr 38 min 24 sec)
Heartbeat CPU 2 instructions: 120000003 cycles: 48837846 heartbeat IPC: 1.013 cumulative IPC: 1.964 (Simulation time: 00 hr 39 min 28 sec)
Heartbeat CPU 3 instructions: 130000002 cycles: 49585659 heartbeat IPC: 2.12 cumulative IPC: 2.124 (Simulation time: 00 hr 39 min 58 sec)
Heartbeat CPU 0 instructions: 160000001 cycles: 51240085 heartbeat IPC: 2.475 cumulative IPC: 2.828 (Simulation time: 00 hr 40 min 54 sec)
Heartbeat CPU 3 instructions: 140000000 cycles: 54464419 heartbeat IPC: 2.05 cumulative IPC: 2.115 (Simulation time: 00 hr 42 min 58 sec)
Heartbeat CPU 0 instructions: 170000003 cycles: 55043432 heartbeat IPC: 2.629 cumulative IPC: 2.81 (Simulation time: 00 hr 43 min 19 sec)
Heartbeat CPU 3 instructions: 150000004 cycles: 59507955 heartbeat IPC: 1.983 cumulative IPC: 2.101 (Simulation time: 00 hr 45 min 47 sec)
Heartbeat CPU 0 instructions: 180000003 cycles: 60012099 heartbeat IPC: 2.013 cumulative IPC: 2.725 (Simulation time: 00 hr 46 min 04 sec)
Heartbeat CPU 2 instructions: 130000003 cycles: 60930517 heartbeat IPC: 0.8269 cumulative IPC: 1.676 (Simulation time: 00 hr 46 min 37 sec)
Heartbeat CPU 3 instructions: 160000003 cycles: 64153585 heartbeat IPC: 2.153 cumulative IPC: 2.105 (Simulation time: 00 hr 48 min 24 sec)
Heartbeat CPU 0 instructions: 190000001 cycles: 65269775 heartbeat IPC: 1.902 cumulative IPC: 2.642 (Simulation time: 00 hr 48 min 55 sec)
Heartbeat CPU 3 instructions: 170000003 cycles: 69007633 heartbeat IPC: 2.06 cumulative IPC: 2.101 (Simulation time: 00 hr 50 min 53 sec)
Heartbeat CPU 0 instructions: 200000004 cycles: 70481808 heartbeat IPC: 1.919 cumulative IPC: 2.576 (Simulation time: 00 hr 51 min 49 sec)
Heartbeat CPU 2 instructions: 140000002 cycles: 71146608 heartbeat IPC: 0.9788 cumulative IPC: 1.553 (Simulation time: 00 hr 52 min 14 sec)
Simulation finished CPU 0 instructions: 150000000 cycles: 58138169 cumulative IPC: 2.58 (Simulation time: 00 hr 52 min 23 sec)
Heartbeat CPU 3 instructions: 180000004 cycles: 73633255 heartbeat IPC: 2.162 cumulative IPC: 2.106 (Simulation time: 00 hr 53 min 53 sec)
Heartbeat CPU 0 instructions: 210000004 cycles: 74129336 heartbeat IPC: 2.742 cumulative IPC: 2.586 (Simulation time: 00 hr 54 min 11 sec)
Heartbeat CPU 0 instructions: 220000001 cycles: 78251146 heartbeat IPC: 2.426 cumulative IPC: 2.576 (Simulation time: 00 hr 56 min 41 sec)
Heartbeat CPU 3 instructions: 190000002 cycles: 78316789 heartbeat IPC: 2.135 cumulative IPC: 2.108 (Simulation time: 00 hr 56 min 43 sec)
Heartbeat CPU 0 instructions: 230000000 cycles: 81793465 heartbeat IPC: 2.823 cumulative IPC: 2.589 (Simulation time: 00 hr 58 min 49 sec)
Heartbeat CPU 2 instructions: 150000000 cycles: 82200622 heartbeat IPC: 0.9046 cumulative IPC: 1.449 (Simulation time: 00 hr 59 min 04 sec)
Heartbeat CPU 3 instructions: 200000000 cycles: 83046555 heartbeat IPC: 2.114 cumulative IPC: 2.109 (Simulation time: 00 hr 59 min 41 sec)
Simulation finished CPU 3 instructions: 150000003 cycles: 71081248 cumulative IPC: 2.11 (Simulation time: 01 hr 00 min 34 sec)
Heartbeat CPU 0 instructions: 240000002 cycles: 85355194 heartbeat IPC: 2.808 cumulative IPC: 2.6 (Simulation time: 01 hr 01 min 21 sec)
Heartbeat CPU 1 instructions: 110000001 cycles: 85368037 heartbeat IPC: 0.2287 cumulative IPC: 0.8075 (Simulation time: 01 hr 01 min 21 sec)
Heartbeat CPU 3 instructions: 210000000 cycles: 87681775 heartbeat IPC: 2.157 cumulative IPC: 2.112 (Simulation time: 01 hr 02 min 49 sec)
Heartbeat CPU 0 instructions: 250000004 cycles: 88770354 heartbeat IPC: 2.928 cumulative IPC: 2.614 (Simulation time: 01 hr 03 min 41 sec)
Heartbeat CPU 2 instructions: 160000000 cycles: 89018541 heartbeat IPC: 1.467 cumulative IPC: 1.451 (Simulation time: 01 hr 03 min 52 sec)
Heartbeat CPU 1 instructions: 120000000 cycles: 90163964 heartbeat IPC: 2.085 cumulative IPC: 0.8871 (Simulation time: 01 hr 04 min 47 sec)
Heartbeat CPU 0 instructions: 260000002 cycles: 92198335 heartbeat IPC: 2.917 cumulative IPC: 2.628 (Simulation time: 01 hr 06 min 23 sec)
Heartbeat CPU 3 instructions: 220000000 cycles: 92258483 heartbeat IPC: 2.185 cumulative IPC: 2.116 (Simulation time: 01 hr 06 min 26 sec)
Heartbeat CPU 2 instructions: 170000002 cycles: 92557909 heartbeat IPC: 2.825 cumulative IPC: 1.512 (Simulation time: 01 hr 06 min 40 sec)
Heartbeat CPU 1 instructions: 130000002 cycles: 93653966 heartbeat IPC: 2.865 cumulative IPC: 0.9729 (Simulation time: 01 hr 07 min 30 sec)
Heartbeat CPU 0 instructions: 270000004 cycles: 95737478 heartbeat IPC: 2.826 cumulative IPC: 2.636 (Simulation time: 01 hr 09 min 03 sec)
Heartbeat CPU 3 instructions: 230000001 cycles: 96879971 heartbeat IPC: 2.164 cumulative IPC: 2.118 (Simulation time: 01 hr 09 min 56 sec)
Heartbeat CPU 1 instructions: 140000000 cycles: 97217468 heartbeat IPC: 2.806 cumulative IPC: 1.051 (Simulation time: 01 hr 10 min 11 sec)
Heartbeat CPU 2 instructions: 180000000 cycles: 97357204 heartbeat IPC: 2.084 cumulative IPC: 1.545 (Simulation time: 01 hr 10 min 18 sec)
Heartbeat CPU 0 instructions: 280000004 cycles: 99136337 heartbeat IPC: 2.942 cumulative IPC: 2.648 (Simulation time: 01 hr 11 min 37 sec)
Heartbeat CPU 3 instructions: 240000000 cycles: 101481880 heartbeat IPC: 2.173 cumulative IPC: 2.121 (Simulation time: 01 hr 13 min 21 sec)
Heartbeat CPU 1 instructions: 150000001 cycles: 101538965 heartbeat IPC: 2.314 cumulative IPC: 1.112 (Simulation time: 01 hr 13 min 23 sec)
Heartbeat CPU 2 instructions: 190000004 cycles: 101811453 heartbeat IPC: 2.245 cumulative IPC: 1.58 (Simulation time: 01 hr 13 min 35 sec)
Heartbeat CPU 0 instructions: 290000003 cycles: 102556438 heartbeat IPC: 2.924 cumulative IPC: 2.659 (Simulation time: 01 hr 14 min 09 sec)
Heartbeat CPU 0 instructions: 300000000 cycles: 106022658 heartbeat IPC: 2.885 cumulative IPC: 2.667 (Simulation time: 01 hr 16 min 45 sec)
Heartbeat CPU 3 instructions: 250000002 cycles: 106097630 heartbeat IPC: 2.166 cumulative IPC: 2.124 (Simulation time: 01 hr 16 min 48 sec)
Heartbeat CPU 1 instructions: 160000000 cycles: 106331705 heartbeat IPC: 2.086 cumulative IPC: 1.163 (Simulation time: 01 hr 16 min 59 sec)
Heartbeat CPU 2 instructions: 200000002 cycles: 106363157 heartbeat IPC: 2.197 cumulative IPC: 1.61 (Simulation time: 01 hr 17 min 01 sec)
Simulation finished CPU 2 instructions: 150000000 cycles: 93167918 cumulative IPC: 1.61 (Simulation time: 01 hr 17 min 01 sec)
Heartbeat CPU 0 instructions: 310000004 cycles: 109445828 heartbeat IPC: 2.921 cumulative IPC: 2.676 (Simulation time: 01 hr 19 min 17 sec)
Heartbeat CPU 3 instructions: 260000000 cycles: 110755964 heartbeat IPC: 2.147 cumulative IPC: 2.125 (Simulation time: 01 hr 20 min 15 sec)
Heartbeat CPU 2 instructions: 210000000 cycles: 110767288 heartbeat IPC: 2.271 cumulative IPC: 1.64 (Simulation time: 01 hr 20 min 16 sec)
Heartbeat CPU 1 instructions: 170000000 cycles: 111047765 heartbeat IPC: 2.12 cumulative IPC: 1.209 (Simulation time: 01 hr 20 min 29 sec)
Heartbeat CPU 0 instructions: 320000001 cycles: 112869970 heartbeat IPC: 2.92 cumulative IPC: 2.685 (Simulation time: 01 hr 21 min 53 sec)
Heartbeat CPU 2 instructions: 220000003 cycles: 115137337 heartbeat IPC: 2.288 cumulative IPC: 1.668 (Simulation time: 01 hr 23 min 35 sec)
Heartbeat CPU 3 instructions: 270000000 cycles: 115378692 heartbeat IPC: 2.163 cumulative IPC: 2.126 (Simulation time: 01 hr 23 min 46 sec)
Heartbeat CPU 1 instructions: 180000000 cycles: 115409727 heartbeat IPC: 2.293 cumulative IPC: 1.255 (Simulation time: 01 hr 23 min 47 sec)
Heartbeat CPU 0 instructions: 330000001 cycles: 116302448 heartbeat IPC: 2.913 cumulative IPC: 2.692 (Simulation time: 01 hr 24 min 28 sec)
Heartbeat CPU 2 instructions: 230000000 cycles: 119183873 heartbeat IPC: 2.471 cumulative IPC: 1.698 (Simulation time: 01 hr 26 min 38 sec)
Heartbeat CPU 1 instructions: 190000003 cycles: 119520563 heartbeat IPC: 2.433 cumulative IPC: 1.301 (Simulation time: 01 hr 26 min 53 sec)
Heartbeat CPU 0 instructions: 340000002 cycles: 119726248 heartbeat IPC: 2.921 cumulative IPC: 2.7 (Simulation time: 01 hr 27 min 03 sec)
Heartbeat CPU 3 instructions: 280000001 cycles: 120001143 heartbeat IPC: 2.163 cumulative IPC: 2.128 (Simulation time: 01 hr 27 min 16 sec)
Heartbeat CPU 0 instructions: 350000001 cycles: 123171497 heartbeat IPC: 2.903 cumulative IPC: 2.706 (Simulation time: 01 hr 29 min 36 sec)
Heartbeat CPU 2 instructions: 240000002 cycles: 123607845 heartbeat IPC: 2.26 cumulative IPC: 1.721 (Simulation time: 01 hr 29 min 55 sec)
Heartbeat CPU 3 instructions: 290000004 cycles: 124626461 heartbeat IPC: 2.162 cumulative IPC: 2.129 (Simulation time: 01 hr 30 min 38 sec)
Heartbeat CPU 1 instructions: 200000004 cycles: 126118483 heartbeat IPC: 1.516 cumulative IPC: 1.313 (Simulation time: 01 hr 31 min 40 sec)
Heartbeat CPU 0 instructions: 360000000 cycles: 126642530 heartbeat IPC: 2.881 cumulative IPC: 2.711 (Simulation time: 01 hr 32 min 03 sec)
Simulation finished CPU 1 instructions: 150000003 cycles: 114206359 cumulative IPC: 1.313 (Simulation time: 01 hr 32 min 33 sec)
Simulation complete CPU 0 instructions: 309803512 cycles: 114206359 cumulative IPC: 2.713 (Simulation time: 01 hr 32 min 33 sec)
Simulation complete CPU 1 instructions: 150000003 cycles: 114206359 cumulative IPC: 1.313 (Simulation time: 01 hr 32 min 33 sec)
Simulation complete CPU 2 instructions: 196426083 cycles: 114206359 cumulative IPC: 1.72 (Simulation time: 01 hr 32 min 33 sec)
Simulation complete CPU 3 instructions: 243237478 cycles: 114206359 cumulative IPC: 2.13 (Simulation time: 01 hr 32 min 33 sec)

ChampSim completed all CPUs

=== Simulation ===
CPU 0 runs /home/das/dpc3_traces/654.roms_s-842B.champsimtrace.xzCPU 1 runs /home/das/dpc3_traces/627.cam4_s-573B.champsimtrace.xzCPU 2 runs /home/das/dpc3_traces/628.pop2_s-17B.champsimtrace.xzCPU 3 runs /home/das/dpc3_traces/621.wrf_s-575B.champsimtrace.xz
Total Simulation Statistics (not including warmup)

CPU 0 cumulative IPC: 2.713 instructions: 309803512 cycles: 114206359
CPU 0 Branch Prediction Accuracy: 95.2% MPKI: 7.973 Average ROB Occupancy at Mispredict: 81.45
Branch type MPKI
BRANCH_DIRECT_JUMP: 0.16
BRANCH_INDIRECT: 0
BRANCH_CONDITIONAL: 6.77
BRANCH_DIRECT_CALL: 0
BRANCH_INDIRECT_CALL: 0
BRANCH_RETURN: 1.04


CPU 1 cumulative IPC: 1.313 instructions: 150000003 cycles: 114206359
CPU 1 Branch Prediction Accuracy: 94.56% MPKI: 7.709 Average ROB Occupancy at Mispredict: 61.54
Branch type MPKI
BRANCH_DIRECT_JUMP: 0.00711
BRANCH_INDIRECT: 0.00237
BRANCH_CONDITIONAL: 7.05
BRANCH_DIRECT_CALL: 0.0271
BRANCH_INDIRECT_CALL: 0
BRANCH_RETURN: 0.627


CPU 2 cumulative IPC: 1.72 instructions: 196426083 cycles: 114206359
CPU 2 Branch Prediction Accuracy: 97.69% MPKI: 3.535 Average ROB Occupancy at Mispredict: 103.1
Branch type MPKI
BRANCH_DIRECT_JUMP: 0.0317
BRANCH_INDIRECT: 0.000881
BRANCH_CONDITIONAL: 3.47
BRANCH_DIRECT_CALL: 0.00141
BRANCH_INDIRECT_CALL: 0
BRANCH_RETURN: 0.031


CPU 3 cumulative IPC: 2.13 instructions: 243237478 cycles: 114206359
CPU 3 Branch Prediction Accuracy: 94.91% MPKI: 6.813 Average ROB Occupancy at Mispredict: 78.95
Branch type MPKI
BRANCH_DIRECT_JUMP: 0
BRANCH_INDIRECT: 0
BRANCH_CONDITIONAL: 6.8
BRANCH_DIRECT_CALL: 0
BRANCH_INDIRECT_CALL: 0
BRANCH_RETURN: 0.0168

LLC TOTAL        ACCESS:     176516 HIT:      66964 MISS:     109552
LLC LOAD         ACCESS:      11297 HIT:       8210 MISS:       3087
LLC RFO          ACCESS:      14067 HIT:          0 MISS:      14067
LLC PREFETCH     ACCESS:     136823 HIT:      57040 MISS:      79783
LLC WRITE        ACCESS:      14243 HIT:       1714 MISS:      12529
LLC TRANSLATION  ACCESS:         86 HIT:          0 MISS:         86
LLC PREFETCH REQUESTED:          0 ISSUED:          0 USEFUL:          0 USELESS:          0
LLC AVERAGE MISS LATENCY: 1161 cycles
LLC TOTAL        ACCESS:    1515345 HIT:     830109 MISS:     685236
LLC LOAD         ACCESS:     106291 HIT:      59339 MISS:      46952
LLC RFO          ACCESS:     522361 HIT:      16213 MISS:     506148
LLC PREFETCH     ACCESS:     354927 HIT:     227216 MISS:     127711
LLC WRITE        ACCESS:     529153 HIT:     527095 MISS:       2058
LLC TRANSLATION  ACCESS:       2613 HIT:        246 MISS:       2367
LLC PREFETCH REQUESTED:          0 ISSUED:          0 USEFUL:          0 USELESS:          0
LLC AVERAGE MISS LATENCY: 1161 cycles
LLC TOTAL        ACCESS:    5082148 HIT:    3601937 MISS:    1480211
LLC LOAD         ACCESS:     617864 HIT:     494390 MISS:     123474
LLC RFO          ACCESS:     397672 HIT:     172558 MISS:     225114
LLC PREFETCH     ACCESS:    3485711 HIT:    2360422 MISS:    1125289
LLC WRITE        ACCESS:     574621 HIT:     572414 MISS:       2207
LLC TRANSLATION  ACCESS:       6280 HIT:       2153 MISS:       4127
LLC PREFETCH REQUESTED:          0 ISSUED:          0 USEFUL:          0 USELESS:          0
LLC AVERAGE MISS LATENCY: 1161 cycles
LLC TOTAL        ACCESS:      16378 HIT:       4443 MISS:      11935
LLC LOAD         ACCESS:       2264 HIT:       1099 MISS:       1165
LLC RFO          ACCESS:       4075 HIT:        121 MISS:       3954
LLC PREFETCH     ACCESS:       8901 HIT:       3223 MISS:       5678
LLC WRITE        ACCESS:        980 HIT:          0 MISS:        980
LLC TRANSLATION  ACCESS:        158 HIT:          0 MISS:        158
LLC PREFETCH REQUESTED:          0 ISSUED:          0 USEFUL:          0 USELESS:          0
LLC AVERAGE MISS LATENCY: 1161 cycles
cpu0_DTLB TOTAL        ACCESS:   38119946 HIT:   38116403 MISS:       3543
cpu0_DTLB LOAD         ACCESS:   38119946 HIT:   38116403 MISS:       3543
cpu0_DTLB RFO          ACCESS:          0 HIT:          0 MISS:          0
cpu0_DTLB PREFETCH     ACCESS:          0 HIT:          0 MISS:          0
cpu0_DTLB WRITE        ACCESS:          0 HIT:          0 MISS:          0
cpu0_DTLB TRANSLATION  ACCESS:          0 HIT:          0 MISS:          0
cpu0_DTLB PREFETCH REQUESTED:          0 ISSUED:          0 USEFUL:          0 USELESS:          0
cpu0_DTLB AVERAGE MISS LATENCY: 92.58 cycles
cpu0_DTLB TOTAL        ACCESS:          0 HIT:          0 MISS:          0
cpu0_DTLB LOAD         ACCESS:          0 HIT:          0 MISS:          0
cpu0_DTLB RFO          ACCESS:          0 HIT:          0 MISS:          0
cpu0_DTLB PREFETCH     ACCESS:          0 HIT:          0 MISS:          0
cpu0_DTLB WRITE        ACCESS:          0 HIT:          0 MISS:          0
cpu0_DTLB TRANSLATION  ACCESS:          0 HIT:          0 MISS:          0
cpu0_DTLB PREFETCH REQUESTED:          0 ISSUED:          0 USEFUL:          0 USELESS:          0
cpu0_DTLB AVERAGE MISS LATENCY: 92.58 cycles
cpu0_DTLB TOTAL        ACCESS:          0 HIT:          0 MISS:          0
cpu0_DTLB LOAD         ACCESS:          0 HIT:          0 MISS:          0
cpu0_DTLB RFO          ACCESS:          0 HIT:          0 MISS:          0
cpu0_DTLB PREFETCH     ACCESS:          0 HIT:          0 MISS:          0
cpu0_DTLB WRITE        ACCESS:          0 HIT:          0 MISS:          0
cpu0_DTLB TRANSLATION  ACCESS:          0 HIT:          0 MISS:          0
cpu0_DTLB PREFETCH REQUESTED:          0 ISSUED:          0 USEFUL:          0 USELESS:          0
cpu0_DTLB AVERAGE MISS LATENCY: 92.58 cycles
cpu0_DTLB TOTAL        ACCESS:          0 HIT:          0 MISS:          0
cpu0_DTLB LOAD         ACCESS:          0 HIT:          0 MISS:          0
cpu0_DTLB RFO          ACCESS:          0 HIT:          0 MISS:          0
cpu0_DTLB PREFETCH     ACCESS:          0 HIT:          0 MISS:          0
cpu0_DTLB WRITE        ACCESS:          0 HIT:          0 MISS:          0
cpu0_DTLB TRANSLATION  ACCESS:          0 HIT:          0 MISS:          0
cpu0_DTLB PREFETCH REQUESTED:          0 ISSUED:          0 USEFUL:          0 USELESS:          0
cpu0_DTLB AVERAGE MISS LATENCY: 92.58 cycles
cpu0_ITLB TOTAL        ACCESS:    3105875 HIT:    3105875 MISS:          0
cpu0_ITLB LOAD         ACCESS:    3105875 HIT:    3105875 MISS:          0
cpu0_ITLB RFO          ACCESS:          0 HIT:          0 MISS:          0
cpu0_ITLB PREFETCH     ACCESS:          0 HIT:          0 MISS:          0
cpu0_ITLB WRITE        ACCESS:          0 HIT:          0 MISS:          0
cpu0_ITLB TRANSLATION  ACCESS:          0 HIT:          0 MISS:          0
cpu0_ITLB PREFETCH REQUESTED:          0 ISSUED:          0 USEFUL:          0 USELESS:          0
cpu0_ITLB AVERAGE MISS LATENCY: -nan cycles
cpu0_ITLB TOTAL        ACCESS:          0 HIT:          0 MISS:          0
cpu0_ITLB LOAD         ACCESS:          0 HIT:          0 MISS:          0
cpu0_ITLB RFO          ACCESS:          0 HIT:          0 MISS:          0
cpu0_ITLB PREFETCH     ACCESS:          0 HIT:          0 MISS:          0
cpu0_ITLB WRITE        ACCESS:          0 HIT:          0 MISS:          0
cpu0_ITLB TRANSLATION  ACCESS:          0 HIT:          0 MISS:          0
cpu0_ITLB PREFETCH REQUESTED:          0 ISSUED:          0 USEFUL:          0 USELESS:          0
cpu0_ITLB AVERAGE MISS LATENCY: -nan cycles
cpu0_ITLB TOTAL        ACCESS:          0 HIT:          0 MISS:          0
cpu0_ITLB LOAD         ACCESS:          0 HIT:          0 MISS:          0
cpu0_ITLB RFO          ACCESS:          0 HIT:          0 MISS:          0
cpu0_ITLB PREFETCH     ACCESS:          0 HIT:          0 MISS:          0
cpu0_ITLB WRITE        ACCESS:          0 HIT:          0 MISS:          0
cpu0_ITLB TRANSLATION  ACCESS:          0 HIT:          0 MISS:          0
cpu0_ITLB PREFETCH REQUESTED:          0 ISSUED:          0 USEFUL:          0 USELESS:          0
cpu0_ITLB AVERAGE MISS LATENCY: -nan cycles
cpu0_ITLB TOTAL        ACCESS:          0 HIT:          0 MISS:          0
cpu0_ITLB LOAD         ACCESS:          0 HIT:          0 MISS:          0
cpu0_ITLB RFO          ACCESS:          0 HIT:          0 MISS:          0
cpu0_ITLB PREFETCH     ACCESS:          0 HIT:          0 MISS:          0
cpu0_ITLB WRITE        ACCESS:          0 HIT:          0 MISS:          0
cpu0_ITLB TRANSLATION  ACCESS:          0 HIT:          0 MISS:          0
cpu0_ITLB PREFETCH REQUESTED:          0 ISSUED:          0 USEFUL:          0 USELESS:          0
cpu0_ITLB AVERAGE MISS LATENCY: -nan cycles
cpu0_L1D TOTAL        ACCESS:   52481359 HIT:   52382915 MISS:      98444
cpu0_L1D LOAD         ACCESS:   30023559 HIT:   29998045 MISS:      25514
cpu0_L1D RFO          ACCESS:          0 HIT:          0 MISS:          0
cpu0_L1D PREFETCH     ACCESS:          0 HIT:          0 MISS:          0
cpu0_L1D WRITE        ACCESS:   22457024 HIT:   22384180 MISS:      72844
cpu0_L1D TRANSLATION  ACCESS:        776 HIT:        690 MISS:         86
cpu0_L1D PREFETCH REQUESTED:          0 ISSUED:          0 USEFUL:          0 USELESS:          0
cpu0_L1D AVERAGE MISS LATENCY: 401.9 cycles
cpu0_L1D TOTAL        ACCESS:          0 HIT:          0 MISS:          0
cpu0_L1D LOAD         ACCESS:          0 HIT:          0 MISS:          0
cpu0_L1D RFO          ACCESS:          0 HIT:          0 MISS:          0
cpu0_L1D PREFETCH     ACCESS:          0 HIT:          0 MISS:          0
cpu0_L1D WRITE        ACCESS:          0 HIT:          0 MISS:          0
cpu0_L1D TRANSLATION  ACCESS:          0 HIT:          0 MISS:          0
cpu0_L1D PREFETCH REQUESTED:          0 ISSUED:          0 USEFUL:          0 USELESS:          0
cpu0_L1D AVERAGE MISS LATENCY: 401.9 cycles
cpu0_L1D TOTAL        ACCESS:          0 HIT:          0 MISS:          0
cpu0_L1D LOAD         ACCESS:          0 HIT:          0 MISS:          0
cpu0_L1D RFO          ACCESS:          0 HIT:          0 MISS:          0
cpu0_L1D PREFETCH     ACCESS:          0 HIT:          0 MISS:          0
cpu0_L1D WRITE        ACCESS:          0 HIT:          0 MISS:          0
cpu0_L1D TRANSLATION  ACCESS:          0 HIT:          0 MISS:          0
cpu0_L1D PREFETCH REQUESTED:          0 ISSUED:          0 USEFUL:          0 USELESS:          0
cpu0_L1D AVERAGE MISS LATENCY: 401.9 cycles
cpu0_L1D TOTAL        ACCESS:          0 HIT:          0 MISS:          0
cpu0_L1D LOAD         ACCESS:          0 HIT:          0 MISS:          0
cpu0_L1D RFO          ACCESS:          0 HIT:          0 MISS:          0
cpu0_L1D PREFETCH     ACCESS:          0 HIT:          0 MISS:          0
cpu0_L1D WRITE        ACCESS:          0 HIT:          0 MISS:          0
cpu0_L1D TRANSLATION  ACCESS:          0 HIT:          0 MISS:          0
cpu0_L1D PREFETCH REQUESTED:          0 ISSUED:          0 USEFUL:          0 USELESS:          0
cpu0_L1D AVERAGE MISS LATENCY: 401.9 cycles
cpu0_L1I TOTAL        ACCESS:    3685430 HIT:    3685430 MISS:          0
cpu0_L1I LOAD         ACCESS:    3685430 HIT:    3685430 MISS:          0
cpu0_L1I RFO          ACCESS:          0 HIT:          0 MISS:          0
cpu0_L1I PREFETCH     ACCESS:          0 HIT:          0 MISS:          0
cpu0_L1I WRITE        ACCESS:          0 HIT:          0 MISS:          0
cpu0_L1I TRANSLATION  ACCESS:          0 HIT:          0 MISS:          0
cpu0_L1I PREFETCH REQUESTED:          0 ISSUED:          0 USEFUL:          0 USELESS:          0
cpu0_L1I AVERAGE MISS LATENCY: -nan cycles
cpu0_L1I TOTAL        ACCESS:          0 HIT:          0 MISS:          0
cpu0_L1I LOAD         ACCESS:          0 HIT:          0 MISS:          0
cpu0_L1I RFO          ACCESS:          0 HIT:          0 MISS:          0
cpu0_L1I PREFETCH     ACCESS:          0 HIT:          0 MISS:          0
cpu0_L1I WRITE        ACCESS:          0 HIT:          0 MISS:          0
cpu0_L1I TRANSLATION  ACCESS:          0 HIT:          0 MISS:          0
cpu0_L1I PREFETCH REQUESTED:          0 ISSUED:          0 USEFUL:          0 USELESS:          0
cpu0_L1I AVERAGE MISS LATENCY: -nan cycles
cpu0_L1I TOTAL        ACCESS:          0 HIT:          0 MISS:          0
cpu0_L1I LOAD         ACCESS:          0 HIT:          0 MISS:          0
cpu0_L1I RFO          ACCESS:          0 HIT:          0 MISS:          0
cpu0_L1I PREFETCH     ACCESS:          0 HIT:          0 MISS:          0
cpu0_L1I WRITE        ACCESS:          0 HIT:          0 MISS:          0
cpu0_L1I TRANSLATION  ACCESS:          0 HIT:          0 MISS:          0
cpu0_L1I PREFETCH REQUESTED:          0 ISSUED:          0 USEFUL:          0 USELESS:          0
cpu0_L1I AVERAGE MISS LATENCY: -nan cycles
cpu0_L1I TOTAL        ACCESS:          0 HIT:          0 MISS:          0
cpu0_L1I LOAD         ACCESS:          0 HIT:          0 MISS:          0
cpu0_L1I RFO          ACCESS:          0 HIT:          0 MISS:          0
cpu0_L1I PREFETCH     ACCESS:          0 HIT:          0 MISS:          0
cpu0_L1I WRITE        ACCESS:          0 HIT:          0 MISS:          0
cpu0_L1I TRANSLATION  ACCESS:          0 HIT:          0 MISS:          0
cpu0_L1I PREFETCH REQUESTED:          0 ISSUED:          0 USEFUL:          0 USELESS:          0
cpu0_L1I AVERAGE MISS LATENCY: -nan cycles
cpu0_L2C TOTAL        ACCESS:     203299 HIT:      24106 MISS:     179193
cpu0_L2C LOAD         ACCESS:      21453 HIT:       8380 MISS:      13073
cpu0_L2C RFO          ACCESS:      14756 HIT:        689 MISS:      14067
cpu0_L2C PREFETCH     ACCESS:     152226 HIT:        259 MISS:     151967
cpu0_L2C WRITE        ACCESS:      14778 HIT:      14778 MISS:          0
cpu0_L2C TRANSLATION  ACCESS:         86 HIT:          0 MISS:         86
cpu0_L2C PREFETCH REQUESTED:     152512 ISSUED:     152226 USEFUL:       9931 USELESS:        133
cpu0_L2C AVERAGE MISS LATENCY: 279.8 cycles
cpu0_L2C TOTAL        ACCESS:          0 HIT:          0 MISS:          0
cpu0_L2C LOAD         ACCESS:          0 HIT:          0 MISS:          0
cpu0_L2C RFO          ACCESS:          0 HIT:          0 MISS:          0
cpu0_L2C PREFETCH     ACCESS:          0 HIT:          0 MISS:          0
cpu0_L2C WRITE        ACCESS:          0 HIT:          0 MISS:          0
cpu0_L2C TRANSLATION  ACCESS:          0 HIT:          0 MISS:          0
cpu0_L2C PREFETCH REQUESTED:     152512 ISSUED:     152226 USEFUL:       9931 USELESS:        133
cpu0_L2C AVERAGE MISS LATENCY: 279.8 cycles
cpu0_L2C TOTAL        ACCESS:          0 HIT:          0 MISS:          0
cpu0_L2C LOAD         ACCESS:          0 HIT:          0 MISS:          0
cpu0_L2C RFO          ACCESS:          0 HIT:          0 MISS:          0
cpu0_L2C PREFETCH     ACCESS:          0 HIT:          0 MISS:          0
cpu0_L2C WRITE        ACCESS:          0 HIT:          0 MISS:          0
cpu0_L2C TRANSLATION  ACCESS:          0 HIT:          0 MISS:          0
cpu0_L2C PREFETCH REQUESTED:     152512 ISSUED:     152226 USEFUL:       9931 USELESS:        133
cpu0_L2C AVERAGE MISS LATENCY: 279.8 cycles
cpu0_L2C TOTAL        ACCESS:          0 HIT:          0 MISS:          0
cpu0_L2C LOAD         ACCESS:          0 HIT:          0 MISS:          0
cpu0_L2C RFO          ACCESS:          0 HIT:          0 MISS:          0
cpu0_L2C PREFETCH     ACCESS:          0 HIT:          0 MISS:          0
cpu0_L2C WRITE        ACCESS:          0 HIT:          0 MISS:          0
cpu0_L2C TRANSLATION  ACCESS:          0 HIT:          0 MISS:          0
cpu0_L2C PREFETCH REQUESTED:     152512 ISSUED:     152226 USEFUL:       9931 USELESS:        133
cpu0_L2C AVERAGE MISS LATENCY: 279.8 cycles
cpu0_STLB TOTAL        ACCESS:        843 HIT:         69 MISS:        774
cpu0_STLB LOAD         ACCESS:        843 HIT:         69 MISS:        774
cpu0_STLB RFO          ACCESS:          0 HIT:          0 MISS:          0
cpu0_STLB PREFETCH     ACCESS:          0 HIT:          0 MISS:          0
cpu0_STLB WRITE        ACCESS:          0 HIT:          0 MISS:          0
cpu0_STLB TRANSLATION  ACCESS:          0 HIT:          0 MISS:          0
cpu0_STLB PREFETCH REQUESTED:          0 ISSUED:          0 USEFUL:          0 USELESS:          0
cpu0_STLB AVERAGE MISS LATENCY: 479.5 cycles
cpu0_STLB TOTAL        ACCESS:          0 HIT:          0 MISS:          0
cpu0_STLB LOAD         ACCESS:          0 HIT:          0 MISS:          0
cpu0_STLB RFO          ACCESS:          0 HIT:          0 MISS:          0
cpu0_STLB PREFETCH     ACCESS:          0 HIT:          0 MISS:          0
cpu0_STLB WRITE        ACCESS:          0 HIT:          0 MISS:          0
cpu0_STLB TRANSLATION  ACCESS:          0 HIT:          0 MISS:          0
cpu0_STLB PREFETCH REQUESTED:          0 ISSUED:          0 USEFUL:          0 USELESS:          0
cpu0_STLB AVERAGE MISS LATENCY: 479.5 cycles
cpu0_STLB TOTAL        ACCESS:          0 HIT:          0 MISS:          0
cpu0_STLB LOAD         ACCESS:          0 HIT:          0 MISS:          0
cpu0_STLB RFO          ACCESS:          0 HIT:          0 MISS:          0
cpu0_STLB PREFETCH     ACCESS:          0 HIT:          0 MISS:          0
cpu0_STLB WRITE        ACCESS:          0 HIT:          0 MISS:          0
cpu0_STLB TRANSLATION  ACCESS:          0 HIT:          0 MISS:          0
cpu0_STLB PREFETCH REQUESTED:          0 ISSUED:          0 USEFUL:          0 USELESS:          0
cpu0_STLB AVERAGE MISS LATENCY: 479.5 cycles
cpu0_STLB TOTAL        ACCESS:          0 HIT:          0 MISS:          0
cpu0_STLB LOAD         ACCESS:          0 HIT:          0 MISS:          0
cpu0_STLB RFO          ACCESS:          0 HIT:          0 MISS:          0
cpu0_STLB PREFETCH     ACCESS:          0 HIT:          0 MISS:          0
cpu0_STLB WRITE        ACCESS:          0 HIT:          0 MISS:          0
cpu0_STLB TRANSLATION  ACCESS:          0 HIT:          0 MISS:          0
cpu0_STLB PREFETCH REQUESTED:          0 ISSUED:          0 USEFUL:          0 USELESS:          0
cpu0_STLB AVERAGE MISS LATENCY: 479.5 cycles
cpu1_DTLB TOTAL        ACCESS:          0 HIT:          0 MISS:          0
cpu1_DTLB LOAD         ACCESS:          0 HIT:          0 MISS:          0
cpu1_DTLB RFO          ACCESS:          0 HIT:          0 MISS:          0
cpu1_DTLB PREFETCH     ACCESS:          0 HIT:          0 MISS:          0
cpu1_DTLB WRITE        ACCESS:          0 HIT:          0 MISS:          0
cpu1_DTLB TRANSLATION  ACCESS:          0 HIT:          0 MISS:          0
cpu1_DTLB PREFETCH REQUESTED:          0 ISSUED:          0 USEFUL:          0 USELESS:          0
cpu1_DTLB AVERAGE MISS LATENCY: 11.39 cycles
cpu1_DTLB TOTAL        ACCESS:   22300278 HIT:   22045133 MISS:     255145
cpu1_DTLB LOAD         ACCESS:   22300278 HIT:   22045133 MISS:     255145
cpu1_DTLB RFO          ACCESS:          0 HIT:          0 MISS:          0
cpu1_DTLB PREFETCH     ACCESS:          0 HIT:          0 MISS:          0
cpu1_DTLB WRITE        ACCESS:          0 HIT:          0 MISS:          0
cpu1_DTLB TRANSLATION  ACCESS:          0 HIT:          0 MISS:          0
cpu1_DTLB PREFETCH REQUESTED:          0 ISSUED:          0 USEFUL:          0 USELESS:          0
cpu1_DTLB AVERAGE MISS LATENCY: 11.39 cycles
cpu1_DTLB TOTAL        ACCESS:          0 HIT:          0 MISS:          0
cpu1_DTLB LOAD         ACCESS:          0 HIT:          0 MISS:          0
cpu1_DTLB RFO          ACCESS:          0 HIT:          0 MISS:          0
cpu1_DTLB PREFETCH     ACCESS:          0 HIT:          0 MISS:          0
cpu1_DTLB WRITE        ACCESS:          0 HIT:          0 MISS:          0
cpu1_DTLB TRANSLATION  ACCESS:          0 HIT:          0 MISS:          0
cpu1_DTLB PREFETCH REQUESTED:          0 ISSUED:          0 USEFUL:          0 USELESS:          0
cpu1_DTLB AVERAGE MISS LATENCY: 11.39 cycles
cpu1_DTLB TOTAL        ACCESS:          0 HIT:          0 MISS:          0
cpu1_DTLB LOAD         ACCESS:          0 HIT:          0 MISS:          0
cpu1_DTLB RFO          ACCESS:          0 HIT:          0 MISS:          0
cpu1_DTLB PREFETCH     ACCESS:          0 HIT:          0 MISS:          0
cpu1_DTLB WRITE        ACCESS:          0 HIT:          0 MISS:          0
cpu1_DTLB TRANSLATION  ACCESS:          0 HIT:          0 MISS:          0
cpu1_DTLB PREFETCH REQUESTED:          0 ISSUED:          0 USEFUL:          0 USELESS:          0
cpu1_DTLB AVERAGE MISS LATENCY: 11.39 cycles
cpu1_ITLB TOTAL        ACCESS:          0 HIT:          0 MISS:          0
cpu1_ITLB LOAD         ACCESS:          0 HIT:          0 MISS:          0
cpu1_ITLB RFO          ACCESS:          0 HIT:          0 MISS:          0
cpu1_ITLB PREFETCH     ACCESS:          0 HIT:          0 MISS:          0
cpu1_ITLB WRITE        ACCESS:          0 HIT:          0 MISS:          0
cpu1_ITLB TRANSLATION  ACCESS:          0 HIT:          0 MISS:          0
cpu1_ITLB PREFETCH REQUESTED:          0 ISSUED:          0 USEFUL:          0 USELESS:          0
cpu1_ITLB AVERAGE MISS LATENCY: 88.7 cycles
cpu1_ITLB TOTAL        ACCESS:    2820322 HIT:    2816993 MISS:       3329
cpu1_ITLB LOAD         ACCESS:    2820322 HIT:    2816993 MISS:       3329
cpu1_ITLB RFO          ACCESS:          0 HIT:          0 MISS:          0
cpu1_ITLB PREFETCH     ACCESS:          0 HIT:          0 MISS:          0
cpu1_ITLB WRITE        ACCESS:          0 HIT:          0 MISS:          0
cpu1_ITLB TRANSLATION  ACCESS:          0 HIT:          0 MISS:          0
cpu1_ITLB PREFETCH REQUESTED:          0 ISSUED:          0 USEFUL:          0 USELESS:          0
cpu1_ITLB AVERAGE MISS LATENCY: 88.7 cycles
cpu1_ITLB TOTAL        ACCESS:          0 HIT:          0 MISS:          0
cpu1_ITLB LOAD         ACCESS:          0 HIT:          0 MISS:          0
cpu1_ITLB RFO          ACCESS:          0 HIT:          0 MISS:          0
cpu1_ITLB PREFETCH     ACCESS:          0 HIT:          0 MISS:          0
cpu1_ITLB WRITE        ACCESS:          0 HIT:          0 MISS:          0
cpu1_ITLB TRANSLATION  ACCESS:          0 HIT:          0 MISS:          0
cpu1_ITLB PREFETCH REQUESTED:          0 ISSUED:          0 USEFUL:          0 USELESS:          0
cpu1_ITLB AVERAGE MISS LATENCY: 88.7 cycles
cpu1_ITLB TOTAL        ACCESS:          0 HIT:          0 MISS:          0
cpu1_ITLB LOAD         ACCESS:          0 HIT:          0 MISS:          0
cpu1_ITLB RFO          ACCESS:          0 HIT:          0 MISS:          0
cpu1_ITLB PREFETCH     ACCESS:          0 HIT:          0 MISS:          0
cpu1_ITLB WRITE        ACCESS:          0 HIT:          0 MISS:          0
cpu1_ITLB TRANSLATION  ACCESS:          0 HIT:          0 MISS:          0
cpu1_ITLB PREFETCH REQUESTED:          0 ISSUED:          0 USEFUL:          0 USELESS:          0
cpu1_ITLB AVERAGE MISS LATENCY: 88.7 cycles
cpu1_L1D TOTAL        ACCESS:          0 HIT:          0 MISS:          0
cpu1_L1D LOAD         ACCESS:          0 HIT:          0 MISS:          0
cpu1_L1D RFO          ACCESS:          0 HIT:          0 MISS:          0
cpu1_L1D PREFETCH     ACCESS:          0 HIT:          0 MISS:          0
cpu1_L1D WRITE        ACCESS:          0 HIT:          0 MISS:          0
cpu1_L1D TRANSLATION  ACCESS:          0 HIT:          0 MISS:          0
cpu1_L1D PREFETCH REQUESTED:          0 ISSUED:          0 USEFUL:          0 USELESS:          0
cpu1_L1D AVERAGE MISS LATENCY: 408.9 cycles
cpu1_L1D TOTAL        ACCESS:   29327776 HIT:   25608769 MISS:    3719007
cpu1_L1D LOAD         ACCESS:   15190541 HIT:   14387728 MISS:     802813
cpu1_L1D RFO          ACCESS:          0 HIT:          0 MISS:          0
cpu1_L1D PREFETCH     ACCESS:          0 HIT:          0 MISS:          0
cpu1_L1D WRITE        ACCESS:   14125219 HIT:   11212759 MISS:    2912460
cpu1_L1D TRANSLATION  ACCESS:      12016 HIT:       8282 MISS:       3734
cpu1_L1D PREFETCH REQUESTED:          0 ISSUED:          0 USEFUL:          0 USELESS:          0
cpu1_L1D AVERAGE MISS LATENCY: 408.9 cycles
cpu1_L1D TOTAL        ACCESS:          0 HIT:          0 MISS:          0
cpu1_L1D LOAD         ACCESS:          0 HIT:          0 MISS:          0
cpu1_L1D RFO          ACCESS:          0 HIT:          0 MISS:          0
cpu1_L1D PREFETCH     ACCESS:          0 HIT:          0 MISS:          0
cpu1_L1D WRITE        ACCESS:          0 HIT:          0 MISS:          0
cpu1_L1D TRANSLATION  ACCESS:          0 HIT:          0 MISS:          0
cpu1_L1D PREFETCH REQUESTED:          0 ISSUED:          0 USEFUL:          0 USELESS:          0
cpu1_L1D AVERAGE MISS LATENCY: 408.9 cycles
cpu1_L1D TOTAL        ACCESS:          0 HIT:          0 MISS:          0
cpu1_L1D LOAD         ACCESS:          0 HIT:          0 MISS:          0
cpu1_L1D RFO          ACCESS:          0 HIT:          0 MISS:          0
cpu1_L1D PREFETCH     ACCESS:          0 HIT:          0 MISS:          0
cpu1_L1D WRITE        ACCESS:          0 HIT:          0 MISS:          0
cpu1_L1D TRANSLATION  ACCESS:          0 HIT:          0 MISS:          0
cpu1_L1D PREFETCH REQUESTED:          0 ISSUED:          0 USEFUL:          0 USELESS:          0
cpu1_L1D AVERAGE MISS LATENCY: 408.9 cycles
cpu1_L1I TOTAL        ACCESS:          0 HIT:          0 MISS:          0
cpu1_L1I LOAD         ACCESS:          0 HIT:          0 MISS:          0
cpu1_L1I RFO          ACCESS:          0 HIT:          0 MISS:          0
cpu1_L1I PREFETCH     ACCESS:          0 HIT:          0 MISS:          0
cpu1_L1I WRITE        ACCESS:          0 HIT:          0 MISS:          0
cpu1_L1I TRANSLATION  ACCESS:          0 HIT:          0 MISS:          0
cpu1_L1I PREFETCH REQUESTED:          0 ISSUED:          0 USEFUL:          0 USELESS:          0
cpu1_L1I AVERAGE MISS LATENCY: 66.17 cycles
cpu1_L1I TOTAL        ACCESS:    3619489 HIT:    3545805 MISS:      73684
cpu1_L1I LOAD         ACCESS:    3619489 HIT:    3545805 MISS:      73684
cpu1_L1I RFO          ACCESS:          0 HIT:          0 MISS:          0
cpu1_L1I PREFETCH     ACCESS:          0 HIT:          0 MISS:          0
cpu1_L1I WRITE        ACCESS:          0 HIT:          0 MISS:          0
cpu1_L1I TRANSLATION  ACCESS:          0 HIT:          0 MISS:          0
cpu1_L1I PREFETCH REQUESTED:          0 ISSUED:          0 USEFUL:          0 USELESS:          0
cpu1_L1I AVERAGE MISS LATENCY: 66.17 cycles
cpu1_L1I TOTAL        ACCESS:          0 HIT:          0 MISS:          0
cpu1_L1I LOAD         ACCESS:          0 HIT:          0 MISS:          0
cpu1_L1I RFO          ACCESS:          0 HIT:          0 MISS:          0
cpu1_L1I PREFETCH     ACCESS:          0 HIT:          0 MISS:          0
cpu1_L1I WRITE        ACCESS:          0 HIT:          0 MISS:          0
cpu1_L1I TRANSLATION  ACCESS:          0 HIT:          0 MISS:          0
cpu1_L1I PREFETCH REQUESTED:          0 ISSUED:          0 USEFUL:          0 USELESS:          0
cpu1_L1I AVERAGE MISS LATENCY: 66.17 cycles
cpu1_L1I TOTAL        ACCESS:          0 HIT:          0 MISS:          0
cpu1_L1I LOAD         ACCESS:          0 HIT:          0 MISS:          0
cpu1_L1I RFO          ACCESS:          0 HIT:          0 MISS:          0
cpu1_L1I PREFETCH     ACCESS:          0 HIT:          0 MISS:          0
cpu1_L1I WRITE        ACCESS:          0 HIT:          0 MISS:          0
cpu1_L1I TRANSLATION  ACCESS:          0 HIT:          0 MISS:          0
cpu1_L1I PREFETCH REQUESTED:          0 ISSUED:          0 USEFUL:          0 USELESS:          0
cpu1_L1I AVERAGE MISS LATENCY: 66.17 cycles
cpu1_L2C TOTAL        ACCESS:          0 HIT:          0 MISS:          0
cpu1_L2C LOAD         ACCESS:          0 HIT:          0 MISS:          0
cpu1_L2C RFO          ACCESS:          0 HIT:          0 MISS:          0
cpu1_L2C PREFETCH     ACCESS:          0 HIT:          0 MISS:          0
cpu1_L2C WRITE        ACCESS:          0 HIT:          0 MISS:          0
cpu1_L2C TRANSLATION  ACCESS:          0 HIT:          0 MISS:          0
cpu1_L2C PREFETCH REQUESTED:    3236418 ISSUED:    2138516 USEFUL:      12307 USELESS:       1010
cpu1_L2C AVERAGE MISS LATENCY: 1404 cycles
cpu1_L2C TOTAL        ACCESS:    4349957 HIT:    3264214 MISS:    1085743
cpu1_L2C LOAD         ACCESS:     606331 HIT:     494906 MISS:     111425
cpu1_L2C RFO          ACCESS:     762084 HIT:     239720 MISS:     522364
cpu1_L2C PREFETCH     ACCESS:    2138513 HIT:    1689227 MISS:     449286
cpu1_L2C WRITE        ACCESS:     839331 HIT:     839276 MISS:         55
cpu1_L2C TRANSLATION  ACCESS:       3698 HIT:       1085 MISS:       2613
cpu1_L2C PREFETCH REQUESTED:    3236418 ISSUED:    2138516 USEFUL:      12307 USELESS:       1010
cpu1_L2C AVERAGE MISS LATENCY: 1404 cycles
cpu1_L2C TOTAL        ACCESS:          0 HIT:          0 MISS:          0
cpu1_L2C LOAD         ACCESS:          0 HIT:          0 MISS:          0
cpu1_L2C RFO          ACCESS:          0 HIT:          0 MISS:          0
cpu1_L2C PREFETCH     ACCESS:          0 HIT:          0 MISS:          0
cpu1_L2C WRITE        ACCESS:          0 HIT:          0 MISS:          0
cpu1_L2C TRANSLATION  ACCESS:          0 HIT:          0 MISS:          0
cpu1_L2C PREFETCH REQUESTED:    3236418 ISSUED:    2138516 USEFUL:      12307 USELESS:       1010
cpu1_L2C AVERAGE MISS LATENCY: 1404 cycles
cpu1_L2C TOTAL        ACCESS:          0 HIT:          0 MISS:          0
cpu1_L2C LOAD         ACCESS:          0 HIT:          0 MISS:          0
cpu1_L2C RFO          ACCESS:          0 HIT:          0 MISS:          0
cpu1_L2C PREFETCH     ACCESS:          0 HIT:          0 MISS:          0
cpu1_L2C WRITE        ACCESS:          0 HIT:          0 MISS:          0
cpu1_L2C TRANSLATION  ACCESS:          0 HIT:          0 MISS:          0
cpu1_L2C PREFETCH REQUESTED:    3236418 ISSUED:    2138516 USEFUL:      12307 USELESS:       1010
cpu1_L2C AVERAGE MISS LATENCY: 1404 cycles
cpu1_STLB TOTAL        ACCESS:          0 HIT:          0 MISS:          0
cpu1_STLB LOAD         ACCESS:          0 HIT:          0 MISS:          0
cpu1_STLB RFO          ACCESS:          0 HIT:          0 MISS:          0
cpu1_STLB PREFETCH     ACCESS:          0 HIT:          0 MISS:          0
cpu1_STLB WRITE        ACCESS:          0 HIT:          0 MISS:          0
cpu1_STLB TRANSLATION  ACCESS:          0 HIT:          0 MISS:          0
cpu1_STLB PREFETCH REQUESTED:          0 ISSUED:          0 USEFUL:          0 USELESS:          0
cpu1_STLB AVERAGE MISS LATENCY: 271.6 cycles
cpu1_STLB TOTAL        ACCESS:     105467 HIT:      93784 MISS:      11683
cpu1_STLB LOAD         ACCESS:     105467 HIT:      93784 MISS:      11683
cpu1_STLB RFO          ACCESS:          0 HIT:          0 MISS:          0
cpu1_STLB PREFETCH     ACCESS:          0 HIT:          0 MISS:          0
cpu1_STLB WRITE        ACCESS:          0 HIT:          0 MISS:          0
cpu1_STLB TRANSLATION  ACCESS:          0 HIT:          0 MISS:          0
cpu1_STLB PREFETCH REQUESTED:          0 ISSUED:          0 USEFUL:          0 USELESS:          0
cpu1_STLB AVERAGE MISS LATENCY: 271.6 cycles
cpu1_STLB TOTAL        ACCESS:          0 HIT:          0 MISS:          0
cpu1_STLB LOAD         ACCESS:          0 HIT:          0 MISS:          0
cpu1_STLB RFO          ACCESS:          0 HIT:          0 MISS:          0
cpu1_STLB PREFETCH     ACCESS:          0 HIT:          0 MISS:          0
cpu1_STLB WRITE        ACCESS:          0 HIT:          0 MISS:          0
cpu1_STLB TRANSLATION  ACCESS:          0 HIT:          0 MISS:          0
cpu1_STLB PREFETCH REQUESTED:          0 ISSUED:          0 USEFUL:          0 USELESS:          0
cpu1_STLB AVERAGE MISS LATENCY: 271.6 cycles
cpu1_STLB TOTAL        ACCESS:          0 HIT:          0 MISS:          0
cpu1_STLB LOAD         ACCESS:          0 HIT:          0 MISS:          0
cpu1_STLB RFO          ACCESS:          0 HIT:          0 MISS:          0
cpu1_STLB PREFETCH     ACCESS:          0 HIT:          0 MISS:          0
cpu1_STLB WRITE        ACCESS:          0 HIT:          0 MISS:          0
cpu1_STLB TRANSLATION  ACCESS:          0 HIT:          0 MISS:          0
cpu1_STLB PREFETCH REQUESTED:          0 ISSUED:          0 USEFUL:          0 USELESS:          0
cpu1_STLB AVERAGE MISS LATENCY: 271.6 cycles
cpu2_DTLB TOTAL        ACCESS:          0 HIT:          0 MISS:          0
cpu2_DTLB LOAD         ACCESS:          0 HIT:          0 MISS:          0
cpu2_DTLB RFO          ACCESS:          0 HIT:          0 MISS:          0
cpu2_DTLB PREFETCH     ACCESS:          0 HIT:          0 MISS:          0
cpu2_DTLB WRITE        ACCESS:          0 HIT:          0 MISS:          0
cpu2_DTLB TRANSLATION  ACCESS:          0 HIT:          0 MISS:          0
cpu2_DTLB PREFETCH REQUESTED:          0 ISSUED:          0 USEFUL:          0 USELESS:          0
cpu2_DTLB AVERAGE MISS LATENCY: 16.83 cycles
cpu2_DTLB TOTAL        ACCESS:          0 HIT:          0 MISS:          0
cpu2_DTLB LOAD         ACCESS:          0 HIT:          0 MISS:          0
cpu2_DTLB RFO          ACCESS:          0 HIT:          0 MISS:          0
cpu2_DTLB PREFETCH     ACCESS:          0 HIT:          0 MISS:          0
cpu2_DTLB WRITE        ACCESS:          0 HIT:          0 MISS:          0
cpu2_DTLB TRANSLATION  ACCESS:          0 HIT:          0 MISS:          0
cpu2_DTLB PREFETCH REQUESTED:          0 ISSUED:          0 USEFUL:          0 USELESS:          0
cpu2_DTLB AVERAGE MISS LATENCY: 16.83 cycles
cpu2_DTLB TOTAL        ACCESS:   26449846 HIT:   26205925 MISS:     243921
cpu2_DTLB LOAD         ACCESS:   26449846 HIT:   26205925 MISS:     243921
cpu2_DTLB RFO          ACCESS:          0 HIT:          0 MISS:          0
cpu2_DTLB PREFETCH     ACCESS:          0 HIT:          0 MISS:          0
cpu2_DTLB WRITE        ACCESS:          0 HIT:          0 MISS:          0
cpu2_DTLB TRANSLATION  ACCESS:          0 HIT:          0 MISS:          0
cpu2_DTLB PREFETCH REQUESTED:          0 ISSUED:          0 USEFUL:          0 USELESS:          0
cpu2_DTLB AVERAGE MISS LATENCY: 16.83 cycles
cpu2_DTLB TOTAL        ACCESS:          0 HIT:          0 MISS:          0
cpu2_DTLB LOAD         ACCESS:          0 HIT:          0 MISS:          0
cpu2_DTLB RFO          ACCESS:          0 HIT:          0 MISS:          0
cpu2_DTLB PREFETCH     ACCESS:          0 HIT:          0 MISS:          0
cpu2_DTLB WRITE        ACCESS:          0 HIT:          0 MISS:          0
cpu2_DTLB TRANSLATION  ACCESS:          0 HIT:          0 MISS:          0
cpu2_DTLB PREFETCH REQUESTED:          0 ISSUED:          0 USEFUL:          0 USELESS:          0
cpu2_DTLB AVERAGE MISS LATENCY: 16.83 cycles
cpu2_ITLB TOTAL        ACCESS:          0 HIT:          0 MISS:          0
cpu2_ITLB LOAD         ACCESS:          0 HIT:          0 MISS:          0
cpu2_ITLB RFO          ACCESS:          0 HIT:          0 MISS:          0
cpu2_ITLB PREFETCH     ACCESS:          0 HIT:          0 MISS:          0
cpu2_ITLB WRITE        ACCESS:          0 HIT:          0 MISS:          0
cpu2_ITLB TRANSLATION  ACCESS:          0 HIT:          0 MISS:          0
cpu2_ITLB PREFETCH REQUESTED:          0 ISSUED:          0 USEFUL:          0 USELESS:          0
cpu2_ITLB AVERAGE MISS LATENCY: 10.12 cycles
cpu2_ITLB TOTAL        ACCESS:          0 HIT:          0 MISS:          0
cpu2_ITLB LOAD         ACCESS:          0 HIT:          0 MISS:          0
cpu2_ITLB RFO          ACCESS:          0 HIT:          0 MISS:          0
cpu2_ITLB PREFETCH     ACCESS:          0 HIT:          0 MISS:          0
cpu2_ITLB WRITE        ACCESS:          0 HIT:          0 MISS:          0
cpu2_ITLB TRANSLATION  ACCESS:          0 HIT:          0 MISS:          0
cpu2_ITLB PREFETCH REQUESTED:          0 ISSUED:          0 USEFUL:          0 USELESS:          0
cpu2_ITLB AVERAGE MISS LATENCY: 10.12 cycles
cpu2_ITLB TOTAL        ACCESS:     437950 HIT:     426895 MISS:      11055
cpu2_ITLB LOAD         ACCESS:     437950 HIT:     426895 MISS:      11055
cpu2_ITLB RFO          ACCESS:          0 HIT:          0 MISS:          0
cpu2_ITLB PREFETCH     ACCESS:          0 HIT:          0 MISS:          0
cpu2_ITLB WRITE        ACCESS:          0 HIT:          0 MISS:          0
cpu2_ITLB TRANSLATION  ACCESS:          0 HIT:          0 MISS:          0
cpu2_ITLB PREFETCH REQUESTED:          0 ISSUED:          0 USEFUL:          0 USELESS:          0
cpu2_ITLB AVERAGE MISS LATENCY: 10.12 cycles
cpu2_ITLB TOTAL        ACCESS:          0 HIT:          0 MISS:          0
cpu2_ITLB LOAD         ACCESS:          0 HIT:          0 MISS:          0
cpu2_ITLB RFO          ACCESS:          0 HIT:          0 MISS:          0
cpu2_ITLB PREFETCH     ACCESS:          0 HIT:          0 MISS:          0
cpu2_ITLB WRITE        ACCESS:          0 HIT:          0 MISS:          0
cpu2_ITLB TRANSLATION  ACCESS:          0 HIT:          0 MISS:          0
cpu2_ITLB PREFETCH REQUESTED:          0 ISSUED:          0 USEFUL:          0 USELESS:          0
cpu2_ITLB AVERAGE MISS LATENCY: 10.12 cycles
cpu2_L1D TOTAL        ACCESS:          0 HIT:          0 MISS:          0
cpu2_L1D LOAD         ACCESS:          0 HIT:          0 MISS:          0
cpu2_L1D RFO          ACCESS:          0 HIT:          0 MISS:          0
cpu2_L1D PREFETCH     ACCESS:          0 HIT:          0 MISS:          0
cpu2_L1D WRITE        ACCESS:          0 HIT:          0 MISS:          0
cpu2_L1D TRANSLATION  ACCESS:          0 HIT:          0 MISS:          0
cpu2_L1D PREFETCH REQUESTED:          0 ISSUED:          0 USEFUL:          0 USELESS:          0
cpu2_L1D AVERAGE MISS LATENCY: 107.2 cycles
cpu2_L1D TOTAL        ACCESS:          0 HIT:          0 MISS:          0
cpu2_L1D LOAD         ACCESS:          0 HIT:          0 MISS:          0
cpu2_L1D RFO          ACCESS:          0 HIT:          0 MISS:          0
cpu2_L1D PREFETCH     ACCESS:          0 HIT:          0 MISS:          0
cpu2_L1D WRITE        ACCESS:          0 HIT:          0 MISS:          0
cpu2_L1D TRANSLATION  ACCESS:          0 HIT:          0 MISS:          0
cpu2_L1D PREFETCH REQUESTED:          0 ISSUED:          0 USEFUL:          0 USELESS:          0
cpu2_L1D AVERAGE MISS LATENCY: 107.2 cycles
cpu2_L1D TOTAL        ACCESS:   32789555 HIT:   25764085 MISS:    7025470
cpu2_L1D LOAD         ACCESS:   19613201 HIT:   16491337 MISS:    3121864
cpu2_L1D RFO          ACCESS:          0 HIT:          0 MISS:          0
cpu2_L1D PREFETCH     ACCESS:          0 HIT:          0 MISS:          0
cpu2_L1D WRITE        ACCESS:   13165049 HIT:    9270327 MISS:    3894722
cpu2_L1D TRANSLATION  ACCESS:      11305 HIT:       2421 MISS:       8884
cpu2_L1D PREFETCH REQUESTED:          0 ISSUED:          0 USEFUL:          0 USELESS:          0
cpu2_L1D AVERAGE MISS LATENCY: 107.2 cycles
cpu2_L1D TOTAL        ACCESS:          0 HIT:          0 MISS:          0
cpu2_L1D LOAD         ACCESS:          0 HIT:          0 MISS:          0
cpu2_L1D RFO          ACCESS:          0 HIT:          0 MISS:          0
cpu2_L1D PREFETCH     ACCESS:          0 HIT:          0 MISS:          0
cpu2_L1D WRITE        ACCESS:          0 HIT:          0 MISS:          0
cpu2_L1D TRANSLATION  ACCESS:          0 HIT:          0 MISS:          0
cpu2_L1D PREFETCH REQUESTED:          0 ISSUED:          0 USEFUL:          0 USELESS:          0
cpu2_L1D AVERAGE MISS LATENCY: 107.2 cycles
cpu2_L1I TOTAL        ACCESS:          0 HIT:          0 MISS:          0
cpu2_L1I LOAD         ACCESS:          0 HIT:          0 MISS:          0
cpu2_L1I RFO          ACCESS:          0 HIT:          0 MISS:          0
cpu2_L1I PREFETCH     ACCESS:          0 HIT:          0 MISS:          0
cpu2_L1I WRITE        ACCESS:          0 HIT:          0 MISS:          0
cpu2_L1I TRANSLATION  ACCESS:          0 HIT:          0 MISS:          0
cpu2_L1I PREFETCH REQUESTED:          0 ISSUED:          0 USEFUL:          0 USELESS:          0
cpu2_L1I AVERAGE MISS LATENCY: 22.89 cycles
cpu2_L1I TOTAL        ACCESS:          0 HIT:          0 MISS:          0
cpu2_L1I LOAD         ACCESS:          0 HIT:          0 MISS:          0
cpu2_L1I RFO          ACCESS:          0 HIT:          0 MISS:          0
cpu2_L1I PREFETCH     ACCESS:          0 HIT:          0 MISS:          0
cpu2_L1I WRITE        ACCESS:          0 HIT:          0 MISS:          0
cpu2_L1I TRANSLATION  ACCESS:          0 HIT:          0 MISS:          0
cpu2_L1I PREFETCH REQUESTED:          0 ISSUED:          0 USEFUL:          0 USELESS:          0
cpu2_L1I AVERAGE MISS LATENCY: 22.89 cycles
cpu2_L1I TOTAL        ACCESS:     538603 HIT:     350227 MISS:     188376
cpu2_L1I LOAD         ACCESS:     538603 HIT:     350227 MISS:     188376
cpu2_L1I RFO          ACCESS:          0 HIT:          0 MISS:          0
cpu2_L1I PREFETCH     ACCESS:          0 HIT:          0 MISS:          0
cpu2_L1I WRITE        ACCESS:          0 HIT:          0 MISS:          0
cpu2_L1I TRANSLATION  ACCESS:          0 HIT:          0 MISS:          0
cpu2_L1I PREFETCH REQUESTED:          0 ISSUED:          0 USEFUL:          0 USELESS:          0
cpu2_L1I AVERAGE MISS LATENCY: 22.89 cycles
cpu2_L1I TOTAL        ACCESS:          0 HIT:          0 MISS:          0
cpu2_L1I LOAD         ACCESS:          0 HIT:          0 MISS:          0
cpu2_L1I RFO          ACCESS:          0 HIT:          0 MISS:          0
cpu2_L1I PREFETCH     ACCESS:          0 HIT:          0 MISS:          0
cpu2_L1I WRITE        ACCESS:          0 HIT:          0 MISS:          0
cpu2_L1I TRANSLATION  ACCESS:          0 HIT:          0 MISS:          0
cpu2_L1I PREFETCH REQUESTED:          0 ISSUED:          0 USEFUL:          0 USELESS:          0
cpu2_L1I AVERAGE MISS LATENCY: 22.89 cycles
cpu2_L2C TOTAL        ACCESS:          0 HIT:          0 MISS:          0
cpu2_L2C LOAD         ACCESS:          0 HIT:          0 MISS:          0
cpu2_L2C RFO          ACCESS:          0 HIT:          0 MISS:          0
cpu2_L2C PREFETCH     ACCESS:          0 HIT:          0 MISS:          0
cpu2_L2C WRITE        ACCESS:          0 HIT:          0 MISS:          0
cpu2_L2C TRANSLATION  ACCESS:          0 HIT:          0 MISS:          0
cpu2_L2C PREFETCH REQUESTED:   10832123 ISSUED:    9211376 USEFUL:     256397 USELESS:       9080
cpu2_L2C AVERAGE MISS LATENCY: 141.6 cycles
cpu2_L2C TOTAL        ACCESS:          0 HIT:          0 MISS:          0
cpu2_L2C LOAD         ACCESS:          0 HIT:          0 MISS:          0
cpu2_L2C RFO          ACCESS:          0 HIT:          0 MISS:          0
cpu2_L2C PREFETCH     ACCESS:          0 HIT:          0 MISS:          0
cpu2_L2C WRITE        ACCESS:          0 HIT:          0 MISS:          0
cpu2_L2C TRANSLATION  ACCESS:          0 HIT:          0 MISS:          0
cpu2_L2C PREFETCH REQUESTED:   10832123 ISSUED:    9211376 USEFUL:     256397 USELESS:       9080
cpu2_L2C AVERAGE MISS LATENCY: 141.6 cycles
cpu2_L2C TOTAL        ACCESS:   13545900 HIT:    8057878 MISS:    5488022
cpu2_L2C LOAD         ACCESS:    2042572 HIT:    1322426 MISS:     720146
cpu2_L2C RFO          ACCESS:     972121 HIT:     574448 MISS:     397673
cpu2_L2C PREFETCH     ACCESS:    9211375 HIT:    4847969 MISS:    4363406
cpu2_L2C WRITE        ACCESS:    1311112 HIT:    1310595 MISS:        517
cpu2_L2C TRANSLATION  ACCESS:       8720 HIT:       2440 MISS:       6280
cpu2_L2C PREFETCH REQUESTED:   10832123 ISSUED:    9211376 USEFUL:     256397 USELESS:       9080
cpu2_L2C AVERAGE MISS LATENCY: 141.6 cycles
cpu2_L2C TOTAL        ACCESS:          0 HIT:          0 MISS:          0
cpu2_L2C LOAD         ACCESS:          0 HIT:          0 MISS:          0
cpu2_L2C RFO          ACCESS:          0 HIT:          0 MISS:          0
cpu2_L2C PREFETCH     ACCESS:          0 HIT:          0 MISS:          0
cpu2_L2C WRITE        ACCESS:          0 HIT:          0 MISS:          0
cpu2_L2C TRANSLATION  ACCESS:          0 HIT:          0 MISS:          0
cpu2_L2C PREFETCH REQUESTED:   10832123 ISSUED:    9211376 USEFUL:     256397 USELESS:       9080
cpu2_L2C AVERAGE MISS LATENCY: 141.6 cycles
cpu2_STLB TOTAL        ACCESS:          0 HIT:          0 MISS:          0
cpu2_STLB LOAD         ACCESS:          0 HIT:          0 MISS:          0
cpu2_STLB RFO          ACCESS:          0 HIT:          0 MISS:          0
cpu2_STLB PREFETCH     ACCESS:          0 HIT:          0 MISS:          0
cpu2_STLB WRITE        ACCESS:          0 HIT:          0 MISS:          0
cpu2_STLB TRANSLATION  ACCESS:          0 HIT:          0 MISS:          0
cpu2_STLB PREFETCH REQUESTED:          0 ISSUED:          0 USEFUL:          0 USELESS:          0
cpu2_STLB AVERAGE MISS LATENCY: 506.3 cycles
cpu2_STLB TOTAL        ACCESS:          0 HIT:          0 MISS:          0
cpu2_STLB LOAD         ACCESS:          0 HIT:          0 MISS:          0
cpu2_STLB RFO          ACCESS:          0 HIT:          0 MISS:          0
cpu2_STLB PREFETCH     ACCESS:          0 HIT:          0 MISS:          0
cpu2_STLB WRITE        ACCESS:          0 HIT:          0 MISS:          0
cpu2_STLB TRANSLATION  ACCESS:          0 HIT:          0 MISS:          0
cpu2_STLB PREFETCH REQUESTED:          0 ISSUED:          0 USEFUL:          0 USELESS:          0
cpu2_STLB AVERAGE MISS LATENCY: 506.3 cycles
cpu2_STLB TOTAL        ACCESS:     101951 HIT:      92471 MISS:       9480
cpu2_STLB LOAD         ACCESS:     101951 HIT:      92471 MISS:       9480
cpu2_STLB RFO          ACCESS:          0 HIT:          0 MISS:          0
cpu2_STLB PREFETCH     ACCESS:          0 HIT:          0 MISS:          0
cpu2_STLB WRITE        ACCESS:          0 HIT:          0 MISS:          0
cpu2_STLB TRANSLATION  ACCESS:          0 HIT:          0 MISS:          0
cpu2_STLB PREFETCH REQUESTED:          0 ISSUED:          0 USEFUL:          0 USELESS:          0
cpu2_STLB AVERAGE MISS LATENCY: 506.3 cycles
cpu2_STLB TOTAL        ACCESS:          0 HIT:          0 MISS:          0
cpu2_STLB LOAD         ACCESS:          0 HIT:          0 MISS:          0
cpu2_STLB RFO          ACCESS:          0 HIT:          0 MISS:          0
cpu2_STLB PREFETCH     ACCESS:          0 HIT:          0 MISS:          0
cpu2_STLB WRITE        ACCESS:          0 HIT:          0 MISS:          0
cpu2_STLB TRANSLATION  ACCESS:          0 HIT:          0 MISS:          0
cpu2_STLB PREFETCH REQUESTED:          0 ISSUED:          0 USEFUL:          0 USELESS:          0
cpu2_STLB AVERAGE MISS LATENCY: 506.3 cycles
cpu3_DTLB TOTAL        ACCESS:          0 HIT:          0 MISS:          0
cpu3_DTLB LOAD         ACCESS:          0 HIT:          0 MISS:          0
cpu3_DTLB RFO          ACCESS:          0 HIT:          0 MISS:          0
cpu3_DTLB PREFETCH     ACCESS:          0 HIT:          0 MISS:          0
cpu3_DTLB WRITE        ACCESS:          0 HIT:          0 MISS:          0
cpu3_DTLB TRANSLATION  ACCESS:          0 HIT:          0 MISS:          0
cpu3_DTLB PREFETCH REQUESTED:          0 ISSUED:          0 USEFUL:          0 USELESS:          0
cpu3_DTLB AVERAGE MISS LATENCY: 32.6 cycles
cpu3_DTLB TOTAL        ACCESS:          0 HIT:          0 MISS:          0
cpu3_DTLB LOAD         ACCESS:          0 HIT:          0 MISS:          0
cpu3_DTLB RFO          ACCESS:          0 HIT:          0 MISS:          0
cpu3_DTLB PREFETCH     ACCESS:          0 HIT:          0 MISS:          0
cpu3_DTLB WRITE        ACCESS:          0 HIT:          0 MISS:          0
cpu3_DTLB TRANSLATION  ACCESS:          0 HIT:          0 MISS:          0
cpu3_DTLB PREFETCH REQUESTED:          0 ISSUED:          0 USEFUL:          0 USELESS:          0
cpu3_DTLB AVERAGE MISS LATENCY: 32.6 cycles
cpu3_DTLB TOTAL        ACCESS:          0 HIT:          0 MISS:          0
cpu3_DTLB LOAD         ACCESS:          0 HIT:          0 MISS:          0
cpu3_DTLB RFO          ACCESS:          0 HIT:          0 MISS:          0
cpu3_DTLB PREFETCH     ACCESS:          0 HIT:          0 MISS:          0
cpu3_DTLB WRITE        ACCESS:          0 HIT:          0 MISS:          0
cpu3_DTLB TRANSLATION  ACCESS:          0 HIT:          0 MISS:          0
cpu3_DTLB PREFETCH REQUESTED:          0 ISSUED:          0 USEFUL:          0 USELESS:          0
cpu3_DTLB AVERAGE MISS LATENCY: 32.6 cycles
cpu3_DTLB TOTAL        ACCESS:   29048997 HIT:   29034502 MISS:      14495
cpu3_DTLB LOAD         ACCESS:   29048997 HIT:   29034502 MISS:      14495
cpu3_DTLB RFO          ACCESS:          0 HIT:          0 MISS:          0
cpu3_DTLB PREFETCH     ACCESS:          0 HIT:          0 MISS:          0
cpu3_DTLB WRITE        ACCESS:          0 HIT:          0 MISS:          0
cpu3_DTLB TRANSLATION  ACCESS:          0 HIT:          0 MISS:          0
cpu3_DTLB PREFETCH REQUESTED:          0 ISSUED:          0 USEFUL:          0 USELESS:          0
cpu3_DTLB AVERAGE MISS LATENCY: 32.6 cycles
cpu3_ITLB TOTAL        ACCESS:          0 HIT:          0 MISS:          0
cpu3_ITLB LOAD         ACCESS:          0 HIT:          0 MISS:          0
cpu3_ITLB RFO          ACCESS:          0 HIT:          0 MISS:          0
cpu3_ITLB PREFETCH     ACCESS:          0 HIT:          0 MISS:          0
cpu3_ITLB WRITE        ACCESS:          0 HIT:          0 MISS:          0
cpu3_ITLB TRANSLATION  ACCESS:          0 HIT:          0 MISS:          0
cpu3_ITLB PREFETCH REQUESTED:          0 ISSUED:          0 USEFUL:          0 USELESS:          0
cpu3_ITLB AVERAGE MISS LATENCY: -nan cycles
cpu3_ITLB TOTAL        ACCESS:          0 HIT:          0 MISS:          0
cpu3_ITLB LOAD         ACCESS:          0 HIT:          0 MISS:          0
cpu3_ITLB RFO          ACCESS:          0 HIT:          0 MISS:          0
cpu3_ITLB PREFETCH     ACCESS:          0 HIT:          0 MISS:          0
cpu3_ITLB WRITE        ACCESS:          0 HIT:          0 MISS:          0
cpu3_ITLB TRANSLATION  ACCESS:          0 HIT:          0 MISS:          0
cpu3_ITLB PREFETCH REQUESTED:          0 ISSUED:          0 USEFUL:          0 USELESS:          0
cpu3_ITLB AVERAGE MISS LATENCY: -nan cycles
cpu3_ITLB TOTAL        ACCESS:          0 HIT:          0 MISS:          0
cpu3_ITLB LOAD         ACCESS:          0 HIT:          0 MISS:          0
cpu3_ITLB RFO          ACCESS:          0 HIT:          0 MISS:          0
cpu3_ITLB PREFETCH     ACCESS:          0 HIT:          0 MISS:          0
cpu3_ITLB WRITE        ACCESS:          0 HIT:          0 MISS:          0
cpu3_ITLB TRANSLATION  ACCESS:          0 HIT:          0 MISS:          0
cpu3_ITLB PREFETCH REQUESTED:          0 ISSUED:          0 USEFUL:          0 USELESS:          0
cpu3_ITLB AVERAGE MISS LATENCY: -nan cycles
cpu3_ITLB TOTAL        ACCESS:     825055 HIT:     825055 MISS:          0
cpu3_ITLB LOAD         ACCESS:     825055 HIT:     825055 MISS:          0
cpu3_ITLB RFO          ACCESS:          0 HIT:          0 MISS:          0
cpu3_ITLB PREFETCH     ACCESS:          0 HIT:          0 MISS:          0
cpu3_ITLB WRITE        ACCESS:          0 HIT:          0 MISS:          0
cpu3_ITLB TRANSLATION  ACCESS:          0 HIT:          0 MISS:          0
cpu3_ITLB PREFETCH REQUESTED:          0 ISSUED:          0 USEFUL:          0 USELESS:          0
cpu3_ITLB AVERAGE MISS LATENCY: -nan cycles
cpu3_L1D TOTAL        ACCESS:          0 HIT:          0 MISS:          0
cpu3_L1D LOAD         ACCESS:          0 HIT:          0 MISS:          0
cpu3_L1D RFO          ACCESS:          0 HIT:          0 MISS:          0
cpu3_L1D PREFETCH     ACCESS:          0 HIT:          0 MISS:          0
cpu3_L1D WRITE        ACCESS:          0 HIT:          0 MISS:          0
cpu3_L1D TRANSLATION  ACCESS:          0 HIT:          0 MISS:          0
cpu3_L1D PREFETCH REQUESTED:          0 ISSUED:          0 USEFUL:          0 USELESS:          0
cpu3_L1D AVERAGE MISS LATENCY: 390.8 cycles
cpu3_L1D TOTAL        ACCESS:          0 HIT:          0 MISS:          0
cpu3_L1D LOAD         ACCESS:          0 HIT:          0 MISS:          0
cpu3_L1D RFO          ACCESS:          0 HIT:          0 MISS:          0
cpu3_L1D PREFETCH     ACCESS:          0 HIT:          0 MISS:          0
cpu3_L1D WRITE        ACCESS:          0 HIT:          0 MISS:          0
cpu3_L1D TRANSLATION  ACCESS:          0 HIT:          0 MISS:          0
cpu3_L1D PREFETCH REQUESTED:          0 ISSUED:          0 USEFUL:          0 USELESS:          0
cpu3_L1D AVERAGE MISS LATENCY: 390.8 cycles
cpu3_L1D TOTAL        ACCESS:          0 HIT:          0 MISS:          0
cpu3_L1D LOAD         ACCESS:          0 HIT:          0 MISS:          0
cpu3_L1D RFO          ACCESS:          0 HIT:          0 MISS:          0
cpu3_L1D PREFETCH     ACCESS:          0 HIT:          0 MISS:          0
cpu3_L1D WRITE        ACCESS:          0 HIT:          0 MISS:          0
cpu3_L1D TRANSLATION  ACCESS:          0 HIT:          0 MISS:          0
cpu3_L1D PREFETCH REQUESTED:          0 ISSUED:          0 USEFUL:          0 USELESS:          0
cpu3_L1D AVERAGE MISS LATENCY: 390.8 cycles
cpu3_L1D TOTAL        ACCESS:   35691535 HIT:   35663753 MISS:      27782
cpu3_L1D LOAD         ACCESS:   26660538 HIT:   26656276 MISS:       4262
cpu3_L1D RFO          ACCESS:          0 HIT:          0 MISS:          0
cpu3_L1D PREFETCH     ACCESS:          0 HIT:          0 MISS:          0
cpu3_L1D WRITE        ACCESS:    9030727 HIT:    9007449 MISS:      23278
cpu3_L1D TRANSLATION  ACCESS:        270 HIT:         28 MISS:        242
cpu3_L1D PREFETCH REQUESTED:          0 ISSUED:          0 USEFUL:          0 USELESS:          0
cpu3_L1D AVERAGE MISS LATENCY: 390.8 cycles
cpu3_L1I TOTAL        ACCESS:          0 HIT:          0 MISS:          0
cpu3_L1I LOAD         ACCESS:          0 HIT:          0 MISS:          0
cpu3_L1I RFO          ACCESS:          0 HIT:          0 MISS:          0
cpu3_L1I PREFETCH     ACCESS:          0 HIT:          0 MISS:          0
cpu3_L1I WRITE        ACCESS:          0 HIT:          0 MISS:          0
cpu3_L1I TRANSLATION  ACCESS:          0 HIT:          0 MISS:          0
cpu3_L1I PREFETCH REQUESTED:          0 ISSUED:          0 USEFUL:          0 USELESS:          0
cpu3_L1I AVERAGE MISS LATENCY: 7.409 cycles
cpu3_L1I TOTAL        ACCESS:          0 HIT:          0 MISS:          0
cpu3_L1I LOAD         ACCESS:          0 HIT:          0 MISS:          0
cpu3_L1I RFO          ACCESS:          0 HIT:          0 MISS:          0
cpu3_L1I PREFETCH     ACCESS:          0 HIT:          0 MISS:          0
cpu3_L1I WRITE        ACCESS:          0 HIT:          0 MISS:          0
cpu3_L1I TRANSLATION  ACCESS:          0 HIT:          0 MISS:          0
cpu3_L1I PREFETCH REQUESTED:          0 ISSUED:          0 USEFUL:          0 USELESS:          0
cpu3_L1I AVERAGE MISS LATENCY: 7.409 cycles
cpu3_L1I TOTAL        ACCESS:          0 HIT:          0 MISS:          0
cpu3_L1I LOAD         ACCESS:          0 HIT:          0 MISS:          0
cpu3_L1I RFO          ACCESS:          0 HIT:          0 MISS:          0
cpu3_L1I PREFETCH     ACCESS:          0 HIT:          0 MISS:          0
cpu3_L1I WRITE        ACCESS:          0 HIT:          0 MISS:          0
cpu3_L1I TRANSLATION  ACCESS:          0 HIT:          0 MISS:          0
cpu3_L1I PREFETCH REQUESTED:          0 ISSUED:          0 USEFUL:          0 USELESS:          0
cpu3_L1I AVERAGE MISS LATENCY: 7.409 cycles
cpu3_L1I TOTAL        ACCESS:     918294 HIT:     915914 MISS:       2380
cpu3_L1I LOAD         ACCESS:     918294 HIT:     915914 MISS:       2380
cpu3_L1I RFO          ACCESS:          0 HIT:          0 MISS:          0
cpu3_L1I PREFETCH     ACCESS:          0 HIT:          0 MISS:          0
cpu3_L1I WRITE        ACCESS:          0 HIT:          0 MISS:          0
cpu3_L1I TRANSLATION  ACCESS:          0 HIT:          0 MISS:          0
cpu3_L1I PREFETCH REQUESTED:          0 ISSUED:          0 USEFUL:          0 USELESS:          0
cpu3_L1I AVERAGE MISS LATENCY: 7.409 cycles
cpu3_L2C TOTAL        ACCESS:          0 HIT:          0 MISS:          0
cpu3_L2C LOAD         ACCESS:          0 HIT:          0 MISS:          0
cpu3_L2C RFO          ACCESS:          0 HIT:          0 MISS:          0
cpu3_L2C PREFETCH     ACCESS:          0 HIT:          0 MISS:          0
cpu3_L2C WRITE        ACCESS:          0 HIT:          0 MISS:          0
cpu3_L2C TRANSLATION  ACCESS:          0 HIT:          0 MISS:          0
cpu3_L2C PREFETCH REQUESTED:      15880 ISSUED:      15348 USEFUL:        344 USELESS:         14
cpu3_L2C AVERAGE MISS LATENCY: 880.9 cycles
cpu3_L2C TOTAL        ACCESS:          0 HIT:          0 MISS:          0
cpu3_L2C LOAD         ACCESS:          0 HIT:          0 MISS:          0
cpu3_L2C RFO          ACCESS:          0 HIT:          0 MISS:          0
cpu3_L2C PREFETCH     ACCESS:          0 HIT:          0 MISS:          0
cpu3_L2C WRITE        ACCESS:          0 HIT:          0 MISS:          0
cpu3_L2C TRANSLATION  ACCESS:          0 HIT:          0 MISS:          0
cpu3_L2C PREFETCH REQUESTED:      15880 ISSUED:      15348 USEFUL:        344 USELESS:         14
cpu3_L2C AVERAGE MISS LATENCY: 880.9 cycles
cpu3_L2C TOTAL        ACCESS:          0 HIT:          0 MISS:          0
cpu3_L2C LOAD         ACCESS:          0 HIT:          0 MISS:          0
cpu3_L2C RFO          ACCESS:          0 HIT:          0 MISS:          0
cpu3_L2C PREFETCH     ACCESS:          0 HIT:          0 MISS:          0
cpu3_L2C WRITE        ACCESS:          0 HIT:          0 MISS:          0
cpu3_L2C TRANSLATION  ACCESS:          0 HIT:          0 MISS:          0
cpu3_L2C PREFETCH REQUESTED:      15880 ISSUED:      15348 USEFUL:        344 USELESS:         14
cpu3_L2C AVERAGE MISS LATENCY: 880.9 cycles
cpu3_L2C TOTAL        ACCESS:      29388 HIT:      10962 MISS:      18426
cpu3_L2C LOAD         ACCESS:       4590 HIT:       2286 MISS:       2304
cpu3_L2C RFO          ACCESS:       4198 HIT:        123 MISS:       4075
cpu3_L2C PREFETCH     ACCESS:      15348 HIT:       3464 MISS:      11884
cpu3_L2C WRITE        ACCESS:       5010 HIT:       5005 MISS:          5
cpu3_L2C TRANSLATION  ACCESS:        242 HIT:         84 MISS:        158
cpu3_L2C PREFETCH REQUESTED:      15880 ISSUED:      15348 USEFUL:        344 USELESS:         14
cpu3_L2C AVERAGE MISS LATENCY: 880.9 cycles
cpu3_STLB TOTAL        ACCESS:          0 HIT:          0 MISS:          0
cpu3_STLB LOAD         ACCESS:          0 HIT:          0 MISS:          0
cpu3_STLB RFO          ACCESS:          0 HIT:          0 MISS:          0
cpu3_STLB PREFETCH     ACCESS:          0 HIT:          0 MISS:          0
cpu3_STLB WRITE        ACCESS:          0 HIT:          0 MISS:          0
cpu3_STLB TRANSLATION  ACCESS:          0 HIT:          0 MISS:          0
cpu3_STLB PREFETCH REQUESTED:          0 ISSUED:          0 USEFUL:          0 USELESS:          0
cpu3_STLB AVERAGE MISS LATENCY: 1712 cycles
cpu3_STLB TOTAL        ACCESS:          0 HIT:          0 MISS:          0
cpu3_STLB LOAD         ACCESS:          0 HIT:          0 MISS:          0
cpu3_STLB RFO          ACCESS:          0 HIT:          0 MISS:          0
cpu3_STLB PREFETCH     ACCESS:          0 HIT:          0 MISS:          0
cpu3_STLB WRITE        ACCESS:          0 HIT:          0 MISS:          0
cpu3_STLB TRANSLATION  ACCESS:          0 HIT:          0 MISS:          0
cpu3_STLB PREFETCH REQUESTED:          0 ISSUED:          0 USEFUL:          0 USELESS:          0
cpu3_STLB AVERAGE MISS LATENCY: 1712 cycles
cpu3_STLB TOTAL        ACCESS:          0 HIT:          0 MISS:          0
cpu3_STLB LOAD         ACCESS:          0 HIT:          0 MISS:          0
cpu3_STLB RFO          ACCESS:          0 HIT:          0 MISS:          0
cpu3_STLB PREFETCH     ACCESS:          0 HIT:          0 MISS:          0
cpu3_STLB WRITE        ACCESS:          0 HIT:          0 MISS:          0
cpu3_STLB TRANSLATION  ACCESS:          0 HIT:          0 MISS:          0
cpu3_STLB PREFETCH REQUESTED:          0 ISSUED:          0 USEFUL:          0 USELESS:          0
cpu3_STLB AVERAGE MISS LATENCY: 1712 cycles
cpu3_STLB TOTAL        ACCESS:      12522 HIT:      12253 MISS:        269
cpu3_STLB LOAD         ACCESS:      12522 HIT:      12253 MISS:        269
cpu3_STLB RFO          ACCESS:          0 HIT:          0 MISS:          0
cpu3_STLB PREFETCH     ACCESS:          0 HIT:          0 MISS:          0
cpu3_STLB WRITE        ACCESS:          0 HIT:          0 MISS:          0
cpu3_STLB TRANSLATION  ACCESS:          0 HIT:          0 MISS:          0
cpu3_STLB PREFETCH REQUESTED:          0 ISSUED:          0 USEFUL:          0 USELESS:          0
cpu3_STLB AVERAGE MISS LATENCY: 1712 cycles

Region of Interest Statistics

CPU 0 cumulative IPC: 2.58 instructions: 150000000 cycles: 58138169
CPU 0 Branch Prediction Accuracy: 95.09% MPKI: 8.053 Average ROB Occupancy at Mispredict: 91.81
Branch type MPKI
BRANCH_DIRECT_JUMP: 0.154
BRANCH_INDIRECT: 0
BRANCH_CONDITIONAL: 6.66
BRANCH_DIRECT_CALL: 0
BRANCH_INDIRECT_CALL: 0
BRANCH_RETURN: 1.24


CPU 1 cumulative IPC: 1.313 instructions: 150000003 cycles: 114206359
CPU 1 Branch Prediction Accuracy: 94.56% MPKI: 7.709 Average ROB Occupancy at Mispredict: 61.54
Branch type MPKI
BRANCH_DIRECT_JUMP: 0.00711
BRANCH_INDIRECT: 0.00237
BRANCH_CONDITIONAL: 7.05
BRANCH_DIRECT_CALL: 0.0271
BRANCH_INDIRECT_CALL: 0
BRANCH_RETURN: 0.627


CPU 2 cumulative IPC: 1.61 instructions: 150000000 cycles: 93167918
CPU 2 Branch Prediction Accuracy: 97.85% MPKI: 3.55 Average ROB Occupancy at Mispredict: 99.19
Branch type MPKI
BRANCH_DIRECT_JUMP: 0.0257
BRANCH_INDIRECT: 0.00066
BRANCH_CONDITIONAL: 3.48
BRANCH_DIRECT_CALL: 0.00185
BRANCH_INDIRECT_CALL: 0
BRANCH_RETURN: 0.0405


[...]
cpu2_L1I WRITE        ACCESS:          0 HIT:          0 MISS:          0
cpu2_L1I TRANSLATION  ACCESS:          0 HIT:          0 MISS:          0
cpu2_L1I PREFETCH REQUESTED:          0 ISSUED:          0 USEFUL:          0 USELESS:          0
cpu2_L1I AVERAGE MISS LATENCY: 22.89 cycles
cpu2_L1I TOTAL        ACCESS:          0 HIT:          0 MISS:          0
cpu2_L1I LOAD         ACCESS:          0 HIT:          0 MISS:          0
cpu2_L1I RFO          ACCESS:          0 HIT:          0 MISS:          0
cpu2_L1I PREFETCH     ACCESS:          0 HIT:          0 MISS:          0
cpu2_L1I WRITE        ACCESS:          0 HIT:          0 MISS:          0
cpu2_L1I TRANSLATION  ACCESS:          0 HIT:          0 MISS:          0
cpu2_L1I PREFETCH REQUESTED:          0 ISSUED:          0 USEFUL:          0 USELESS:          0
cpu2_L1I AVERAGE MISS LATENCY: 22.89 cycles
cpu2_L2C TOTAL        ACCESS:          0 HIT:          0 MISS:          0
cpu2_L2C LOAD         ACCESS:          0 HIT:          0 MISS:          0
cpu2_L2C RFO          ACCESS:          0 HIT:          0 MISS:          0
cpu2_L2C PREFETCH     ACCESS:          0 HIT:          0 MISS:          0
cpu2_L2C WRITE        ACCESS:          0 HIT:          0 MISS:          0
cpu2_L2C TRANSLATION  ACCESS:          0 HIT:          0 MISS:          0
cpu2_L2C PREFETCH REQUESTED:   10832123 ISSUED:    9211376 USEFUL:     256397 USELESS:       9080
cpu2_L2C AVERAGE MISS LATENCY: 141.6 cycles
cpu2_L2C TOTAL        ACCESS:          0 HIT:          0 MISS:          0
cpu2_L2C LOAD         ACCESS:          0 HIT:          0 MISS:          0
cpu2_L2C RFO          ACCESS:          0 HIT:          0 MISS:          0
cpu2_L2C PREFETCH     ACCESS:          0 HIT:          0 MISS:          0
cpu2_L2C WRITE        ACCESS:          0 HIT:          0 MISS:          0
cpu2_L2C TRANSLATION  ACCESS:          0 HIT:          0 MISS:          0
cpu2_L2C PREFETCH REQUESTED:   10832123 ISSUED:    9211376 USEFUL:     256397 USELESS:       9080
cpu2_L2C AVERAGE MISS LATENCY: 141.6 cycles
cpu2_L2C TOTAL        ACCESS:    8621242 HIT:    5065156 MISS:    3556086
cpu2_L2C LOAD         ACCESS:    1287993 HIT:     828750 MISS:     459243
cpu2_L2C RFO          ACCESS:     718768 HIT:     409549 MISS:     309219
cpu2_L2C PREFETCH     ACCESS:    5672316 HIT:    2888871 MISS:    2783445
cpu2_L2C WRITE        ACCESS:     936274 HIT:     935795 MISS:        479
cpu2_L2C TRANSLATION  ACCESS:       5891 HIT:       2191 MISS:       3700
cpu2_L2C PREFETCH REQUESTED:   10832123 ISSUED:    9211376 USEFUL:     256397 USELESS:       9080
cpu2_L2C AVERAGE MISS LATENCY: 141.6 cycles
cpu2_L2C TOTAL        ACCESS:          0 HIT:          0 MISS:          0
cpu2_L2C LOAD         ACCESS:          0 HIT:          0 MISS:          0
cpu2_L2C RFO          ACCESS:          0 HIT:          0 MISS:          0
cpu2_L2C PREFETCH     ACCESS:          0 HIT:          0 MISS:          0
cpu2_L2C WRITE        ACCESS:          0 HIT:          0 MISS:          0
cpu2_L2C TRANSLATION  ACCESS:          0 HIT:          0 MISS:          0
cpu2_L2C PREFETCH REQUESTED:   10832123 ISSUED:    9211376 USEFUL:     256397 USELESS:       9080
cpu2_L2C AVERAGE MISS LATENCY: 141.6 cycles
cpu2_STLB TOTAL        ACCESS:          0 HIT:          0 MISS:          0
cpu2_STLB LOAD         ACCESS:          0 HIT:          0 MISS:          0
cpu2_STLB RFO          ACCESS:          0 HIT:          0 MISS:          0
cpu2_STLB PREFETCH     ACCESS:          0 HIT:          0 MISS:          0
cpu2_STLB WRITE        ACCESS:          0 HIT:          0 MISS:          0
cpu2_STLB TRANSLATION  ACCESS:          0 HIT:          0 MISS:          0
cpu2_STLB PREFETCH REQUESTED:          0 ISSUED:          0 USEFUL:          0 USELESS:          0
cpu2_STLB AVERAGE MISS LATENCY: 506.3 cycles
cpu2_STLB TOTAL        ACCESS:          0 HIT:          0 MISS:          0
cpu2_STLB LOAD         ACCESS:          0 HIT:          0 MISS:          0
cpu2_STLB RFO          ACCESS:          0 HIT:          0 MISS:          0
cpu2_STLB PREFETCH     ACCESS:          0 HIT:          0 MISS:          0
cpu2_STLB WRITE        ACCESS:          0 HIT:          0 MISS:          0
cpu2_STLB TRANSLATION  ACCESS:          0 HIT:          0 MISS:          0
cpu2_STLB PREFETCH REQUESTED:          0 ISSUED:          0 USEFUL:          0 USELESS:          0
cpu2_STLB AVERAGE MISS LATENCY: 506.3 cycles
cpu2_STLB TOTAL        ACCESS:      62775 HIT:      55566 MISS:       7209
cpu2_STLB LOAD         ACCESS:      62775 HIT:      55566 MISS:       7209
cpu2_STLB RFO          ACCESS:          0 HIT:          0 MISS:          0
cpu2_STLB PREFETCH     ACCESS:          0 HIT:          0 MISS:          0
cpu2_STLB WRITE        ACCESS:          0 HIT:          0 MISS:          0
cpu2_STLB TRANSLATION  ACCESS:          0 HIT:          0 MISS:          0
cpu2_STLB PREFETCH REQUESTED:          0 ISSUED:          0 USEFUL:          0 USELESS:          0
cpu2_STLB AVERAGE MISS LATENCY: 506.3 cycles
cpu2_STLB TOTAL        ACCESS:          0 HIT:          0 MISS:          0
cpu2_STLB LOAD         ACCESS:          0 HIT:          0 MISS:          0
cpu2_STLB RFO          ACCESS:          0 HIT:          0 MISS:          0
cpu2_STLB PREFETCH     ACCESS:          0 HIT:          0 MISS:          0
cpu2_STLB WRITE        ACCESS:          0 HIT:          0 MISS:          0
cpu2_STLB TRANSLATION  ACCESS:          0 HIT:          0 MISS:          0
cpu2_STLB PREFETCH REQUESTED:          0 ISSUED:          0 USEFUL:          0 USELESS:          0
cpu2_STLB AVERAGE MISS LATENCY: 506.3 cycles
cpu3_DTLB TOTAL        ACCESS:          0 HIT:          0 MISS:          0
cpu3_DTLB LOAD         ACCESS:          0 HIT:          0 MISS:          0
cpu3_DTLB RFO          ACCESS:          0 HIT:          0 MISS:          0
cpu3_DTLB PREFETCH     ACCESS:          0 HIT:          0 MISS:          0
cpu3_DTLB WRITE        ACCESS:          0 HIT:          0 MISS:          0
cpu3_DTLB TRANSLATION  ACCESS:          0 HIT:          0 MISS:          0
cpu3_DTLB PREFETCH REQUESTED:          0 ISSUED:          0 USEFUL:          0 USELESS:          0
cpu3_DTLB AVERAGE MISS LATENCY: 32.6 cycles
cpu3_DTLB TOTAL        ACCESS:          0 HIT:          0 MISS:          0
cpu3_DTLB LOAD         ACCESS:          0 HIT:          0 MISS:          0
cpu3_DTLB RFO          ACCESS:          0 HIT:          0 MISS:          0
cpu3_DTLB PREFETCH     ACCESS:          0 HIT:          0 MISS:          0
cpu3_DTLB WRITE        ACCESS:          0 HIT:          0 MISS:          0
cpu3_DTLB TRANSLATION  ACCESS:          0 HIT:          0 MISS:          0
cpu3_DTLB PREFETCH REQUESTED:          0 ISSUED:          0 USEFUL:          0 USELESS:          0
cpu3_DTLB AVERAGE MISS LATENCY: 32.6 cycles
cpu3_DTLB TOTAL        ACCESS:          0 HIT:          0 MISS:          0
cpu3_DTLB LOAD         ACCESS:          0 HIT:          0 MISS:          0
cpu3_DTLB RFO          ACCESS:          0 HIT:          0 MISS:          0
cpu3_DTLB PREFETCH     ACCESS:          0 HIT:          0 MISS:          0
cpu3_DTLB WRITE        ACCESS:          0 HIT:          0 MISS:          0
cpu3_DTLB TRANSLATION  ACCESS:          0 HIT:          0 MISS:          0
cpu3_DTLB PREFETCH REQUESTED:          0 ISSUED:          0 USEFUL:          0 USELESS:          0
cpu3_DTLB AVERAGE MISS LATENCY: 32.6 cycles
cpu3_DTLB TOTAL        ACCESS:   18129453 HIT:   18117648 MISS:      11805
cpu3_DTLB LOAD         ACCESS:   18129453 HIT:   18117648 MISS:      11805
cpu3_DTLB RFO          ACCESS:          0 HIT:          0 MISS:          0
cpu3_DTLB PREFETCH     ACCESS:          0 HIT:          0 MISS:          0
cpu3_DTLB WRITE        ACCESS:          0 HIT:          0 MISS:          0
cpu3_DTLB TRANSLATION  ACCESS:          0 HIT:          0 MISS:          0
cpu3_DTLB PREFETCH REQUESTED:          0 ISSUED:          0 USEFUL:          0 USELESS:          0
cpu3_DTLB AVERAGE MISS LATENCY: 32.6 cycles
cpu3_ITLB TOTAL        ACCESS:          0 HIT:          0 MISS:          0
cpu3_ITLB LOAD         ACCESS:          0 HIT:          0 MISS:          0
cpu3_ITLB RFO          ACCESS:          0 HIT:          0 MISS:          0
cpu3_ITLB PREFETCH     ACCESS:          0 HIT:          0 MISS:          0
cpu3_ITLB WRITE        ACCESS:          0 HIT:          0 MISS:          0
cpu3_ITLB TRANSLATION  ACCESS:          0 HIT:          0 MISS:          0
cpu3_ITLB PREFETCH REQUESTED:          0 ISSUED:          0 USEFUL:          0 USELESS:          0
cpu3_ITLB AVERAGE MISS LATENCY: -nan cycles
cpu3_ITLB TOTAL        ACCESS:          0 HIT:          0 MISS:          0
cpu3_ITLB LOAD         ACCESS:          0 HIT:          0 MISS:          0
cpu3_ITLB RFO          ACCESS:          0 HIT:          0 MISS:          0
cpu3_ITLB PREFETCH     ACCESS:          0 HIT:          0 MISS:          0
cpu3_ITLB WRITE        ACCESS:          0 HIT:          0 MISS:          0
cpu3_ITLB TRANSLATION  ACCESS:          0 HIT:          0 MISS:          0
cpu3_ITLB PREFETCH REQUESTED:          0 ISSUED:          0 USEFUL:          0 USELESS:          0
cpu3_ITLB AVERAGE MISS LATENCY: -nan cycles
cpu3_ITLB TOTAL        ACCESS:          0 HIT:          0 MISS:          0
cpu3_ITLB LOAD         ACCESS:          0 HIT:          0 MISS:          0
cpu3_ITLB RFO          ACCESS:          0 HIT:          0 MISS:          0
cpu3_ITLB PREFETCH     ACCESS:          0 HIT:          0 MISS:          0
cpu3_ITLB WRITE        ACCESS:          0 HIT:          0 MISS:          0
cpu3_ITLB TRANSLATION  ACCESS:          0 HIT:          0 MISS:          0
cpu3_ITLB PREFETCH REQUESTED:          0 ISSUED:          0 USEFUL:          0 USELESS:          0
cpu3_ITLB AVERAGE MISS LATENCY: -nan cycles
cpu3_ITLB TOTAL        ACCESS:     552508 HIT:     552508 MISS:          0
cpu3_ITLB LOAD         ACCESS:     552508 HIT:     552508 MISS:          0
cpu3_ITLB RFO          ACCESS:          0 HIT:          0 MISS:          0
cpu3_ITLB PREFETCH     ACCESS:          0 HIT:          0 MISS:          0
cpu3_ITLB WRITE        ACCESS:          0 HIT:          0 MISS:          0
cpu3_ITLB TRANSLATION  ACCESS:          0 HIT:          0 MISS:          0
cpu3_ITLB PREFETCH REQUESTED:          0 ISSUED:          0 USEFUL:          0 USELESS:          0
cpu3_ITLB AVERAGE MISS LATENCY: -nan cycles
cpu3_L1D TOTAL        ACCESS:          0 HIT:          0 MISS:          0
cpu3_L1D LOAD         ACCESS:          0 HIT:          0 MISS:          0
cpu3_L1D RFO          ACCESS:          0 HIT:          0 MISS:          0
cpu3_L1D PREFETCH     ACCESS:          0 HIT:          0 MISS:          0
cpu3_L1D WRITE        ACCESS:          0 HIT:          0 MISS:          0
cpu3_L1D TRANSLATION  ACCESS:          0 HIT:          0 MISS:          0
cpu3_L1D PREFETCH REQUESTED:          0 ISSUED:          0 USEFUL:          0 USELESS:          0
cpu3_L1D AVERAGE MISS LATENCY: 390.8 cycles
cpu3_L1D TOTAL        ACCESS:          0 HIT:          0 MISS:          0
cpu3_L1D LOAD         ACCESS:          0 HIT:          0 MISS:          0
cpu3_L1D RFO          ACCESS:          0 HIT:          0 MISS:          0
cpu3_L1D PREFETCH     ACCESS:          0 HIT:          0 MISS:          0
cpu3_L1D WRITE        ACCESS:          0 HIT:          0 MISS:          0
cpu3_L1D TRANSLATION  ACCESS:          0 HIT:          0 MISS:          0
cpu3_L1D PREFETCH REQUESTED:          0 ISSUED:          0 USEFUL:          0 USELESS:          0
cpu3_L1D AVERAGE MISS LATENCY: 390.8 cycles
cpu3_L1D TOTAL        ACCESS:          0 HIT:          0 MISS:          0
cpu3_L1D LOAD         ACCESS:          0 HIT:          0 MISS:          0
cpu3_L1D RFO          ACCESS:          0 HIT:          0 MISS:          0
cpu3_L1D PREFETCH     ACCESS:          0 HIT:          0 MISS:          0
cpu3_L1D WRITE        ACCESS:          0 HIT:          0 MISS:          0
cpu3_L1D TRANSLATION  ACCESS:          0 HIT:          0 MISS:          0
cpu3_L1D PREFETCH REQUESTED:          0 ISSUED:          0 USEFUL:          0 USELESS:          0
cpu3_L1D AVERAGE MISS LATENCY: 390.8 cycles
cpu3_L1D TOTAL        ACCESS:   22240687 HIT:   22220559 MISS:      20128
cpu3_L1D LOAD         ACCESS:   16605971 HIT:   16603422 MISS:       2549
cpu3_L1D RFO          ACCESS:          0 HIT:          0 MISS:          0
cpu3_L1D PREFETCH     ACCESS:          0 HIT:          0 MISS:          0
cpu3_L1D WRITE        ACCESS:    5634551 HIT:    5617118 MISS:      17433
cpu3_L1D TRANSLATION  ACCESS:        165 HIT:         19 MISS:        146
cpu3_L1D PREFETCH REQUESTED:          0 ISSUED:          0 USEFUL:          0 USELESS:          0
cpu3_L1D AVERAGE MISS LATENCY: 390.8 cycles
cpu3_L1I TOTAL        ACCESS:          0 HIT:          0 MISS:          0
cpu3_L1I LOAD         ACCESS:          0 HIT:          0 MISS:          0
cpu3_L1I RFO          ACCESS:          0 HIT:          0 MISS:          0
cpu3_L1I PREFETCH     ACCESS:          0 HIT:          0 MISS:          0
cpu3_L1I WRITE        ACCESS:          0 HIT:          0 MISS:          0
cpu3_L1I TRANSLATION  ACCESS:          0 HIT:          0 MISS:          0
cpu3_L1I PREFETCH REQUESTED:          0 ISSUED:          0 USEFUL:          0 USELESS:          0
cpu3_L1I AVERAGE MISS LATENCY: 7.409 cycles
cpu3_L1I TOTAL        ACCESS:          0 HIT:          0 MISS:          0
cpu3_L1I LOAD         ACCESS:          0 HIT:          0 MISS:          0
cpu3_L1I RFO          ACCESS:          0 HIT:          0 MISS:          0
cpu3_L1I PREFETCH     ACCESS:          0 HIT:          0 MISS:          0
cpu3_L1I WRITE        ACCESS:          0 HIT:          0 MISS:          0
cpu3_L1I TRANSLATION  ACCESS:          0 HIT:          0 MISS:          0
cpu3_L1I PREFETCH REQUESTED:          0 ISSUED:          0 USEFUL:          0 USELESS:          0
cpu3_L1I AVERAGE MISS LATENCY: 7.409 cycles
cpu3_L1I TOTAL        ACCESS:          0 HIT:          0 MISS:          0
cpu3_L1I LOAD         ACCESS:          0 HIT:          0 MISS:          0
cpu3_L1I RFO          ACCESS:          0 HIT:          0 MISS:          0
cpu3_L1I PREFETCH     ACCESS:          0 HIT:          0 MISS:          0
cpu3_L1I WRITE        ACCESS:          0 HIT:          0 MISS:          0
cpu3_L1I TRANSLATION  ACCESS:          0 HIT:          0 MISS:          0
cpu3_L1I PREFETCH REQUESTED:          0 ISSUED:          0 USEFUL:          0 USELESS:          0
cpu3_L1I AVERAGE MISS LATENCY: 7.409 cycles
cpu3_L1I TOTAL        ACCESS:     614751 HIT:     613348 MISS:       1403
cpu3_L1I LOAD         ACCESS:     614751 HIT:     613348 MISS:       1403
cpu3_L1I RFO          ACCESS:          0 HIT:          0 MISS:          0
cpu3_L1I PREFETCH     ACCESS:          0 HIT:          0 MISS:          0
cpu3_L1I WRITE        ACCESS:          0 HIT:          0 MISS:          0
cpu3_L1I TRANSLATION  ACCESS:          0 HIT:          0 MISS:          0
cpu3_L1I PREFETCH REQUESTED:          0 ISSUED:          0 USEFUL:          0 USELESS:          0
cpu3_L1I AVERAGE MISS LATENCY: 7.409 cycles
cpu3_L2C TOTAL        ACCESS:          0 HIT:          0 MISS:          0
cpu3_L2C LOAD         ACCESS:          0 HIT:          0 MISS:          0
cpu3_L2C RFO          ACCESS:          0 HIT:          0 MISS:          0
cpu3_L2C PREFETCH     ACCESS:          0 HIT:          0 MISS:          0
cpu3_L2C WRITE        ACCESS:          0 HIT:          0 MISS:          0
cpu3_L2C TRANSLATION  ACCESS:          0 HIT:          0 MISS:          0
cpu3_L2C PREFETCH REQUESTED:      15880 ISSUED:      15348 USEFUL:        344 USELESS:         14
cpu3_L2C AVERAGE MISS LATENCY: 880.9 cycles
cpu3_L2C TOTAL        ACCESS:          0 HIT:          0 MISS:          0
cpu3_L2C LOAD         ACCESS:          0 HIT:          0 MISS:          0
cpu3_L2C RFO          ACCESS:          0 HIT:          0 MISS:          0
cpu3_L2C PREFETCH     ACCESS:          0 HIT:          0 MISS:          0
cpu3_L2C WRITE        ACCESS:          0 HIT:          0 MISS:          0
cpu3_L2C TRANSLATION  ACCESS:          0 HIT:          0 MISS:          0
cpu3_L2C PREFETCH REQUESTED:      15880 ISSUED:      15348 USEFUL:        344 USELESS:         14
cpu3_L2C AVERAGE MISS LATENCY: 880.9 cycles
cpu3_L2C TOTAL        ACCESS:          0 HIT:          0 MISS:          0
cpu3_L2C LOAD         ACCESS:          0 HIT:          0 MISS:          0
cpu3_L2C RFO          ACCESS:          0 HIT:          0 MISS:          0
cpu3_L2C PREFETCH     ACCESS:          0 HIT:          0 MISS:          0
cpu3_L2C WRITE        ACCESS:          0 HIT:          0 MISS:          0
cpu3_L2C TRANSLATION  ACCESS:          0 HIT:          0 MISS:          0
cpu3_L2C PREFETCH REQUESTED:      15880 ISSUED:      15348 USEFUL:        344 USELESS:         14
cpu3_L2C AVERAGE MISS LATENCY: 880.9 cycles
cpu3_L2C TOTAL        ACCESS:      19112 HIT:       6783 MISS:      12329
cpu3_L2C LOAD         ACCESS:       2769 HIT:       1422 MISS:       1347
cpu3_L2C RFO          ACCESS:       2547 HIT:         73 MISS:       2474
cpu3_L2C PREFETCH     ACCESS:      10628 HIT:       2213 MISS:       8415
cpu3_L2C WRITE        ACCESS:       3022 HIT:       3022 MISS:          0
cpu3_L2C TRANSLATION  ACCESS:        146 HIT:         53 MISS:         93
cpu3_L2C PREFETCH REQUESTED:      15880 ISSUED:      15348 USEFUL:        344 USELESS:         14
cpu3_L2C AVERAGE MISS LATENCY: 880.9 cycles
cpu3_STLB TOTAL        ACCESS:          0 HIT:          0 MISS:          0
cpu3_STLB LOAD         ACCESS:          0 HIT:          0 MISS:          0
cpu3_STLB RFO          ACCESS:          0 HIT:          0 MISS:          0
cpu3_STLB PREFETCH     ACCESS:          0 HIT:          0 MISS:          0
cpu3_STLB WRITE        ACCESS:          0 HIT:          0 MISS:          0
cpu3_STLB TRANSLATION  ACCESS:          0 HIT:          0 MISS:          0
cpu3_STLB PREFETCH REQUESTED:          0 ISSUED:          0 USEFUL:          0 USELESS:          0
cpu3_STLB AVERAGE MISS LATENCY: 1712 cycles
cpu3_STLB TOTAL        ACCESS:          0 HIT:          0 MISS:          0
cpu3_STLB LOAD         ACCESS:          0 HIT:          0 MISS:          0
cpu3_STLB RFO          ACCESS:          0 HIT:          0 MISS:          0
cpu3_STLB PREFETCH     ACCESS:          0 HIT:          0 MISS:          0
cpu3_STLB WRITE        ACCESS:          0 HIT:          0 MISS:          0
cpu3_STLB TRANSLATION  ACCESS:          0 HIT:          0 MISS:          0
cpu3_STLB PREFETCH REQUESTED:          0 ISSUED:          0 USEFUL:          0 USELESS:          0
cpu3_STLB AVERAGE MISS LATENCY: 1712 cycles
cpu3_STLB TOTAL        ACCESS:          0 HIT:          0 MISS:          0
cpu3_STLB LOAD         ACCESS:          0 HIT:          0 MISS:          0
cpu3_STLB RFO          ACCESS:          0 HIT:          0 MISS:          0
cpu3_STLB PREFETCH     ACCESS:          0 HIT:          0 MISS:          0
cpu3_STLB WRITE        ACCESS:          0 HIT:          0 MISS:          0
cpu3_STLB TRANSLATION  ACCESS:          0 HIT:          0 MISS:          0
cpu3_STLB PREFETCH REQUESTED:          0 ISSUED:          0 USEFUL:          0 USELESS:          0
cpu3_STLB AVERAGE MISS LATENCY: 1712 cycles
cpu3_STLB TOTAL        ACCESS:      10633 HIT:      10468 MISS:        165
cpu3_STLB LOAD         ACCESS:      10633 HIT:      10468 MISS:        165
cpu3_STLB RFO          ACCESS:          0 HIT:          0 MISS:          0
cpu3_STLB PREFETCH     ACCESS:          0 HIT:          0 MISS:          0
cpu3_STLB WRITE        ACCESS:          0 HIT:          0 MISS:          0
cpu3_STLB TRANSLATION  ACCESS:          0 HIT:          0 MISS:          0
cpu3_STLB PREFETCH REQUESTED:          0 ISSUED:          0 USEFUL:          0 USELESS:          0
cpu3_STLB AVERAGE MISS LATENCY: 1712 cycles

DRAM Statistics

Channel 0 RQ ROW_BUFFER_HIT:     470127
  ROW_BUFFER_MISS:     786367
 AVG DBUS CONGESTED CYCLE: 3.971
WQ ROW_BUFFER_HIT: Channel 0 
  ROW_BUFFER_MISS:      76035
  FULL:     756454
