WARNING: physical memory size is smaller than virtual memory size.
WARNING: option --warmup_instructions is deprecated. Use --warmup-instructions instead.
WARNING: option --simulation_instructions is deprecated. Use --simulation-instructions instead.

*** ChampSim Multicore Out-of-Order Simulator ***
Warmup Instructions: 50000000
Simulation Instructions: 150000000
Number of CPUs: 4
Page size: 4096

Initialize SIGNATURE TABLE
ST_SET: 1
ST_WAY: 256
ST_TAG_BIT: 16
ST_TAG_MASK: ffff

Initialize PATTERN TABLE
PT_SET: 512
PT_WAY: 4
SIG_DELTA_BIT: 7
C_SIG_BIT: 4
C_DELTA_BIT: 4

Initialize PREFETCH FILTER
FILTER_SET: 1024
Initialize SIGNATURE TABLE
ST_SET: 1
ST_WAY: 256
ST_TAG_BIT: 16
ST_TAG_MASK: ffff

Initialize PATTERN TABLE
PT_SET: 512
PT_WAY: 4
SIG_DELTA_BIT: 7
C_SIG_BIT: 4
C_DELTA_BIT: 4

Initialize PREFETCH FILTER
FILTER_SET: 1024
Initialize SIGNATURE TABLE
ST_SET: 1
ST_WAY: 256
ST_TAG_BIT: 16
ST_TAG_MASK: ffff

Initialize PATTERN TABLE
PT_SET: 512
PT_WAY: 4
SIG_DELTA_BIT: 7
C_SIG_BIT: 4
C_DELTA_BIT: 4

Initialize PREFETCH FILTER
FILTER_SET: 1024
Initialize SIGNATURE TABLE
ST_SET: 1
ST_WAY: 256
ST_TAG_BIT: 16
ST_TAG_MASK: ffff

Initialize PATTERN TABLE
PT_SET: 512
PT_WAY: 4
SIG_DELTA_BIT: 7
C_SIG_BIT: 4
C_DELTA_BIT: 4

Initialize PREFETCH FILTER
FILTER_SET: 1024
Off-chip DRAM Size: 4 GiB Channels: 1 Width: 64-bit Data Race: 3200 MT/s
Heartbeat CPU 2 instructions: 10000001 cycles: 2500046 heartbeat IPC: 4 cumulative IPC: 4 (Simulation time: 00 hr 02 min 47 sec)
Heartbeat CPU 1 instructions: 10000001 cycles: 2506072 heartbeat IPC: 3.99 cumulative IPC: 3.99 (Simulation time: 00 hr 02 min 48 sec)
Heartbeat CPU 0 instructions: 10000002 cycles: 2521898 heartbeat IPC: 3.965 cumulative IPC: 3.965 (Simulation time: 00 hr 02 min 49 sec)
Heartbeat CPU 3 instructions: 10000003 cycles: 2653618 heartbeat IPC: 3.768 cumulative IPC: 3.768 (Simulation time: 00 hr 02 min 58 sec)
Heartbeat CPU 2 instructions: 20000001 cycles: 5000046 heartbeat IPC: 4 cumulative IPC: 4 (Simulation time: 00 hr 05 min 20 sec)
Heartbeat CPU 1 instructions: 20000003 cycles: 5014392 heartbeat IPC: 3.987 cumulative IPC: 3.989 (Simulation time: 00 hr 05 min 21 sec)
Heartbeat CPU 0 instructions: 20000001 cycles: 5038282 heartbeat IPC: 3.974 cumulative IPC: 3.97 (Simulation time: 00 hr 05 min 22 sec)
Heartbeat CPU 3 instructions: 20000000 cycles: 5307349 heartbeat IPC: 3.768 cumulative IPC: 3.768 (Simulation time: 00 hr 05 min 39 sec)
Heartbeat CPU 2 instructions: 30000001 cycles: 7500046 heartbeat IPC: 4 cumulative IPC: 4 (Simulation time: 00 hr 07 min 38 sec)
Heartbeat CPU 1 instructions: 30000002 cycles: 7518134 heartbeat IPC: 3.994 cumulative IPC: 3.99 (Simulation time: 00 hr 07 min 39 sec)
Heartbeat CPU 0 instructions: 30000001 cycles: 7553327 heartbeat IPC: 3.976 cumulative IPC: 3.972 (Simulation time: 00 hr 07 min 41 sec)
Heartbeat CPU 3 instructions: 30000001 cycles: 7960843 heartbeat IPC: 3.769 cumulative IPC: 3.768 (Simulation time: 00 hr 08 min 02 sec)
Heartbeat CPU 2 instructions: 40000001 cycles: 10000046 heartbeat IPC: 4 cumulative IPC: 4 (Simulation time: 00 hr 10 min 04 sec)
Heartbeat CPU 1 instructions: 40000000 cycles: 10027233 heartbeat IPC: 3.985 cumulative IPC: 3.989 (Simulation time: 00 hr 10 min 05 sec)
Heartbeat CPU 0 instructions: 40000000 cycles: 10077359 heartbeat IPC: 3.962 cumulative IPC: 3.969 (Simulation time: 00 hr 10 min 07 sec)
Heartbeat CPU 3 instructions: 40000001 cycles: 10613969 heartbeat IPC: 3.769 cumulative IPC: 3.769 (Simulation time: 00 hr 10 min 35 sec)
Heartbeat CPU 2 instructions: 50000001 cycles: 12500046 heartbeat IPC: 4 cumulative IPC: 4 (Simulation time: 00 hr 12 min 28 sec)
Warmup finished CPU 2 instructions: 50000001 cycles: 12500047 cumulative IPC: 4 (Simulation time: 00 hr 12 min 28 sec)
Heartbeat CPU 1 instructions: 50000000 cycles: 12547585 heartbeat IPC: 3.968 cumulative IPC: 3.985 (Simulation time: 00 hr 12 min 32 sec)
Warmup finished CPU 1 instructions: 50000000 cycles: 12547586 cumulative IPC: 3.985 (Simulation time: 00 hr 12 min 32 sec)
Heartbeat CPU 0 instructions: 50000000 cycles: 12599190 heartbeat IPC: 3.965 cumulative IPC: 3.969 (Simulation time: 00 hr 12 min 36 sec)
Warmup finished CPU 0 instructions: 50000000 cycles: 12599191 cumulative IPC: 3.969 (Simulation time: 00 hr 12 min 36 sec)
Heartbeat CPU 3 instructions: 50000001 cycles: 13267674 heartbeat IPC: 3.768 cumulative IPC: 3.769 (Simulation time: 00 hr 13 min 19 sec)
Warmup finished CPU 3 instructions: 50000001 cycles: 13267675 cumulative IPC: 3.769 (Simulation time: 00 hr 13 min 19 sec)
Warmup complete CPU 0 instructions: 52647941 cycles: 13267675 cumulative IPC: 3.968 (Simulation time: 00 hr 13 min 19 sec)
Warmup complete CPU 1 instructions: 52874304 cycles: 13267675 cumulative IPC: 3.985 (Simulation time: 00 hr 13 min 19 sec)
Warmup complete CPU 2 instructions: 53070513 cycles: 13267675 cumulative IPC: 4 (Simulation time: 00 hr 13 min 19 sec)
Warmup complete CPU 3 instructions: 50000001 cycles: 13267675 cumulative IPC: 3.769 (Simulation time: 00 hr 13 min 19 sec)
Heartbeat CPU 1 instructions: 60000002 cycles: 15663324 heartbeat IPC: 3.21 cumulative IPC: 2.974 (Simulation time: 00 hr 15 min 10 sec)
Heartbeat CPU 0 instructions: 60000002 cycles: 16466009 heartbeat IPC: 2.586 cumulative IPC: 2.299 (Simulation time: 00 hr 15 min 43 sec)
Heartbeat CPU 1 instructions: 70000003 cycles: 19287617 heartbeat IPC: 2.759 cumulative IPC: 2.845 (Simulation time: 00 hr 17 min 37 sec)
Heartbeat CPU 2 instructions: 60000001 cycles: 19663555 heartbeat IPC: 1.396 cumulative IPC: 1.083 (Simulation time: 00 hr 17 min 53 sec)
Heartbeat CPU 3 instructions: 60000003 cycles: 20144169 heartbeat IPC: 1.454 cumulative IPC: 1.454 (Simulation time: 00 hr 18 min 13 sec)
Heartbeat CPU 0 instructions: 70000004 cycles: 20838056 heartbeat IPC: 2.287 cumulative IPC: 2.292 (Simulation time: 00 hr 18 min 43 sec)
Heartbeat CPU 1 instructions: 80000000 cycles: 22680766 heartbeat IPC: 2.947 cumulative IPC: 2.882 (Simulation time: 00 hr 20 min 07 sec)
Heartbeat CPU 0 instructions: 80000000 cycles: 25137651 heartbeat IPC: 2.326 cumulative IPC: 2.304 (Simulation time: 00 hr 21 min 51 sec)
Heartbeat CPU 1 instructions: 90000001 cycles: 26153440 heartbeat IPC: 2.88 cumulative IPC: 2.881 (Simulation time: 00 hr 22 min 43 sec)
Heartbeat CPU 3 instructions: 70000002 cycles: 26747201 heartbeat IPC: 1.514 cumulative IPC: 1.484 (Simulation time: 00 hr 23 min 09 sec)
Heartbeat CPU 2 instructions: 70000000 cycles: 28405116 heartbeat IPC: 1.144 cumulative IPC: 1.118 (Simulation time: 00 hr 24 min 20 sec)
Heartbeat CPU 0 instructions: 90000001 cycles: 29502923 heartbeat IPC: 2.291 cumulative IPC: 2.301 (Simulation time: 00 hr 25 min 11 sec)
Heartbeat CPU 1 instructions: 100000004 cycles: 29577620 heartbeat IPC: 2.92 cumulative IPC: 2.889 (Simulation time: 00 hr 25 min 14 sec)
Heartbeat CPU 1 instructions: 110000001 cycles: 33034342 heartbeat IPC: 2.893 cumulative IPC: 2.89 (Simulation time: 00 hr 27 min 38 sec)
Heartbeat CPU 3 instructions: 80000000 cycles: 33510383 heartbeat IPC: 1.479 cumulative IPC: 1.482 (Simulation time: 00 hr 27 min 56 sec)
Heartbeat CPU 0 instructions: 100000000 cycles: 33847110 heartbeat IPC: 2.302 cumulative IPC: 2.301 (Simulation time: 00 hr 28 min 10 sec)
Heartbeat CPU 1 instructions: 120000002 cycles: 36466027 heartbeat IPC: 2.914 cumulative IPC: 2.894 (Simulation time: 00 hr 29 min 58 sec)
Heartbeat CPU 2 instructions: 80000001 cycles: 37844526 heartbeat IPC: 1.059 cumulative IPC: 1.096 (Simulation time: 00 hr 30 min 58 sec)
Heartbeat CPU 0 instructions: 110000003 cycles: 38284146 heartbeat IPC: 2.254 cumulative IPC: 2.293 (Simulation time: 00 hr 31 min 16 sec)
Heartbeat CPU 3 instructions: 90000003 cycles: 39131963 heartbeat IPC: 1.779 cumulative IPC: 1.547 (Simulation time: 00 hr 31 min 53 sec)
Heartbeat CPU 1 instructions: 130000003 cycles: 39879328 heartbeat IPC: 2.93 cumulative IPC: 2.898 (Simulation time: 00 hr 32 min 24 sec)
Heartbeat CPU 0 instructions: 120000001 cycles: 42600888 heartbeat IPC: 2.317 cumulative IPC: 2.296 (Simulation time: 00 hr 34 min 18 sec)
Heartbeat CPU 1 instructions: 140000003 cycles: 43823254 heartbeat IPC: 2.536 cumulative IPC: 2.851 (Simulation time: 00 hr 35 min 03 sec)
Heartbeat CPU 3 instructions: 100000002 cycles: 46335254 heartbeat IPC: 1.388 cumulative IPC: 1.512 (Simulation time: 00 hr 36 min 44 sec)
Heartbeat CPU 0 instructions: 130000000 cycles: 47195848 heartbeat IPC: 2.176 cumulative IPC: 2.28 (Simulation time: 00 hr 37 min 16 sec)
Heartbeat CPU 1 instructions: 150000003 cycles: 47527401 heartbeat IPC: 2.7 cumulative IPC: 2.835 (Simulation time: 00 hr 37 min 29 sec)
Heartbeat CPU 2 instructions: 90000001 cycles: 49013638 heartbeat IPC: 0.8953 cumulative IPC: 1.033 (Simulation time: 00 hr 38 min 33 sec)
Heartbeat CPU 1 instructions: 160000001 cycles: 50902581 heartbeat IPC: 2.963 cumulative IPC: 2.846 (Simulation time: 00 hr 39 min 47 sec)
Heartbeat CPU 0 instructions: 140000000 cycles: 51732324 heartbeat IPC: 2.204 cumulative IPC: 2.271 (Simulation time: 00 hr 40 min 20 sec)
Heartbeat CPU 1 instructions: 170000003 cycles: 54332561 heartbeat IPC: 2.915 cumulative IPC: 2.852 (Simulation time: 00 hr 42 min 00 sec)
Heartbeat CPU 3 instructions: 110000001 cycles: 54952083 heartbeat IPC: 1.161 cumulative IPC: 1.439 (Simulation time: 00 hr 42 min 23 sec)
Heartbeat CPU 0 instructions: 150000002 cycles: 56202473 heartbeat IPC: 2.237 cumulative IPC: 2.267 (Simulation time: 00 hr 43 min 10 sec)
Heartbeat CPU 1 instructions: 180000003 cycles: 58126550 heartbeat IPC: 2.636 cumulative IPC: 2.834 (Simulation time: 00 hr 44 min 23 sec)
Heartbeat CPU 0 instructions: 160000001 cycles: 60726084 heartbeat IPC: 2.211 cumulative IPC: 2.262 (Simulation time: 00 hr 46 min 02 sec)
Heartbeat CPU 1 instructions: 190000001 cycles: 61589201 heartbeat IPC: 2.888 cumulative IPC: 2.838 (Simulation time: 00 hr 46 min 39 sec)
Heartbeat CPU 3 instructions: 120000003 cycles: 62207983 heartbeat IPC: 1.378 cumulative IPC: 1.43 (Simulation time: 00 hr 47 min 06 sec)
Heartbeat CPU 2 instructions: 100000002 cycles: 62854748 heartbeat IPC: 0.7225 cumulative IPC: 0.9464 (Simulation time: 00 hr 47 min 35 sec)
Heartbeat CPU 1 instructions: 200000004 cycles: 65036616 heartbeat IPC: 2.901 cumulative IPC: 2.842 (Simulation time: 00 hr 49 min 03 sec)
Heartbeat CPU 0 instructions: 170000000 cycles: 65160340 heartbeat IPC: 2.255 cumulative IPC: 2.261 (Simulation time: 00 hr 49 min 08 sec)
Simulation finished CPU 1 instructions: 150000001 cycles: 52782957 cumulative IPC: 2.842 (Simulation time: 00 hr 49 min 45 sec)
Heartbeat CPU 1 instructions: 210000004 cycles: 68552577 heartbeat IPC: 2.844 cumulative IPC: 2.842 (Simulation time: 00 hr 51 min 19 sec)
Heartbeat CPU 3 instructions: 130000003 cycles: 68701355 heartbeat IPC: 1.54 cumulative IPC: 1.443 (Simulation time: 00 hr 51 min 25 sec)
Heartbeat CPU 0 instructions: 180000000 cycles: 69668015 heartbeat IPC: 2.218 cumulative IPC: 2.258 (Simulation time: 00 hr 52 min 04 sec)
Heartbeat CPU 1 instructions: 220000001 cycles: 72364146 heartbeat IPC: 2.624 cumulative IPC: 2.828 (Simulation time: 00 hr 53 min 34 sec)
Heartbeat CPU 2 instructions: 110000001 cycles: 74000813 heartbeat IPC: 0.8972 cumulative IPC: 0.9374 (Simulation time: 00 hr 54 min 40 sec)
Heartbeat CPU 0 instructions: 190000000 cycles: 74155625 heartbeat IPC: 2.228 cumulative IPC: 2.256 (Simulation time: 00 hr 54 min 46 sec)
Heartbeat CPU 3 instructions: 140000001 cycles: 75385493 heartbeat IPC: 1.496 cumulative IPC: 1.449 (Simulation time: 00 hr 55 min 42 sec)
Heartbeat CPU 1 instructions: 230000000 cycles: 75812952 heartbeat IPC: 2.9 cumulative IPC: 2.832 (Simulation time: 00 hr 56 min 01 sec)
Heartbeat CPU 0 instructions: 200000004 cycles: 78544122 heartbeat IPC: 2.279 cumulative IPC: 2.257 (Simulation time: 00 hr 57 min 52 sec)
Heartbeat CPU 1 instructions: 240000002 cycles: 79387649 heartbeat IPC: 2.797 cumulative IPC: 2.83 (Simulation time: 00 hr 58 min 24 sec)
Simulation finished CPU 0 instructions: 150000003 cycles: 66488498 cumulative IPC: 2.256 (Simulation time: 00 hr 58 min 38 sec)
Heartbeat CPU 3 instructions: 150000000 cycles: 81176805 heartbeat IPC: 1.727 cumulative IPC: 1.473 (Simulation time: 00 hr 59 min 28 sec)
Heartbeat CPU 2 instructions: 120000001 cycles: 82523542 heartbeat IPC: 1.173 cumulative IPC: 0.9664 (Simulation time: 01 hr 00 min 20 sec)
Heartbeat CPU 1 instructions: 250000004 cycles: 82882834 heartbeat IPC: 2.861 cumulative IPC: 2.832 (Simulation time: 01 hr 00 min 33 sec)
Heartbeat CPU 0 instructions: 210000001 cycles: 83098154 heartbeat IPC: 2.196 cumulative IPC: 2.253 (Simulation time: 01 hr 00 min 41 sec)
Heartbeat CPU 1 instructions: 260000002 cycles: 86445074 heartbeat IPC: 2.807 cumulative IPC: 2.83 (Simulation time: 01 hr 02 min 39 sec)
Heartbeat CPU 0 instructions: 220000002 cycles: 87892045 heartbeat IPC: 2.086 cumulative IPC: 2.243 (Simulation time: 01 hr 03 min 33 sec)
Heartbeat CPU 3 instructions: 160000000 cycles: 88991474 heartbeat IPC: 1.28 cumulative IPC: 1.453 (Simulation time: 01 hr 04 min 20 sec)
Heartbeat CPU 1 instructions: 270000004 cycles: 89847375 heartbeat IPC: 2.939 cumulative IPC: 2.835 (Simulation time: 01 hr 04 min 57 sec)
Heartbeat CPU 2 instructions: 130000004 cycles: 91914742 heartbeat IPC: 1.065 cumulative IPC: 0.9782 (Simulation time: 01 hr 06 min 26 sec)
Heartbeat CPU 0 instructions: 230000000 cycles: 92359216 heartbeat IPC: 2.239 cumulative IPC: 2.242 (Simulation time: 01 hr 06 min 43 sec)
Heartbeat CPU 1 instructions: 280000004 cycles: 93263061 heartbeat IPC: 2.928 cumulative IPC: 2.839 (Simulation time: 01 hr 07 min 21 sec)
Heartbeat CPU 3 instructions: 170000002 cycles: 93485941 heartbeat IPC: 2.225 cumulative IPC: 1.496 (Simulation time: 01 hr 07 min 29 sec)
Heartbeat CPU 1 instructions: 290000003 cycles: 96723433 heartbeat IPC: 2.89 cumulative IPC: 2.841 (Simulation time: 01 hr 09 min 43 sec)
Heartbeat CPU 0 instructions: 240000001 cycles: 96904456 heartbeat IPC: 2.2 cumulative IPC: 2.24 (Simulation time: 01 hr 09 min 49 sec)
Heartbeat CPU 1 instructions: 300000000 cycles: 100221516 heartbeat IPC: 2.859 cumulative IPC: 2.842 (Simulation time: 01 hr 11 min 50 sec)
Heartbeat CPU 0 instructions: 250000001 cycles: 101394792 heartbeat IPC: 2.227 cumulative IPC: 2.239 (Simulation time: 01 hr 12 min 39 sec)
Heartbeat CPU 3 instructions: 180000003 cycles: 101986440 heartbeat IPC: 1.176 cumulative IPC: 1.465 (Simulation time: 01 hr 13 min 02 sec)
Heartbeat CPU 2 instructions: 140000000 cycles: 102481262 heartbeat IPC: 0.9464 cumulative IPC: 0.9744 (Simulation time: 01 hr 13 min 21 sec)
Heartbeat CPU 1 instructions: 310000004 cycles: 103636912 heartbeat IPC: 2.928 cumulative IPC: 2.845 (Simulation time: 01 hr 14 min 04 sec)
Heartbeat CPU 0 instructions: 260000000 cycles: 105843898 heartbeat IPC: 2.248 cumulative IPC: 2.24 (Simulation time: 01 hr 15 min 33 sec)
Heartbeat CPU 1 instructions: 320000001 cycles: 107054813 heartbeat IPC: 2.926 cumulative IPC: 2.848 (Simulation time: 01 hr 16 min 18 sec)
Heartbeat CPU 3 instructions: 190000001 cycles: 108892545 heartbeat IPC: 1.448 cumulative IPC: 1.464 (Simulation time: 01 hr 17 min 33 sec)
Heartbeat CPU 0 instructions: 270000003 cycles: 110348503 heartbeat IPC: 2.22 cumulative IPC: 2.239 (Simulation time: 01 hr 18 min 27 sec)
Heartbeat CPU 1 instructions: 330000001 cycles: 110481291 heartbeat IPC: 2.918 cumulative IPC: 2.851 (Simulation time: 01 hr 18 min 32 sec)
Heartbeat CPU 2 instructions: 150000003 cycles: 111385076 heartbeat IPC: 1.123 cumulative IPC: 0.9879 (Simulation time: 01 hr 19 min 10 sec)
Heartbeat CPU 1 instructions: 340000002 cycles: 113930341 heartbeat IPC: 2.899 cumulative IPC: 2.852 (Simulation time: 01 hr 20 min 53 sec)
Heartbeat CPU 0 instructions: 280000003 cycles: 114771117 heartbeat IPC: 2.261 cumulative IPC: 2.24 (Simulation time: 01 hr 21 min 24 sec)
Heartbeat CPU 3 instructions: 200000002 cycles: 115893664 heartbeat IPC: 1.428 cumulative IPC: 1.462 (Simulation time: 01 hr 22 min 06 sec)
Simulation finished CPU 3 instructions: 150000001 cycles: 102625990 cumulative IPC: 1.462 (Simulation time: 01 hr 22 min 06 sec)
Heartbeat CPU 1 instructions: 350000001 cycles: 117370663 heartbeat IPC: 2.907 cumulative IPC: 2.854 (Simulation time: 01 hr 23 min 02 sec)
Heartbeat CPU 0 instructions: 290000001 cycles: 119210011 heartbeat IPC: 2.253 cumulative IPC: 2.24 (Simulation time: 01 hr 24 min 19 sec)
Heartbeat CPU 2 instructions: 160000004 cycles: 120586727 heartbeat IPC: 1.087 cumulative IPC: 0.9964 (Simulation time: 01 hr 25 min 11 sec)
Heartbeat CPU 1 instructions: 360000001 cycles: 120802329 heartbeat IPC: 2.914 cumulative IPC: 2.856 (Simulation time: 01 hr 25 min 20 sec)
Heartbeat CPU 3 instructions: 210000002 cycles: 122903015 heartbeat IPC: 1.427 cumulative IPC: 1.459 (Simulation time: 01 hr 26 min 41 sec)
Heartbeat CPU 0 instructions: 300000002 cycles: 123674746 heartbeat IPC: 2.24 cumulative IPC: 2.24 (Simulation time: 01 hr 27 min 11 sec)
Heartbeat CPU 1 instructions: 370000001 cycles: 124214599 heartbeat IPC: 2.931 cumulative IPC: 2.858 (Simulation time: 01 hr 27 min 31 sec)
Heartbeat CPU 1 instructions: 380000001 cycles: 127766753 heartbeat IPC: 2.815 cumulative IPC: 2.857 (Simulation time: 01 hr 29 min 45 sec)
Heartbeat CPU 0 instructions: 310000000 cycles: 128119094 heartbeat IPC: 2.25 cumulative IPC: 2.241 (Simulation time: 01 hr 29 min 59 sec)
Heartbeat CPU 3 instructions: 220000004 cycles: 130212509 heartbeat IPC: 1.368 cumulative IPC: 1.454 (Simulation time: 01 hr 31 min 22 sec)
Heartbeat CPU 2 instructions: 170000004 cycles: 130395315 heartbeat IPC: 1.02 cumulative IPC: 0.9983 (Simulation time: 01 hr 31 min 29 sec)
Heartbeat CPU 1 instructions: 390000000 cycles: 131258701 heartbeat IPC: 2.864 cumulative IPC: 2.857 (Simulation time: 01 hr 32 min 02 sec)
Heartbeat CPU 0 instructions: 320000002 cycles: 132576439 heartbeat IPC: 2.243 cumulative IPC: 2.241 (Simulation time: 01 hr 32 min 52 sec)
Heartbeat CPU 1 instructions: 400000002 cycles: 134620771 heartbeat IPC: 2.974 cumulative IPC: 2.86 (Simulation time: 01 hr 34 min 15 sec)
Heartbeat CPU 3 instructions: 230000000 cycles: 137041916 heartbeat IPC: 1.464 cumulative IPC: 1.454 (Simulation time: 01 hr 35 min 49 sec)
Heartbeat CPU 0 instructions: 330000004 cycles: 137082709 heartbeat IPC: 2.219 cumulative IPC: 2.24 (Simulation time: 01 hr 35 min 51 sec)
Heartbeat CPU 1 instructions: 410000004 cycles: 138155697 heartbeat IPC: 2.829 cumulative IPC: 2.86 (Simulation time: 01 hr 36 min 31 sec)
Heartbeat CPU 2 instructions: 180000002 cycles: 139042792 heartbeat IPC: 1.156 cumulative IPC: 1.009 (Simulation time: 01 hr 37 min 05 sec)
Heartbeat CPU 1 instructions: 420000000 cycles: 141544909 heartbeat IPC: 2.951 cumulative IPC: 2.862 (Simulation time: 01 hr 38 min 45 sec)
Heartbeat CPU 0 instructions: 340000001 cycles: 141616066 heartbeat IPC: 2.206 cumulative IPC: 2.239 (Simulation time: 01 hr 38 min 48 sec)
Heartbeat CPU 3 instructions: 240000002 cycles: 144091318 heartbeat IPC: 1.419 cumulative IPC: 1.452 (Simulation time: 01 hr 40 min 22 sec)
Heartbeat CPU 1 instructions: 430000003 cycles: 145357221 heartbeat IPC: 2.623 cumulative IPC: 2.855 (Simulation time: 01 hr 41 min 08 sec)
Heartbeat CPU 0 instructions: 350000001 cycles: 146198580 heartbeat IPC: 2.182 cumulative IPC: 2.237 (Simulation time: 01 hr 41 min 41 sec)
Heartbeat CPU 1 instructions: 440000000 cycles: 148945660 heartbeat IPC: 2.787 cumulative IPC: 2.853 (Simulation time: 01 hr 43 min 26 sec)
Heartbeat CPU 2 instructions: 190000002 cycles: 149027652 heartbeat IPC: 1.002 cumulative IPC: 1.009 (Simulation time: 01 hr 43 min 29 sec)
Heartbeat CPU 0 instructions: 360000004 cycles: 150803177 heartbeat IPC: 2.172 cumulative IPC: 2.235 (Simulation time: 01 hr 44 min 35 sec)
Heartbeat CPU 3 instructions: 250000000 cycles: 151418241 heartbeat IPC: 1.365 cumulative IPC: 1.448 (Simulation time: 01 hr 45 min 01 sec)
Heartbeat CPU 1 instructions: 450000003 cycles: 153233795 heartbeat IPC: 2.332 cumulative IPC: 2.837 (Simulation time: 01 hr 46 min 13 sec)
Heartbeat CPU 0 instructions: 370000000 cycles: 155276144 heartbeat IPC: 2.236 cumulative IPC: 2.235 (Simulation time: 01 hr 47 min 34 sec)
Heartbeat CPU 1 instructions: 460000000 cycles: 156653391 heartbeat IPC: 2.924 cumulative IPC: 2.839 (Simulation time: 01 hr 48 min 27 sec)
Heartbeat CPU 3 instructions: 260000003 cycles: 158314776 heartbeat IPC: 1.45 cumulative IPC: 1.448 (Simulation time: 01 hr 49 min 28 sec)
Heartbeat CPU 2 instructions: 200000004 cycles: 159447281 heartbeat IPC: 0.9597 cumulative IPC: 1.005 (Simulation time: 01 hr 50 min 12 sec)
Heartbeat CPU 0 instructions: 380000000 cycles: 159765480 heartbeat IPC: 2.228 cumulative IPC: 2.235 (Simulation time: 01 hr 50 min 25 sec)
Heartbeat CPU 1 instructions: 470000002 cycles: 160086373 heartbeat IPC: 2.913 cumulative IPC: 2.841 (Simulation time: 01 hr 50 min 39 sec)
Simulation finished CPU 2 instructions: 150000001 cycles: 148005674 cumulative IPC: 1.013 (Simulation time: 01 hr 51 min 29 sec)
Simulation complete CPU 0 instructions: 330761813 cycles: 148005674 cumulative IPC: 2.235 (Simulation time: 01 hr 51 min 29 sec)
Simulation complete CPU 1 instructions: 420625373 cycles: 148005674 cumulative IPC: 2.842 (Simulation time: 01 hr 51 min 29 sec)
Simulation complete CPU 2 instructions: 150000001 cycles: 148005674 cumulative IPC: 1.013 (Simulation time: 01 hr 51 min 29 sec)
Simulation complete CPU 3 instructions: 215283663 cycles: 148005674 cumulative IPC: 1.455 (Simulation time: 01 hr 51 min 29 sec)

ChampSim completed all CPUs

=== Simulation ===
CPU 0 runs /home/das/dpc3_traces/603.bwaves_s-3699B.champsimtrace.xzCPU 1 runs /home/das/dpc3_traces/654.roms_s-842B.champsimtrace.xzCPU 2 runs /home/das/dpc3_traces/649.fotonik3d_s-1176B.champsimtrace.xzCPU 3 runs /home/das/dpc3_traces/628.pop2_s-17B.champsimtrace.xz
Total Simulation Statistics (not including warmup)

CPU 0 cumulative IPC: 2.235 instructions: 330761813 cycles: 148005674
CPU 0 Branch Prediction Accuracy: 90.04% MPKI: 14.55 Average ROB Occupancy at Mispredict: 30.19
Branch type MPKI
BRANCH_DIRECT_JUMP: 0.0612
BRANCH_INDIRECT: 0
BRANCH_CONDITIONAL: 14.4
BRANCH_DIRECT_CALL: 0
BRANCH_INDIRECT_CALL: 0
BRANCH_RETURN: 0.0686


CPU 1 cumulative IPC: 2.842 instructions: 420625373 cycles: 148005674
CPU 1 Branch Prediction Accuracy: 95.06% MPKI: 8.14 Average ROB Occupancy at Mispredict: 78.14
Branch type MPKI
BRANCH_DIRECT_JUMP: 0.156
BRANCH_INDIRECT: 0
BRANCH_CONDITIONAL: 6.81
BRANCH_DIRECT_CALL: 0
BRANCH_INDIRECT_CALL: 0
BRANCH_RETURN: 1.18


CPU 2 cumulative IPC: 1.013 instructions: 150000001 cycles: 148005674
CPU 2 Branch Prediction Accuracy: 99.98% MPKI: 0.00438 Average ROB Occupancy at Mispredict: 352
Branch type MPKI
BRANCH_DIRECT_JUMP: 0
BRANCH_INDIRECT: 0
BRANCH_CONDITIONAL: 0.00438
BRANCH_DIRECT_CALL: 0
BRANCH_INDIRECT_CALL: 0
BRANCH_RETURN: 0


CPU 3 cumulative IPC: 1.455 instructions: 215283663 cycles: 148005674
CPU 3 Branch Prediction Accuracy: 97.58% MPKI: 3.621 Average ROB Occupancy at Mispredict: 107
Branch type MPKI
BRANCH_DIRECT_JUMP: 0.0298
BRANCH_INDIRECT: 0.000836
BRANCH_CONDITIONAL: 3.52
BRANCH_DIRECT_CALL: 0.00129
BRANCH_INDIRECT_CALL: 0
BRANCH_RETURN: 0.0681

LLC TOTAL        ACCESS:     152261 HIT:      57145 MISS:      95116
LLC LOAD         ACCESS:       2591 HIT:       2398 MISS:        193
LLC RFO          ACCESS:      33670 HIT:          0 MISS:      33670
LLC PREFETCH     ACCESS:      82234 HIT:      54743 MISS:      27491
LLC WRITE        ACCESS:      33764 HIT:          4 MISS:      33760
LLC TRANSLATION  ACCESS:          2 HIT:          0 MISS:          2
LLC PREFETCH REQUESTED:          0 ISSUED:          0 USEFUL:          0 USELESS:          0
LLC AVERAGE MISS LATENCY: 212.3 cycles
LLC TOTAL        ACCESS:     476442 HIT:     253921 MISS:     222521
LLC LOAD         ACCESS:      14771 HIT:      11308 MISS:       3463
LLC RFO          ACCESS:      23025 HIT:         61 MISS:      22964
LLC PREFETCH     ACCESS:     415430 HIT:     239935 MISS:     175495
LLC WRITE        ACCESS:      23078 HIT:       2617 MISS:      20461
LLC TRANSLATION  ACCESS:        138 HIT:          0 MISS:        138
LLC PREFETCH REQUESTED:          0 ISSUED:          0 USEFUL:          0 USELESS:          0
LLC AVERAGE MISS LATENCY: 212.3 cycles
LLC TOTAL        ACCESS:   16619577 HIT:    6214404 MISS:   10405173
LLC LOAD         ACCESS:     904632 HIT:     518092 MISS:     386540
LLC RFO          ACCESS:        381 HIT:        381 MISS:          0
LLC PREFETCH     ACCESS:   14398987 HIT:    4380489 MISS:   10018498
LLC WRITE        ACCESS:    1315308 HIT:    1315302 MISS:          6
LLC TRANSLATION  ACCESS:        269 HIT:        140 MISS:        129
LLC PREFETCH REQUESTED:          0 ISSUED:          0 USEFUL:          0 USELESS:          0
LLC AVERAGE MISS LATENCY: 212.3 cycles
LLC TOTAL        ACCESS:    7792261 HIT:    5288897 MISS:    2503364
LLC LOAD         ACCESS:     675691 HIT:     531921 MISS:     143770
LLC RFO          ACCESS:     422303 HIT:     179473 MISS:     242830
LLC PREFETCH     ACCESS:    6064567 HIT:    3956394 MISS:    2108173
LLC WRITE        ACCESS:     623254 HIT:     619148 MISS:       4106
LLC TRANSLATION  ACCESS:       6446 HIT:       1961 MISS:       4485
LLC PREFETCH REQUESTED:          0 ISSUED:          0 USEFUL:          0 USELESS:          0
LLC AVERAGE MISS LATENCY: 212.3 cycles
cpu0_DTLB TOTAL        ACCESS:   41248562 HIT:   41243693 MISS:       4869
cpu0_DTLB LOAD         ACCESS:   41248562 HIT:   41243693 MISS:       4869
cpu0_DTLB RFO          ACCESS:          0 HIT:          0 MISS:          0
cpu0_DTLB PREFETCH     ACCESS:          0 HIT:          0 MISS:          0
cpu0_DTLB WRITE        ACCESS:          0 HIT:          0 MISS:          0
cpu0_DTLB TRANSLATION  ACCESS:          0 HIT:          0 MISS:          0
cpu0_DTLB PREFETCH REQUESTED:          0 ISSUED:          0 USEFUL:          0 USELESS:          0
cpu0_DTLB AVERAGE MISS LATENCY: 27.45 cycles
cpu0_DTLB TOTAL        ACCESS:          0 HIT:          0 MISS:          0
cpu0_DTLB LOAD         ACCESS:          0 HIT:          0 MISS:          0
cpu0_DTLB RFO          ACCESS:          0 HIT:          0 MISS:          0
cpu0_DTLB PREFETCH     ACCESS:          0 HIT:          0 MISS:          0
cpu0_DTLB WRITE        ACCESS:          0 HIT:          0 MISS:          0
cpu0_DTLB TRANSLATION  ACCESS:          0 HIT:          0 MISS:          0
cpu0_DTLB PREFETCH REQUESTED:          0 ISSUED:          0 USEFUL:          0 USELESS:          0
cpu0_DTLB AVERAGE MISS LATENCY: 27.45 cycles
cpu0_DTLB TOTAL        ACCESS:          0 HIT:          0 MISS:          0
cpu0_DTLB LOAD         ACCESS:          0 HIT:          0 MISS:          0
cpu0_DTLB RFO          ACCESS:          0 HIT:          0 MISS:          0
cpu0_DTLB PREFETCH     ACCESS:          0 HIT:          0 MISS:          0
cpu0_DTLB WRITE        ACCESS:          0 HIT:          0 MISS:          0
cpu0_DTLB TRANSLATION  ACCESS:          0 HIT:          0 MISS:          0
cpu0_DTLB PREFETCH REQUESTED:          0 ISSUED:          0 USEFUL:          0 USELESS:          0
cpu0_DTLB AVERAGE MISS LATENCY: 27.45 cycles
cpu0_DTLB TOTAL        ACCESS:          0 HIT:          0 MISS:          0
cpu0_DTLB LOAD         ACCESS:          0 HIT:          0 MISS:          0
cpu0_DTLB RFO          ACCESS:          0 HIT:          0 MISS:          0
cpu0_DTLB PREFETCH     ACCESS:          0 HIT:          0 MISS:          0
cpu0_DTLB WRITE        ACCESS:          0 HIT:          0 MISS:          0
cpu0_DTLB TRANSLATION  ACCESS:          0 HIT:          0 MISS:          0
cpu0_DTLB PREFETCH REQUESTED:          0 ISSUED:          0 USEFUL:          0 USELESS:          0
cpu0_DTLB AVERAGE MISS LATENCY: 27.45 cycles
cpu0_ITLB TOTAL        ACCESS:    1093353 HIT:    1093353 MISS:          0
cpu0_ITLB LOAD         ACCESS:    1093353 HIT:    1093353 MISS:          0
cpu0_ITLB RFO          ACCESS:          0 HIT:          0 MISS:          0
cpu0_ITLB PREFETCH     ACCESS:          0 HIT:          0 MISS:          0
cpu0_ITLB WRITE        ACCESS:          0 HIT:          0 MISS:          0
cpu0_ITLB TRANSLATION  ACCESS:          0 HIT:          0 MISS:          0
cpu0_ITLB PREFETCH REQUESTED:          0 ISSUED:          0 USEFUL:          0 USELESS:          0
cpu0_ITLB AVERAGE MISS LATENCY: -nan cycles
cpu0_ITLB TOTAL        ACCESS:          0 HIT:          0 MISS:          0
cpu0_ITLB LOAD         ACCESS:          0 HIT:          0 MISS:          0
cpu0_ITLB RFO          ACCESS:          0 HIT:          0 MISS:          0
cpu0_ITLB PREFETCH     ACCESS:          0 HIT:          0 MISS:          0
cpu0_ITLB WRITE        ACCESS:          0 HIT:          0 MISS:          0
cpu0_ITLB TRANSLATION  ACCESS:          0 HIT:          0 MISS:          0
cpu0_ITLB PREFETCH REQUESTED:          0 ISSUED:          0 USEFUL:          0 USELESS:          0
cpu0_ITLB AVERAGE MISS LATENCY: -nan cycles
cpu0_ITLB TOTAL        ACCESS:          0 HIT:          0 MISS:          0
cpu0_ITLB LOAD         ACCESS:          0 HIT:          0 MISS:          0
cpu0_ITLB RFO          ACCESS:          0 HIT:          0 MISS:          0
cpu0_ITLB PREFETCH     ACCESS:          0 HIT:          0 MISS:          0
cpu0_ITLB WRITE        ACCESS:          0 HIT:          0 MISS:          0
cpu0_ITLB TRANSLATION  ACCESS:          0 HIT:          0 MISS:          0
cpu0_ITLB PREFETCH REQUESTED:          0 ISSUED:          0 USEFUL:          0 USELESS:          0
cpu0_ITLB AVERAGE MISS LATENCY: -nan cycles
cpu0_ITLB TOTAL        ACCESS:          0 HIT:          0 MISS:          0
cpu0_ITLB LOAD         ACCESS:          0 HIT:          0 MISS:          0
cpu0_ITLB RFO          ACCESS:          0 HIT:          0 MISS:          0
cpu0_ITLB PREFETCH     ACCESS:          0 HIT:          0 MISS:          0
cpu0_ITLB WRITE        ACCESS:          0 HIT:          0 MISS:          0
cpu0_ITLB TRANSLATION  ACCESS:          0 HIT:          0 MISS:          0
cpu0_ITLB PREFETCH REQUESTED:          0 ISSUED:          0 USEFUL:          0 USELESS:          0
cpu0_ITLB AVERAGE MISS LATENCY: -nan cycles
cpu0_L1D TOTAL        ACCESS:   61952871 HIT:   61682051 MISS:     270820
cpu0_L1D LOAD         ACCESS:   49206587 HIT:   49197367 MISS:       9220
cpu0_L1D RFO          ACCESS:          0 HIT:          0 MISS:          0
cpu0_L1D PREFETCH     ACCESS:          0 HIT:          0 MISS:          0
cpu0_L1D WRITE        ACCESS:   12745652 HIT:   12484106 MISS:     261546
cpu0_L1D TRANSLATION  ACCESS:        632 HIT:        578 MISS:         54
cpu0_L1D PREFETCH REQUESTED:          0 ISSUED:          0 USEFUL:          0 USELESS:          0
cpu0_L1D AVERAGE MISS LATENCY: 574.9 cycles
cpu0_L1D TOTAL        ACCESS:          0 HIT:          0 MISS:          0
cpu0_L1D LOAD         ACCESS:          0 HIT:          0 MISS:          0
cpu0_L1D RFO          ACCESS:          0 HIT:          0 MISS:          0
cpu0_L1D PREFETCH     ACCESS:          0 HIT:          0 MISS:          0
cpu0_L1D WRITE        ACCESS:          0 HIT:          0 MISS:          0
cpu0_L1D TRANSLATION  ACCESS:          0 HIT:          0 MISS:          0
cpu0_L1D PREFETCH REQUESTED:          0 ISSUED:          0 USEFUL:          0 USELESS:          0
cpu0_L1D AVERAGE MISS LATENCY: 574.9 cycles
cpu0_L1D TOTAL        ACCESS:          0 HIT:          0 MISS:          0
cpu0_L1D LOAD         ACCESS:          0 HIT:          0 MISS:          0
cpu0_L1D RFO          ACCESS:          0 HIT:          0 MISS:          0
cpu0_L1D PREFETCH     ACCESS:          0 HIT:          0 MISS:          0
cpu0_L1D WRITE        ACCESS:          0 HIT:          0 MISS:          0
cpu0_L1D TRANSLATION  ACCESS:          0 HIT:          0 MISS:          0
cpu0_L1D PREFETCH REQUESTED:          0 ISSUED:          0 USEFUL:          0 USELESS:          0
cpu0_L1D AVERAGE MISS LATENCY: 574.9 cycles
cpu0_L1D TOTAL        ACCESS:          0 HIT:          0 MISS:          0
cpu0_L1D LOAD         ACCESS:          0 HIT:          0 MISS:          0
cpu0_L1D RFO          ACCESS:          0 HIT:          0 MISS:          0
cpu0_L1D PREFETCH     ACCESS:          0 HIT:          0 MISS:          0
cpu0_L1D WRITE        ACCESS:          0 HIT:          0 MISS:          0
cpu0_L1D TRANSLATION  ACCESS:          0 HIT:          0 MISS:          0
cpu0_L1D PREFETCH REQUESTED:          0 ISSUED:          0 USEFUL:          0 USELESS:          0
cpu0_L1D AVERAGE MISS LATENCY: 574.9 cycles
cpu0_L1I TOTAL        ACCESS:    1297198 HIT:    1297198 MISS:          0
cpu0_L1I LOAD         ACCESS:    1297198 HIT:    1297198 MISS:          0
cpu0_L1I RFO          ACCESS:          0 HIT:          0 MISS:          0
cpu0_L1I PREFETCH     ACCESS:          0 HIT:          0 MISS:          0
cpu0_L1I WRITE        ACCESS:          0 HIT:          0 MISS:          0
cpu0_L1I TRANSLATION  ACCESS:          0 HIT:          0 MISS:          0
cpu0_L1I PREFETCH REQUESTED:          0 ISSUED:          0 USEFUL:          0 USELESS:          0
cpu0_L1I AVERAGE MISS LATENCY: -nan cycles
cpu0_L1I TOTAL        ACCESS:          0 HIT:          0 MISS:          0
cpu0_L1I LOAD         ACCESS:          0 HIT:          0 MISS:          0
cpu0_L1I RFO          ACCESS:          0 HIT:          0 MISS:          0
cpu0_L1I PREFETCH     ACCESS:          0 HIT:          0 MISS:          0
cpu0_L1I WRITE        ACCESS:          0 HIT:          0 MISS:          0
cpu0_L1I TRANSLATION  ACCESS:          0 HIT:          0 MISS:          0
cpu0_L1I PREFETCH REQUESTED:          0 ISSUED:          0 USEFUL:          0 USELESS:          0
cpu0_L1I AVERAGE MISS LATENCY: -nan cycles
cpu0_L1I TOTAL        ACCESS:          0 HIT:          0 MISS:          0
cpu0_L1I LOAD         ACCESS:          0 HIT:          0 MISS:          0
cpu0_L1I RFO          ACCESS:          0 HIT:          0 MISS:          0
cpu0_L1I PREFETCH     ACCESS:          0 HIT:          0 MISS:          0
cpu0_L1I WRITE        ACCESS:          0 HIT:          0 MISS:          0
cpu0_L1I TRANSLATION  ACCESS:          0 HIT:          0 MISS:          0
cpu0_L1I PREFETCH REQUESTED:          0 ISSUED:          0 USEFUL:          0 USELESS:          0
cpu0_L1I AVERAGE MISS LATENCY: -nan cycles
cpu0_L1I TOTAL        ACCESS:          0 HIT:          0 MISS:          0
cpu0_L1I LOAD         ACCESS:          0 HIT:          0 MISS:          0
cpu0_L1I RFO          ACCESS:          0 HIT:          0 MISS:          0
cpu0_L1I PREFETCH     ACCESS:          0 HIT:          0 MISS:          0
cpu0_L1I WRITE        ACCESS:          0 HIT:          0 MISS:          0
cpu0_L1I TRANSLATION  ACCESS:          0 HIT:          0 MISS:          0
cpu0_L1I PREFETCH REQUESTED:          0 ISSUED:          0 USEFUL:          0 USELESS:          0
cpu0_L1I AVERAGE MISS LATENCY: -nan cycles
cpu0_L2C TOTAL        ACCESS:     166317 HIT:      39743 MISS:     126574
cpu0_L2C LOAD         ACCESS:       7193 HIT:       4502 MISS:       2691
cpu0_L2C RFO          ACCESS:      33949 HIT:        279 MISS:      33670
cpu0_L2C PREFETCH     ACCESS:      91152 HIT:        988 MISS:      90164
cpu0_L2C WRITE        ACCESS:      33969 HIT:      33922 MISS:         47
cpu0_L2C TRANSLATION  ACCESS:         54 HIT:         52 MISS:          2
cpu0_L2C PREFETCH REQUESTED:      91438 ISSUED:      91152 USEFUL:       4162 USELESS:          3
cpu0_L2C AVERAGE MISS LATENCY: 1280 cycles
cpu0_L2C TOTAL        ACCESS:          0 HIT:          0 MISS:          0
cpu0_L2C LOAD         ACCESS:          0 HIT:          0 MISS:          0
cpu0_L2C RFO          ACCESS:          0 HIT:          0 MISS:          0
cpu0_L2C PREFETCH     ACCESS:          0 HIT:          0 MISS:          0
cpu0_L2C WRITE        ACCESS:          0 HIT:          0 MISS:          0
cpu0_L2C TRANSLATION  ACCESS:          0 HIT:          0 MISS:          0
cpu0_L2C PREFETCH REQUESTED:      91438 ISSUED:      91152 USEFUL:       4162 USELESS:          3
cpu0_L2C AVERAGE MISS LATENCY: 1280 cycles
cpu0_L2C TOTAL        ACCESS:          0 HIT:          0 MISS:          0
cpu0_L2C LOAD         ACCESS:          0 HIT:          0 MISS:          0
cpu0_L2C RFO          ACCESS:          0 HIT:          0 MISS:          0
cpu0_L2C PREFETCH     ACCESS:          0 HIT:          0 MISS:          0
cpu0_L2C WRITE        ACCESS:          0 HIT:          0 MISS:          0
cpu0_L2C TRANSLATION  ACCESS:          0 HIT:          0 MISS:          0
cpu0_L2C PREFETCH REQUESTED:      91438 ISSUED:      91152 USEFUL:       4162 USELESS:          3
cpu0_L2C AVERAGE MISS LATENCY: 1280 cycles
cpu0_L2C TOTAL        ACCESS:          0 HIT:          0 MISS:          0
cpu0_L2C LOAD         ACCESS:          0 HIT:          0 MISS:          0
cpu0_L2C RFO          ACCESS:          0 HIT:          0 MISS:          0
cpu0_L2C PREFETCH     ACCESS:          0 HIT:          0 MISS:          0
cpu0_L2C WRITE        ACCESS:          0 HIT:          0 MISS:          0
cpu0_L2C TRANSLATION  ACCESS:          0 HIT:          0 MISS:          0
cpu0_L2C PREFETCH REQUESTED:      91438 ISSUED:      91152 USEFUL:       4162 USELESS:          3
cpu0_L2C AVERAGE MISS LATENCY: 1280 cycles
cpu0_STLB TOTAL        ACCESS:        672 HIT:         41 MISS:        631
cpu0_STLB LOAD         ACCESS:        672 HIT:         41 MISS:        631
cpu0_STLB RFO          ACCESS:          0 HIT:          0 MISS:          0
cpu0_STLB PREFETCH     ACCESS:          0 HIT:          0 MISS:          0
cpu0_STLB WRITE        ACCESS:          0 HIT:          0 MISS:          0
cpu0_STLB TRANSLATION  ACCESS:          0 HIT:          0 MISS:          0
cpu0_STLB PREFETCH REQUESTED:          0 ISSUED:          0 USEFUL:          0 USELESS:          0
cpu0_STLB AVERAGE MISS LATENCY: 242.3 cycles
cpu0_STLB TOTAL        ACCESS:          0 HIT:          0 MISS:          0
cpu0_STLB LOAD         ACCESS:          0 HIT:          0 MISS:          0
cpu0_STLB RFO          ACCESS:          0 HIT:          0 MISS:          0
cpu0_STLB PREFETCH     ACCESS:          0 HIT:          0 MISS:          0
cpu0_STLB WRITE        ACCESS:          0 HIT:          0 MISS:          0
cpu0_STLB TRANSLATION  ACCESS:          0 HIT:          0 MISS:          0
cpu0_STLB PREFETCH REQUESTED:          0 ISSUED:          0 USEFUL:          0 USELESS:          0
cpu0_STLB AVERAGE MISS LATENCY: 242.3 cycles
cpu0_STLB TOTAL        ACCESS:          0 HIT:          0 MISS:          0
cpu0_STLB LOAD         ACCESS:          0 HIT:          0 MISS:          0
cpu0_STLB RFO          ACCESS:          0 HIT:          0 MISS:          0
cpu0_STLB PREFETCH     ACCESS:          0 HIT:          0 MISS:          0
cpu0_STLB WRITE        ACCESS:          0 HIT:          0 MISS:          0
cpu0_STLB TRANSLATION  ACCESS:          0 HIT:          0 MISS:          0
cpu0_STLB PREFETCH REQUESTED:          0 ISSUED:          0 USEFUL:          0 USELESS:          0
cpu0_STLB AVERAGE MISS LATENCY: 242.3 cycles
cpu0_STLB TOTAL        ACCESS:          0 HIT:          0 MISS:          0
cpu0_STLB LOAD         ACCESS:          0 HIT:          0 MISS:          0
cpu0_STLB RFO          ACCESS:          0 HIT:          0 MISS:          0
cpu0_STLB PREFETCH     ACCESS:          0 HIT:          0 MISS:          0
cpu0_STLB WRITE        ACCESS:          0 HIT:          0 MISS:          0
cpu0_STLB TRANSLATION  ACCESS:          0 HIT:          0 MISS:          0
cpu0_STLB PREFETCH REQUESTED:          0 ISSUED:          0 USEFUL:          0 USELESS:          0
cpu0_STLB AVERAGE MISS LATENCY: 242.3 cycles
cpu1_DTLB TOTAL        ACCESS:          0 HIT:          0 MISS:          0
cpu1_DTLB LOAD         ACCESS:          0 HIT:          0 MISS:          0
cpu1_DTLB RFO          ACCESS:          0 HIT:          0 MISS:          0
cpu1_DTLB PREFETCH     ACCESS:          0 HIT:          0 MISS:          0
cpu1_DTLB WRITE        ACCESS:          0 HIT:          0 MISS:          0
cpu1_DTLB TRANSLATION  ACCESS:          0 HIT:          0 MISS:          0
cpu1_DTLB PREFETCH REQUESTED:          0 ISSUED:          0 USEFUL:          0 USELESS:          0
cpu1_DTLB AVERAGE MISS LATENCY: 88.8 cycles
cpu1_DTLB TOTAL        ACCESS:   51880816 HIT:   51875049 MISS:       5767
cpu1_DTLB LOAD         ACCESS:   51880816 HIT:   51875049 MISS:       5767
cpu1_DTLB RFO          ACCESS:          0 HIT:          0 MISS:          0
cpu1_DTLB PREFETCH     ACCESS:          0 HIT:          0 MISS:          0
cpu1_DTLB WRITE        ACCESS:          0 HIT:          0 MISS:          0
cpu1_DTLB TRANSLATION  ACCESS:          0 HIT:          0 MISS:          0
cpu1_DTLB PREFETCH REQUESTED:          0 ISSUED:          0 USEFUL:          0 USELESS:          0
cpu1_DTLB AVERAGE MISS LATENCY: 88.8 cycles
cpu1_DTLB TOTAL        ACCESS:          0 HIT:          0 MISS:          0
cpu1_DTLB LOAD         ACCESS:          0 HIT:          0 MISS:          0
cpu1_DTLB RFO          ACCESS:          0 HIT:          0 MISS:          0
cpu1_DTLB PREFETCH     ACCESS:          0 HIT:          0 MISS:          0
cpu1_DTLB WRITE        ACCESS:          0 HIT:          0 MISS:          0
cpu1_DTLB TRANSLATION  ACCESS:          0 HIT:          0 MISS:          0
cpu1_DTLB PREFETCH REQUESTED:          0 ISSUED:          0 USEFUL:          0 USELESS:          0
cpu1_DTLB AVERAGE MISS LATENCY: 88.8 cycles
cpu1_DTLB TOTAL        ACCESS:          0 HIT:          0 MISS:          0
cpu1_DTLB LOAD         ACCESS:          0 HIT:          0 MISS:          0
cpu1_DTLB RFO          ACCESS:          0 HIT:          0 MISS:          0
cpu1_DTLB PREFETCH     ACCESS:          0 HIT:          0 MISS:          0
cpu1_DTLB WRITE        ACCESS:          0 HIT:          0 MISS:          0
cpu1_DTLB TRANSLATION  ACCESS:          0 HIT:          0 MISS:          0
cpu1_DTLB PREFETCH REQUESTED:          0 ISSUED:          0 USEFUL:          0 USELESS:          0
cpu1_DTLB AVERAGE MISS LATENCY: 88.8 cycles
cpu1_ITLB TOTAL        ACCESS:          0 HIT:          0 MISS:          0
cpu1_ITLB LOAD         ACCESS:          0 HIT:          0 MISS:          0
cpu1_ITLB RFO          ACCESS:          0 HIT:          0 MISS:          0
cpu1_ITLB PREFETCH     ACCESS:          0 HIT:          0 MISS:          0
cpu1_ITLB WRITE        ACCESS:          0 HIT:          0 MISS:          0
cpu1_ITLB TRANSLATION  ACCESS:          0 HIT:          0 MISS:          0
cpu1_ITLB PREFETCH REQUESTED:          0 ISSUED:          0 USEFUL:          0 USELESS:          0
cpu1_ITLB AVERAGE MISS LATENCY: -nan cycles
cpu1_ITLB TOTAL        ACCESS:    3993662 HIT:    3993662 MISS:          0
cpu1_ITLB LOAD         ACCESS:    3993662 HIT:    3993662 MISS:          0
cpu1_ITLB RFO          ACCESS:          0 HIT:          0 MISS:          0
cpu1_ITLB PREFETCH     ACCESS:          0 HIT:          0 MISS:          0
cpu1_ITLB WRITE        ACCESS:          0 HIT:          0 MISS:          0
cpu1_ITLB TRANSLATION  ACCESS:          0 HIT:          0 MISS:          0
cpu1_ITLB PREFETCH REQUESTED:          0 ISSUED:          0 USEFUL:          0 USELESS:          0
cpu1_ITLB AVERAGE MISS LATENCY: -nan cycles
cpu1_ITLB TOTAL        ACCESS:          0 HIT:          0 MISS:          0
cpu1_ITLB LOAD         ACCESS:          0 HIT:          0 MISS:          0
cpu1_ITLB RFO          ACCESS:          0 HIT:          0 MISS:          0
cpu1_ITLB PREFETCH     ACCESS:          0 HIT:          0 MISS:          0
cpu1_ITLB WRITE        ACCESS:          0 HIT:          0 MISS:          0
cpu1_ITLB TRANSLATION  ACCESS:          0 HIT:          0 MISS:          0
cpu1_ITLB PREFETCH REQUESTED:          0 ISSUED:          0 USEFUL:          0 USELESS:          0
cpu1_ITLB AVERAGE MISS LATENCY: -nan cycles
cpu1_ITLB TOTAL        ACCESS:          0 HIT:          0 MISS:          0
cpu1_ITLB LOAD         ACCESS:          0 HIT:          0 MISS:          0
cpu1_ITLB RFO          ACCESS:          0 HIT:          0 MISS:          0
cpu1_ITLB PREFETCH     ACCESS:          0 HIT:          0 MISS:          0
cpu1_ITLB WRITE        ACCESS:          0 HIT:          0 MISS:          0
cpu1_ITLB TRANSLATION  ACCESS:          0 HIT:          0 MISS:          0
cpu1_ITLB PREFETCH REQUESTED:          0 ISSUED:          0 USEFUL:          0 USELESS:          0
cpu1_ITLB AVERAGE MISS LATENCY: -nan cycles
cpu1_L1D TOTAL        ACCESS:          0 HIT:          0 MISS:          0
cpu1_L1D LOAD         ACCESS:          0 HIT:          0 MISS:          0
cpu1_L1D RFO          ACCESS:          0 HIT:          0 MISS:          0
cpu1_L1D PREFETCH     ACCESS:          0 HIT:          0 MISS:          0
cpu1_L1D WRITE        ACCESS:          0 HIT:          0 MISS:          0
cpu1_L1D TRANSLATION  ACCESS:          0 HIT:          0 MISS:          0
cpu1_L1D PREFETCH REQUESTED:          0 ISSUED:          0 USEFUL:          0 USELESS:          0
cpu1_L1D AVERAGE MISS LATENCY: 222.6 cycles
cpu1_L1D TOTAL        ACCESS:   71683146 HIT:   71487425 MISS:     195721
cpu1_L1D LOAD         ACCESS:   41004700 HIT:   40963616 MISS:      41084
cpu1_L1D RFO          ACCESS:          0 HIT:          0 MISS:          0
cpu1_L1D PREFETCH     ACCESS:          0 HIT:          0 MISS:          0
cpu1_L1D WRITE        ACCESS:   30677190 HIT:   30522691 MISS:     154499
cpu1_L1D TRANSLATION  ACCESS:       1256 HIT:       1118 MISS:        138
cpu1_L1D PREFETCH REQUESTED:          0 ISSUED:          0 USEFUL:          0 USELESS:          0
cpu1_L1D AVERAGE MISS LATENCY: 222.6 cycles
cpu1_L1D TOTAL        ACCESS:          0 HIT:          0 MISS:          0
cpu1_L1D LOAD         ACCESS:          0 HIT:          0 MISS:          0
cpu1_L1D RFO          ACCESS:          0 HIT:          0 MISS:          0
cpu1_L1D PREFETCH     ACCESS:          0 HIT:          0 MISS:          0
cpu1_L1D WRITE        ACCESS:          0 HIT:          0 MISS:          0
cpu1_L1D TRANSLATION  ACCESS:          0 HIT:          0 MISS:          0
cpu1_L1D PREFETCH REQUESTED:          0 ISSUED:          0 USEFUL:          0 USELESS:          0
cpu1_L1D AVERAGE MISS LATENCY: 222.6 cycles
cpu1_L1D TOTAL        ACCESS:          0 HIT:          0 MISS:          0
cpu1_L1D LOAD         ACCESS:          0 HIT:          0 MISS:          0
cpu1_L1D RFO          ACCESS:          0 HIT:          0 MISS:          0
cpu1_L1D PREFETCH     ACCESS:          0 HIT:          0 MISS:          0
cpu1_L1D WRITE        ACCESS:          0 HIT:          0 MISS:          0
cpu1_L1D TRANSLATION  ACCESS:          0 HIT:          0 MISS:          0
cpu1_L1D PREFETCH REQUESTED:          0 ISSUED:          0 USEFUL:          0 USELESS:          0
cpu1_L1D AVERAGE MISS LATENCY: 222.6 cycles
cpu1_L1I TOTAL        ACCESS:          0 HIT:          0 MISS:          0
cpu1_L1I LOAD         ACCESS:          0 HIT:          0 MISS:          0
cpu1_L1I RFO          ACCESS:          0 HIT:          0 MISS:          0
cpu1_L1I PREFETCH     ACCESS:          0 HIT:          0 MISS:          0
cpu1_L1I WRITE        ACCESS:          0 HIT:          0 MISS:          0
cpu1_L1I TRANSLATION  ACCESS:          0 HIT:          0 MISS:          0
cpu1_L1I PREFETCH REQUESTED:          0 ISSUED:          0 USEFUL:          0 USELESS:          0
cpu1_L1I AVERAGE MISS LATENCY: -nan cycles
cpu1_L1I TOTAL        ACCESS:    4862245 HIT:    4862245 MISS:          0
cpu1_L1I LOAD         ACCESS:    4862245 HIT:    4862245 MISS:          0
cpu1_L1I RFO          ACCESS:          0 HIT:          0 MISS:          0
cpu1_L1I PREFETCH     ACCESS:          0 HIT:          0 MISS:          0
cpu1_L1I WRITE        ACCESS:          0 HIT:          0 MISS:          0
cpu1_L1I TRANSLATION  ACCESS:          0 HIT:          0 MISS:          0
cpu1_L1I PREFETCH REQUESTED:          0 ISSUED:          0 USEFUL:          0 USELESS:          0
cpu1_L1I AVERAGE MISS LATENCY: -nan cycles
cpu1_L1I TOTAL        ACCESS:          0 HIT:          0 MISS:          0
cpu1_L1I LOAD         ACCESS:          0 HIT:          0 MISS:          0
cpu1_L1I RFO          ACCESS:          0 HIT:          0 MISS:          0
cpu1_L1I PREFETCH     ACCESS:          0 HIT:          0 MISS:          0
cpu1_L1I WRITE        ACCESS:          0 HIT:          0 MISS:          0
cpu1_L1I TRANSLATION  ACCESS:          0 HIT:          0 MISS:          0
cpu1_L1I PREFETCH REQUESTED:          0 ISSUED:          0 USEFUL:          0 USELESS:          0
cpu1_L1I AVERAGE MISS LATENCY: -nan cycles
cpu1_L1I TOTAL        ACCESS:          0 HIT:          0 MISS:          0
cpu1_L1I LOAD         ACCESS:          0 HIT:          0 MISS:          0
cpu1_L1I RFO          ACCESS:          0 HIT:          0 MISS:          0
cpu1_L1I PREFETCH     ACCESS:          0 HIT:          0 MISS:          0
cpu1_L1I WRITE        ACCESS:          0 HIT:          0 MISS:          0
cpu1_L1I TRANSLATION  ACCESS:          0 HIT:          0 MISS:          0
cpu1_L1I PREFETCH REQUESTED:          0 ISSUED:          0 USEFUL:          0 USELESS:          0
cpu1_L1I AVERAGE MISS LATENCY: -nan cycles
cpu1_L2C TOTAL        ACCESS:          0 HIT:          0 MISS:          0
cpu1_L2C LOAD         ACCESS:          0 HIT:          0 MISS:          0
cpu1_L2C RFO          ACCESS:          0 HIT:          0 MISS:          0
cpu1_L2C PREFETCH     ACCESS:          0 HIT:          0 MISS:          0
cpu1_L2C WRITE        ACCESS:          0 HIT:          0 MISS:          0
cpu1_L2C TRANSLATION  ACCESS:          0 HIT:          0 MISS:          0
cpu1_L2C PREFETCH REQUESTED:     491416 ISSUED:     486102 USEFUL:      19900 USELESS:        252
cpu1_L2C AVERAGE MISS LATENCY: 112.8 cycles
cpu1_L2C TOTAL        ACCESS:     568859 HIT:      43536 MISS:     525323
cpu1_L2C LOAD         ACCESS:      34916 HIT:      18678 MISS:      16238
cpu1_L2C RFO          ACCESS:      23843 HIT:        818 MISS:      23025
cpu1_L2C PREFETCH     ACCESS:     486102 HIT:        181 MISS:     485921
cpu1_L2C WRITE        ACCESS:      23860 HIT:      23859 MISS:          1
cpu1_L2C TRANSLATION  ACCESS:        138 HIT:          0 MISS:        138
cpu1_L2C PREFETCH REQUESTED:     491416 ISSUED:     486102 USEFUL:      19900 USELESS:        252
cpu1_L2C AVERAGE MISS LATENCY: 112.8 cycles
cpu1_L2C TOTAL        ACCESS:          0 HIT:          0 MISS:          0
cpu1_L2C LOAD         ACCESS:          0 HIT:          0 MISS:          0
cpu1_L2C RFO          ACCESS:          0 HIT:          0 MISS:          0
cpu1_L2C PREFETCH     ACCESS:          0 HIT:          0 MISS:          0
cpu1_L2C WRITE        ACCESS:          0 HIT:          0 MISS:          0
cpu1_L2C TRANSLATION  ACCESS:          0 HIT:          0 MISS:          0
cpu1_L2C PREFETCH REQUESTED:     491416 ISSUED:     486102 USEFUL:      19900 USELESS:        252
cpu1_L2C AVERAGE MISS LATENCY: 112.8 cycles
cpu1_L2C TOTAL        ACCESS:          0 HIT:          0 MISS:          0
cpu1_L2C LOAD         ACCESS:          0 HIT:          0 MISS:          0
cpu1_L2C RFO          ACCESS:          0 HIT:          0 MISS:          0
cpu1_L2C PREFETCH     ACCESS:          0 HIT:          0 MISS:          0
cpu1_L2C WRITE        ACCESS:          0 HIT:          0 MISS:          0
cpu1_L2C TRANSLATION  ACCESS:          0 HIT:          0 MISS:          0
cpu1_L2C PREFETCH REQUESTED:     491416 ISSUED:     486102 USEFUL:      19900 USELESS:        252
cpu1_L2C AVERAGE MISS LATENCY: 112.8 cycles
cpu1_STLB TOTAL        ACCESS:          0 HIT:          0 MISS:          0
cpu1_STLB LOAD         ACCESS:          0 HIT:          0 MISS:          0
cpu1_STLB RFO          ACCESS:          0 HIT:          0 MISS:          0
cpu1_STLB PREFETCH     ACCESS:          0 HIT:          0 MISS:          0
cpu1_STLB WRITE        ACCESS:          0 HIT:          0 MISS:          0
cpu1_STLB TRANSLATION  ACCESS:          0 HIT:          0 MISS:          0
cpu1_STLB PREFETCH REQUESTED:          0 ISSUED:          0 USEFUL:          0 USELESS:          0
cpu1_STLB AVERAGE MISS LATENCY: 466.1 cycles
cpu1_STLB TOTAL        ACCESS:       1340 HIT:         86 MISS:       1254
cpu1_STLB LOAD         ACCESS:       1340 HIT:         86 MISS:       1254
cpu1_STLB RFO          ACCESS:          0 HIT:          0 MISS:          0
cpu1_STLB PREFETCH     ACCESS:          0 HIT:          0 MISS:          0
cpu1_STLB WRITE        ACCESS:          0 HIT:          0 MISS:          0
cpu1_STLB TRANSLATION  ACCESS:          0 HIT:          0 MISS:          0
cpu1_STLB PREFETCH REQUESTED:          0 ISSUED:          0 USEFUL:          0 USELESS:          0
cpu1_STLB AVERAGE MISS LATENCY: 466.1 cycles
cpu1_STLB TOTAL        ACCESS:          0 HIT:          0 MISS:          0
cpu1_STLB LOAD         ACCESS:          0 HIT:          0 MISS:          0
cpu1_STLB RFO          ACCESS:          0 HIT:          0 MISS:          0
cpu1_STLB PREFETCH     ACCESS:          0 HIT:          0 MISS:          0
cpu1_STLB WRITE        ACCESS:          0 HIT:          0 MISS:          0
cpu1_STLB TRANSLATION  ACCESS:          0 HIT:          0 MISS:          0
cpu1_STLB PREFETCH REQUESTED:          0 ISSUED:          0 USEFUL:          0 USELESS:          0
cpu1_STLB AVERAGE MISS LATENCY: 466.1 cycles
cpu1_STLB TOTAL        ACCESS:          0 HIT:          0 MISS:          0
cpu1_STLB LOAD         ACCESS:          0 HIT:          0 MISS:          0
cpu1_STLB RFO          ACCESS:          0 HIT:          0 MISS:          0
cpu1_STLB PREFETCH     ACCESS:          0 HIT:          0 MISS:          0
cpu1_STLB WRITE        ACCESS:          0 HIT:          0 MISS:          0
cpu1_STLB TRANSLATION  ACCESS:          0 HIT:          0 MISS:          0
cpu1_STLB PREFETCH REQUESTED:          0 ISSUED:          0 USEFUL:          0 USELESS:          0
cpu1_STLB AVERAGE MISS LATENCY: 466.1 cycles
cpu2_DTLB TOTAL        ACCESS:          0 HIT:          0 MISS:          0
cpu2_DTLB LOAD         ACCESS:          0 HIT:          0 MISS:          0
cpu2_DTLB RFO          ACCESS:          0 HIT:          0 MISS:          0
cpu2_DTLB PREFETCH     ACCESS:          0 HIT:          0 MISS:          0
cpu2_DTLB WRITE        ACCESS:          0 HIT:          0 MISS:          0
cpu2_DTLB TRANSLATION  ACCESS:          0 HIT:          0 MISS:          0
cpu2_DTLB PREFETCH REQUESTED:          0 ISSUED:          0 USEFUL:          0 USELESS:          0
cpu2_DTLB AVERAGE MISS LATENCY: 25.64 cycles
cpu2_DTLB TOTAL        ACCESS:          0 HIT:          0 MISS:          0
cpu2_DTLB LOAD         ACCESS:          0 HIT:          0 MISS:          0
cpu2_DTLB RFO          ACCESS:          0 HIT:          0 MISS:          0
cpu2_DTLB PREFETCH     ACCESS:          0 HIT:          0 MISS:          0
cpu2_DTLB WRITE        ACCESS:          0 HIT:          0 MISS:          0
cpu2_DTLB TRANSLATION  ACCESS:          0 HIT:          0 MISS:          0
cpu2_DTLB PREFETCH REQUESTED:          0 ISSUED:          0 USEFUL:          0 USELESS:          0
cpu2_DTLB AVERAGE MISS LATENCY: 25.64 cycles
cpu2_DTLB TOTAL        ACCESS:   16089191 HIT:   15954929 MISS:     134262
cpu2_DTLB LOAD         ACCESS:   16089191 HIT:   15954929 MISS:     134262
cpu2_DTLB RFO          ACCESS:          0 HIT:          0 MISS:          0
cpu2_DTLB PREFETCH     ACCESS:          0 HIT:          0 MISS:          0
cpu2_DTLB WRITE        ACCESS:          0 HIT:          0 MISS:          0
cpu2_DTLB TRANSLATION  ACCESS:          0 HIT:          0 MISS:          0
cpu2_DTLB PREFETCH REQUESTED:          0 ISSUED:          0 USEFUL:          0 USELESS:          0
cpu2_DTLB AVERAGE MISS LATENCY: 25.64 cycles
cpu2_DTLB TOTAL        ACCESS:          0 HIT:          0 MISS:          0
cpu2_DTLB LOAD         ACCESS:          0 HIT:          0 MISS:          0
cpu2_DTLB RFO          ACCESS:          0 HIT:          0 MISS:          0
cpu2_DTLB PREFETCH     ACCESS:          0 HIT:          0 MISS:          0
cpu2_DTLB WRITE        ACCESS:          0 HIT:          0 MISS:          0
cpu2_DTLB TRANSLATION  ACCESS:          0 HIT:          0 MISS:          0
cpu2_DTLB PREFETCH REQUESTED:          0 ISSUED:          0 USEFUL:          0 USELESS:          0
cpu2_DTLB AVERAGE MISS LATENCY: 25.64 cycles
cpu2_ITLB TOTAL        ACCESS:          0 HIT:          0 MISS:          0
cpu2_ITLB LOAD         ACCESS:          0 HIT:          0 MISS:          0
cpu2_ITLB RFO          ACCESS:          0 HIT:          0 MISS:          0
cpu2_ITLB PREFETCH     ACCESS:          0 HIT:          0 MISS:          0
cpu2_ITLB WRITE        ACCESS:          0 HIT:          0 MISS:          0
cpu2_ITLB TRANSLATION  ACCESS:          0 HIT:          0 MISS:          0
cpu2_ITLB PREFETCH REQUESTED:          0 ISSUED:          0 USEFUL:          0 USELESS:          0
cpu2_ITLB AVERAGE MISS LATENCY: -nan cycles
cpu2_ITLB TOTAL        ACCESS:          0 HIT:          0 MISS:          0
cpu2_ITLB LOAD         ACCESS:          0 HIT:          0 MISS:          0
cpu2_ITLB RFO          ACCESS:          0 HIT:          0 MISS:          0
cpu2_ITLB PREFETCH     ACCESS:          0 HIT:          0 MISS:          0
cpu2_ITLB WRITE        ACCESS:          0 HIT:          0 MISS:          0
cpu2_ITLB TRANSLATION  ACCESS:          0 HIT:          0 MISS:          0
cpu2_ITLB PREFETCH REQUESTED:          0 ISSUED:          0 USEFUL:          0 USELESS:          0
cpu2_ITLB AVERAGE MISS LATENCY: -nan cycles
cpu2_ITLB TOTAL        ACCESS:          0 HIT:          0 MISS:          0
cpu2_ITLB LOAD         ACCESS:          0 HIT:          0 MISS:          0
cpu2_ITLB RFO          ACCESS:          0 HIT:          0 MISS:          0
cpu2_ITLB PREFETCH     ACCESS:          0 HIT:          0 MISS:          0
cpu2_ITLB WRITE        ACCESS:          0 HIT:          0 MISS:          0
cpu2_ITLB TRANSLATION  ACCESS:          0 HIT:          0 MISS:          0
cpu2_ITLB PREFETCH REQUESTED:          0 ISSUED:          0 USEFUL:          0 USELESS:          0
cpu2_ITLB AVERAGE MISS LATENCY: -nan cycles
cpu2_ITLB TOTAL        ACCESS:          0 HIT:          0 MISS:          0
cpu2_ITLB LOAD         ACCESS:          0 HIT:          0 MISS:          0
cpu2_ITLB RFO          ACCESS:          0 HIT:          0 MISS:          0
cpu2_ITLB PREFETCH     ACCESS:          0 HIT:          0 MISS:          0
cpu2_ITLB WRITE        ACCESS:          0 HIT:          0 MISS:          0
cpu2_ITLB TRANSLATION  ACCESS:          0 HIT:          0 MISS:          0
cpu2_ITLB PREFETCH REQUESTED:          0 ISSUED:          0 USEFUL:          0 USELESS:          0
cpu2_ITLB AVERAGE MISS LATENCY: -nan cycles
cpu2_L1D TOTAL        ACCESS:          0 HIT:          0 MISS:          0
cpu2_L1D LOAD         ACCESS:          0 HIT:          0 MISS:          0
cpu2_L1D RFO          ACCESS:          0 HIT:          0 MISS:          0
cpu2_L1D PREFETCH     ACCESS:          0 HIT:          0 MISS:          0
cpu2_L1D WRITE        ACCESS:          0 HIT:          0 MISS:          0
cpu2_L1D TRANSLATION  ACCESS:          0 HIT:          0 MISS:          0
cpu2_L1D PREFETCH REQUESTED:          0 ISSUED:          0 USEFUL:          0 USELESS:          0
cpu2_L1D AVERAGE MISS LATENCY: 95.14 cycles
cpu2_L1D TOTAL        ACCESS:          0 HIT:          0 MISS:          0
cpu2_L1D LOAD         ACCESS:          0 HIT:          0 MISS:          0
cpu2_L1D RFO          ACCESS:          0 HIT:          0 MISS:          0
cpu2_L1D PREFETCH     ACCESS:          0 HIT:          0 MISS:          0
cpu2_L1D WRITE        ACCESS:          0 HIT:          0 MISS:          0
cpu2_L1D TRANSLATION  ACCESS:          0 HIT:          0 MISS:          0
cpu2_L1D PREFETCH REQUESTED:          0 ISSUED:          0 USEFUL:          0 USELESS:          0
cpu2_L1D AVERAGE MISS LATENCY: 95.14 cycles
cpu2_L1D TOTAL        ACCESS:   23933989 HIT:   20415364 MISS:    3518625
cpu2_L1D LOAD         ACCESS:   13382499 HIT:    9872733 MISS:    3509766
cpu2_L1D RFO          ACCESS:          0 HIT:          0 MISS:          0
cpu2_L1D PREFETCH     ACCESS:          0 HIT:          0 MISS:          0
cpu2_L1D WRITE        ACCESS:   10530830 HIT:   10522784 MISS:       8046
cpu2_L1D TRANSLATION  ACCESS:      20660 HIT:      19847 MISS:        813
cpu2_L1D PREFETCH REQUESTED:          0 ISSUED:          0 USEFUL:          0 USELESS:          0
cpu2_L1D AVERAGE MISS LATENCY: 95.14 cycles
cpu2_L1D TOTAL        ACCESS:          0 HIT:          0 MISS:          0
cpu2_L1D LOAD         ACCESS:          0 HIT:          0 MISS:          0
cpu2_L1D RFO          ACCESS:          0 HIT:          0 MISS:          0
cpu2_L1D PREFETCH     ACCESS:          0 HIT:          0 MISS:          0
cpu2_L1D WRITE        ACCESS:          0 HIT:          0 MISS:          0
cpu2_L1D TRANSLATION  ACCESS:          0 HIT:          0 MISS:          0
cpu2_L1D PREFETCH REQUESTED:          0 ISSUED:          0 USEFUL:          0 USELESS:          0
cpu2_L1D AVERAGE MISS LATENCY: 95.14 cycles
cpu2_L1I TOTAL        ACCESS:          0 HIT:          0 MISS:          0
cpu2_L1I LOAD         ACCESS:          0 HIT:          0 MISS:          0
cpu2_L1I RFO          ACCESS:          0 HIT:          0 MISS:          0
cpu2_L1I PREFETCH     ACCESS:          0 HIT:          0 MISS:          0
cpu2_L1I WRITE        ACCESS:          0 HIT:          0 MISS:          0
cpu2_L1I TRANSLATION  ACCESS:          0 HIT:          0 MISS:          0
cpu2_L1I PREFETCH REQUESTED:          0 ISSUED:          0 USEFUL:          0 USELESS:          0
cpu2_L1I AVERAGE MISS LATENCY: -nan cycles
cpu2_L1I TOTAL        ACCESS:          0 HIT:          0 MISS:          0
cpu2_L1I LOAD         ACCESS:          0 HIT:          0 MISS:          0
cpu2_L1I RFO          ACCESS:          0 HIT:          0 MISS:          0
cpu2_L1I PREFETCH     ACCESS:          0 HIT:          0 MISS:          0
cpu2_L1I WRITE        ACCESS:          0 HIT:          0 MISS:          0
cpu2_L1I TRANSLATION  ACCESS:          0 HIT:          0 MISS:          0
cpu2_L1I PREFETCH REQUESTED:          0 ISSUED:          0 USEFUL:          0 USELESS:          0
cpu2_L1I AVERAGE MISS LATENCY: -nan cycles
cpu2_L1I TOTAL        ACCESS:          0 HIT:          0 MISS:          0
cpu2_L1I LOAD         ACCESS:          0 HIT:          0 MISS:          0
cpu2_L1I RFO          ACCESS:          0 HIT:          0 MISS:          0
cpu2_L1I PREFETCH     ACCESS:          0 HIT:          0 MISS:          0
cpu2_L1I WRITE        ACCESS:          0 HIT:          0 MISS:          0
cpu2_L1I TRANSLATION  ACCESS:          0 HIT:          0 MISS:          0
cpu2_L1I PREFETCH REQUESTED:          0 ISSUED:          0 USEFUL:          0 USELESS:          0
cpu2_L1I AVERAGE MISS LATENCY: -nan cycles
cpu2_L1I TOTAL        ACCESS:          0 HIT:          0 MISS:          0
cpu2_L1I LOAD         ACCESS:          0 HIT:          0 MISS:          0
cpu2_L1I RFO          ACCESS:          0 HIT:          0 MISS:          0
cpu2_L1I PREFETCH     ACCESS:          0 HIT:          0 MISS:          0
cpu2_L1I WRITE        ACCESS:          0 HIT:          0 MISS:          0
cpu2_L1I TRANSLATION  ACCESS:          0 HIT:          0 MISS:          0
cpu2_L1I PREFETCH REQUESTED:          0 ISSUED:          0 USEFUL:          0 USELESS:          0
cpu2_L1I AVERAGE MISS LATENCY: -nan cycles
cpu2_L2C TOTAL        ACCESS:          0 HIT:          0 MISS:          0
cpu2_L2C LOAD         ACCESS:          0 HIT:          0 MISS:          0
cpu2_L2C RFO          ACCESS:          0 HIT:          0 MISS:          0
cpu2_L2C PREFETCH     ACCESS:          0 HIT:          0 MISS:          0
cpu2_L2C WRITE        ACCESS:          0 HIT:          0 MISS:          0
cpu2_L2C TRANSLATION  ACCESS:          0 HIT:          0 MISS:          0
cpu2_L2C PREFETCH REQUESTED:   28786130 ISSUED:   24329619 USEFUL:     541912 USELESS:        131
cpu2_L2C AVERAGE MISS LATENCY: 21.81 cycles
cpu2_L2C TOTAL        ACCESS:          0 HIT:          0 MISS:          0
cpu2_L2C LOAD         ACCESS:          0 HIT:          0 MISS:          0
cpu2_L2C RFO          ACCESS:          0 HIT:          0 MISS:          0
cpu2_L2C PREFETCH     ACCESS:          0 HIT:          0 MISS:          0
cpu2_L2C WRITE        ACCESS:          0 HIT:          0 MISS:          0
cpu2_L2C TRANSLATION  ACCESS:          0 HIT:          0 MISS:          0
cpu2_L2C PREFETCH REQUESTED:   28786130 ISSUED:   24329619 USEFUL:     541912 USELESS:        131
cpu2_L2C AVERAGE MISS LATENCY: 21.81 cycles
cpu2_L2C TOTAL        ACCESS:   27633260 HIT:    8339762 MISS:   19293498
cpu2_L2C LOAD         ACCESS:    1982771 HIT:     681711 MISS:    1301060
cpu2_L2C RFO          ACCESS:       2303 HIT:       1922 MISS:        381
cpu2_L2C PREFETCH     ACCESS:   24329622 HIT:    6337834 MISS:   17991788
cpu2_L2C WRITE        ACCESS:    1317753 HIT:    1317753 MISS:          0
cpu2_L2C TRANSLATION  ACCESS:        811 HIT:        542 MISS:        269
cpu2_L2C PREFETCH REQUESTED:   28786130 ISSUED:   24329619 USEFUL:     541912 USELESS:        131
cpu2_L2C AVERAGE MISS LATENCY: 21.81 cycles
cpu2_L2C TOTAL        ACCESS:          0 HIT:          0 MISS:          0
cpu2_L2C LOAD         ACCESS:          0 HIT:          0 MISS:          0
cpu2_L2C RFO          ACCESS:          0 HIT:          0 MISS:          0
cpu2_L2C PREFETCH     ACCESS:          0 HIT:          0 MISS:          0
cpu2_L2C WRITE        ACCESS:          0 HIT:          0 MISS:          0
cpu2_L2C TRANSLATION  ACCESS:          0 HIT:          0 MISS:          0
cpu2_L2C PREFETCH REQUESTED:   28786130 ISSUED:   24329619 USEFUL:     541912 USELESS:        131
cpu2_L2C AVERAGE MISS LATENCY: 21.81 cycles
cpu2_STLB TOTAL        ACCESS:          0 HIT:          0 MISS:          0
cpu2_STLB LOAD         ACCESS:          0 HIT:          0 MISS:          0
cpu2_STLB RFO          ACCESS:          0 HIT:          0 MISS:          0
cpu2_STLB PREFETCH     ACCESS:          0 HIT:          0 MISS:          0
cpu2_STLB WRITE        ACCESS:          0 HIT:          0 MISS:          0
cpu2_STLB TRANSLATION  ACCESS:          0 HIT:          0 MISS:          0
cpu2_STLB PREFETCH REQUESTED:          0 ISSUED:          0 USEFUL:          0 USELESS:          0
cpu2_STLB AVERAGE MISS LATENCY: 213.2 cycles
cpu2_STLB TOTAL        ACCESS:          0 HIT:          0 MISS:          0
cpu2_STLB LOAD         ACCESS:          0 HIT:          0 MISS:          0
cpu2_STLB RFO          ACCESS:          0 HIT:          0 MISS:          0
cpu2_STLB PREFETCH     ACCESS:          0 HIT:          0 MISS:          0
cpu2_STLB WRITE        ACCESS:          0 HIT:          0 MISS:          0
cpu2_STLB TRANSLATION  ACCESS:          0 HIT:          0 MISS:          0
cpu2_STLB PREFETCH REQUESTED:          0 ISSUED:          0 USEFUL:          0 USELESS:          0
cpu2_STLB AVERAGE MISS LATENCY: 213.2 cycles
cpu2_STLB TOTAL        ACCESS:      35122 HIT:      14538 MISS:      20584
cpu2_STLB LOAD         ACCESS:      35122 HIT:      14538 MISS:      20584
cpu2_STLB RFO          ACCESS:          0 HIT:          0 MISS:          0
cpu2_STLB PREFETCH     ACCESS:          0 HIT:          0 MISS:          0
cpu2_STLB WRITE        ACCESS:          0 HIT:          0 MISS:          0
cpu2_STLB TRANSLATION  ACCESS:          0 HIT:          0 MISS:          0
cpu2_STLB PREFETCH REQUESTED:          0 ISSUED:          0 USEFUL:          0 USELESS:          0
cpu2_STLB AVERAGE MISS LATENCY: 213.2 cycles
cpu2_STLB TOTAL        ACCESS:          0 HIT:          0 MISS:          0
cpu2_STLB LOAD         ACCESS:          0 HIT:          0 MISS:          0
cpu2_STLB RFO          ACCESS:          0 HIT:          0 MISS:          0
cpu2_STLB PREFETCH     ACCESS:          0 HIT:          0 MISS:          0
cpu2_STLB WRITE        ACCESS:          0 HIT:          0 MISS:          0
cpu2_STLB TRANSLATION  ACCESS:          0 HIT:          0 MISS:          0
cpu2_STLB PREFETCH REQUESTED:          0 ISSUED:          0 USEFUL:          0 USELESS:          0
cpu2_STLB AVERAGE MISS LATENCY: 213.2 cycles
cpu3_DTLB TOTAL        ACCESS:          0 HIT:          0 MISS:          0
cpu3_DTLB LOAD         ACCESS:          0 HIT:          0 MISS:          0
cpu3_DTLB RFO          ACCESS:          0 HIT:          0 MISS:          0
cpu3_DTLB PREFETCH     ACCESS:          0 HIT:          0 MISS:          0
cpu3_DTLB WRITE        ACCESS:          0 HIT:          0 MISS:          0
cpu3_DTLB TRANSLATION  ACCESS:          0 HIT:          0 MISS:          0
cpu3_DTLB PREFETCH REQUESTED:          0 ISSUED:          0 USEFUL:          0 USELESS:          0
cpu3_DTLB AVERAGE MISS LATENCY: 26 cycles
cpu3_DTLB TOTAL        ACCESS:          0 HIT:          0 MISS:          0
cpu3_DTLB LOAD         ACCESS:          0 HIT:          0 MISS:          0
cpu3_DTLB RFO          ACCESS:          0 HIT:          0 MISS:          0
cpu3_DTLB PREFETCH     ACCESS:          0 HIT:          0 MISS:          0
cpu3_DTLB WRITE        ACCESS:          0 HIT:          0 MISS:          0
cpu3_DTLB TRANSLATION  ACCESS:          0 HIT:          0 MISS:          0
cpu3_DTLB PREFETCH REQUESTED:          0 ISSUED:          0 USEFUL:          0 USELESS:          0
cpu3_DTLB AVERAGE MISS LATENCY: 26 cycles
cpu3_DTLB TOTAL        ACCESS:          0 HIT:          0 MISS:          0
cpu3_DTLB LOAD         ACCESS:          0 HIT:          0 MISS:          0
cpu3_DTLB RFO          ACCESS:          0 HIT:          0 MISS:          0
cpu3_DTLB PREFETCH     ACCESS:          0 HIT:          0 MISS:          0
cpu3_DTLB WRITE        ACCESS:          0 HIT:          0 MISS:          0
cpu3_DTLB TRANSLATION  ACCESS:          0 HIT:          0 MISS:          0
cpu3_DTLB PREFETCH REQUESTED:          0 ISSUED:          0 USEFUL:          0 USELESS:          0
cpu3_DTLB AVERAGE MISS LATENCY: 26 cycles
cpu3_DTLB TOTAL        ACCESS:   29259587 HIT:   29001591 MISS:     257996
cpu3_DTLB LOAD         ACCESS:   29259587 HIT:   29001591 MISS:     257996
cpu3_DTLB RFO          ACCESS:          0 HIT:          0 MISS:          0
cpu3_DTLB PREFETCH     ACCESS:          0 HIT:          0 MISS:          0
cpu3_DTLB WRITE        ACCESS:          0 HIT:          0 MISS:          0
cpu3_DTLB TRANSLATION  ACCESS:          0 HIT:          0 MISS:          0
cpu3_DTLB PREFETCH REQUESTED:          0 ISSUED:          0 USEFUL:          0 USELESS:          0
cpu3_DTLB AVERAGE MISS LATENCY: 26 cycles
cpu3_ITLB TOTAL        ACCESS:          0 HIT:          0 MISS:          0
cpu3_ITLB LOAD         ACCESS:          0 HIT:          0 MISS:          0
cpu3_ITLB RFO          ACCESS:          0 HIT:          0 MISS:          0
cpu3_ITLB PREFETCH     ACCESS:          0 HIT:          0 MISS:          0
cpu3_ITLB WRITE        ACCESS:          0 HIT:          0 MISS:          0
cpu3_ITLB TRANSLATION  ACCESS:          0 HIT:          0 MISS:          0
cpu3_ITLB PREFETCH REQUESTED:          0 ISSUED:          0 USEFUL:          0 USELESS:          0
cpu3_ITLB AVERAGE MISS LATENCY: 16.69 cycles
cpu3_ITLB TOTAL        ACCESS:          0 HIT:          0 MISS:          0
cpu3_ITLB LOAD         ACCESS:          0 HIT:          0 MISS:          0
cpu3_ITLB RFO          ACCESS:          0 HIT:          0 MISS:          0
cpu3_ITLB PREFETCH     ACCESS:          0 HIT:          0 MISS:          0
cpu3_ITLB WRITE        ACCESS:          0 HIT:          0 MISS:          0
cpu3_ITLB TRANSLATION  ACCESS:          0 HIT:          0 MISS:          0
cpu3_ITLB PREFETCH REQUESTED:          0 ISSUED:          0 USEFUL:          0 USELESS:          0
cpu3_ITLB AVERAGE MISS LATENCY: 16.69 cycles
cpu3_ITLB TOTAL        ACCESS:          0 HIT:          0 MISS:          0
cpu3_ITLB LOAD         ACCESS:          0 HIT:          0 MISS:          0
cpu3_ITLB RFO          ACCESS:          0 HIT:          0 MISS:          0
cpu3_ITLB PREFETCH     ACCESS:          0 HIT:          0 MISS:          0
cpu3_ITLB WRITE        ACCESS:          0 HIT:          0 MISS:          0
cpu3_ITLB TRANSLATION  ACCESS:          0 HIT:          0 MISS:          0
cpu3_ITLB PREFETCH REQUESTED:          0 ISSUED:          0 USEFUL:          0 USELESS:          0
cpu3_ITLB AVERAGE MISS LATENCY: 16.69 cycles
cpu3_ITLB TOTAL        ACCESS:     448582 HIT:     436964 MISS:      11618
cpu3_ITLB LOAD         ACCESS:     448582 HIT:     436964 MISS:      11618
cpu3_ITLB RFO          ACCESS:          0 HIT:          0 MISS:          0
cpu3_ITLB PREFETCH     ACCESS:          0 HIT:          0 MISS:          0
cpu3_ITLB WRITE        ACCESS:          0 HIT:          0 MISS:          0
cpu3_ITLB TRANSLATION  ACCESS:          0 HIT:          0 MISS:          0
cpu3_ITLB PREFETCH REQUESTED:          0 ISSUED:          0 USEFUL:          0 USELESS:          0
cpu3_ITLB AVERAGE MISS LATENCY: 16.69 cycles
cpu3_L1D TOTAL        ACCESS:          0 HIT:          0 MISS:          0
cpu3_L1D LOAD         ACCESS:          0 HIT:          0 MISS:          0
cpu3_L1D RFO          ACCESS:          0 HIT:          0 MISS:          0
cpu3_L1D PREFETCH     ACCESS:          0 HIT:          0 MISS:          0
cpu3_L1D WRITE        ACCESS:          0 HIT:          0 MISS:          0
cpu3_L1D TRANSLATION  ACCESS:          0 HIT:          0 MISS:          0
cpu3_L1D PREFETCH REQUESTED:          0 ISSUED:          0 USEFUL:          0 USELESS:          0
cpu3_L1D AVERAGE MISS LATENCY: 118.1 cycles
cpu3_L1D TOTAL        ACCESS:          0 HIT:          0 MISS:          0
cpu3_L1D LOAD         ACCESS:          0 HIT:          0 MISS:          0
cpu3_L1D RFO          ACCESS:          0 HIT:          0 MISS:          0
cpu3_L1D PREFETCH     ACCESS:          0 HIT:          0 MISS:          0
cpu3_L1D WRITE        ACCESS:          0 HIT:          0 MISS:          0
cpu3_L1D TRANSLATION  ACCESS:          0 HIT:          0 MISS:          0
cpu3_L1D PREFETCH REQUESTED:          0 ISSUED:          0 USEFUL:          0 USELESS:          0
cpu3_L1D AVERAGE MISS LATENCY: 118.1 cycles
cpu3_L1D TOTAL        ACCESS:          0 HIT:          0 MISS:          0
cpu3_L1D LOAD         ACCESS:          0 HIT:          0 MISS:          0
cpu3_L1D RFO          ACCESS:          0 HIT:          0 MISS:          0
cpu3_L1D PREFETCH     ACCESS:          0 HIT:          0 MISS:          0
cpu3_L1D WRITE        ACCESS:          0 HIT:          0 MISS:          0
cpu3_L1D TRANSLATION  ACCESS:          0 HIT:          0 MISS:          0
cpu3_L1D PREFETCH REQUESTED:          0 ISSUED:          0 USEFUL:          0 USELESS:          0
cpu3_L1D AVERAGE MISS LATENCY: 118.1 cycles
cpu3_L1D TOTAL        ACCESS:   35824422 HIT:   28179106 MISS:    7645316
cpu3_L1D LOAD         ACCESS:   21184048 HIT:   17816776 MISS:    3367272
cpu3_L1D RFO          ACCESS:          0 HIT:          0 MISS:          0
cpu3_L1D PREFETCH     ACCESS:          0 HIT:          0 MISS:          0
cpu3_L1D WRITE        ACCESS:   14627950 HIT:   10359765 MISS:    4268185
cpu3_L1D TRANSLATION  ACCESS:      12424 HIT:       2565 MISS:       9859
cpu3_L1D PREFETCH REQUESTED:          0 ISSUED:          0 USEFUL:          0 USELESS:          0
cpu3_L1D AVERAGE MISS LATENCY: 118.1 cycles
cpu3_L1I TOTAL        ACCESS:          0 HIT:          0 MISS:          0
cpu3_L1I LOAD         ACCESS:          0 HIT:          0 MISS:          0
cpu3_L1I RFO          ACCESS:          0 HIT:          0 MISS:          0
cpu3_L1I PREFETCH     ACCESS:          0 HIT:          0 MISS:          0
cpu3_L1I WRITE        ACCESS:          0 HIT:          0 MISS:          0
cpu3_L1I TRANSLATION  ACCESS:          0 HIT:          0 MISS:          0
cpu3_L1I PREFETCH REQUESTED:          0 ISSUED:          0 USEFUL:          0 USELESS:          0
cpu3_L1I AVERAGE MISS LATENCY: 24.63 cycles
cpu3_L1I TOTAL        ACCESS:          0 HIT:          0 MISS:          0
cpu3_L1I LOAD         ACCESS:          0 HIT:          0 MISS:          0
cpu3_L1I RFO          ACCESS:          0 HIT:          0 MISS:          0
cpu3_L1I PREFETCH     ACCESS:          0 HIT:          0 MISS:          0
cpu3_L1I WRITE        ACCESS:          0 HIT:          0 MISS:          0
cpu3_L1I TRANSLATION  ACCESS:          0 HIT:          0 MISS:          0
cpu3_L1I PREFETCH REQUESTED:          0 ISSUED:          0 USEFUL:          0 USELESS:          0
cpu3_L1I AVERAGE MISS LATENCY: 24.63 cycles
cpu3_L1I TOTAL        ACCESS:          0 HIT:          0 MISS:          0
cpu3_L1I LOAD         ACCESS:          0 HIT:          0 MISS:          0
cpu3_L1I RFO          ACCESS:          0 HIT:          0 MISS:          0
cpu3_L1I PREFETCH     ACCESS:          0 HIT:          0 MISS:          0
cpu3_L1I WRITE        ACCESS:          0 HIT:          0 MISS:          0
cpu3_L1I TRANSLATION  ACCESS:          0 HIT:          0 MISS:          0
cpu3_L1I PREFETCH REQUESTED:          0 ISSUED:          0 USEFUL:          0 USELESS:          0
cpu3_L1I AVERAGE MISS LATENCY: 24.63 cycles
cpu3_L1I TOTAL        ACCESS:     562282 HIT:     367426 MISS:     194856
cpu3_L1I LOAD         ACCESS:     562282 HIT:     367426 MISS:     194856
cpu3_L1I RFO          ACCESS:          0 HIT:          0 MISS:          0
cpu3_L1I PREFETCH     ACCESS:          0 HIT:          0 MISS:          0
cpu3_L1I WRITE        ACCESS:          0 HIT:          0 MISS:          0
cpu3_L1I TRANSLATION  ACCESS:          0 HIT:          0 MISS:          0
cpu3_L1I PREFETCH REQUESTED:          0 ISSUED:          0 USEFUL:          0 USELESS:          0
cpu3_L1I AVERAGE MISS LATENCY: 24.63 cycles
cpu3_L2C TOTAL        ACCESS:          0 HIT:          0 MISS:          0
cpu3_L2C LOAD         ACCESS:          0 HIT:          0 MISS:          0
cpu3_L2C RFO          ACCESS:          0 HIT:          0 MISS:          0
cpu3_L2C PREFETCH     ACCESS:          0 HIT:          0 MISS:          0
cpu3_L2C WRITE        ACCESS:          0 HIT:          0 MISS:          0
cpu3_L2C TRANSLATION  ACCESS:          0 HIT:          0 MISS:          0
cpu3_L2C PREFETCH REQUESTED:   23057505 ISSUED:   15313436 USEFUL:     270684 USELESS:      11749
cpu3_L2C AVERAGE MISS LATENCY: 109.7 cycles
cpu3_L2C TOTAL        ACCESS:          0 HIT:          0 MISS:          0
cpu3_L2C LOAD         ACCESS:          0 HIT:          0 MISS:          0
cpu3_L2C RFO          ACCESS:          0 HIT:          0 MISS:          0
cpu3_L2C PREFETCH     ACCESS:          0 HIT:          0 MISS:          0
cpu3_L2C WRITE        ACCESS:          0 HIT:          0 MISS:          0
cpu3_L2C TRANSLATION  ACCESS:          0 HIT:          0 MISS:          0
cpu3_L2C PREFETCH REQUESTED:   23057505 ISSUED:   15313436 USEFUL:     270684 USELESS:      11749
cpu3_L2C AVERAGE MISS LATENCY: 109.7 cycles
cpu3_L2C TOTAL        ACCESS:          0 HIT:          0 MISS:          0
cpu3_L2C LOAD         ACCESS:          0 HIT:          0 MISS:          0
cpu3_L2C RFO          ACCESS:          0 HIT:          0 MISS:          0
cpu3_L2C PREFETCH     ACCESS:          0 HIT:          0 MISS:          0
cpu3_L2C WRITE        ACCESS:          0 HIT:          0 MISS:          0
cpu3_L2C TRANSLATION  ACCESS:          0 HIT:          0 MISS:          0
cpu3_L2C PREFETCH REQUESTED:   23057505 ISSUED:   15313436 USEFUL:     270684 USELESS:      11749
cpu3_L2C AVERAGE MISS LATENCY: 109.7 cycles
cpu3_L2C TOTAL        ACCESS:   20017749 HIT:   11357659 MISS:    8660090
cpu3_L2C LOAD         ACCESS:    2196764 HIT:    1413754 MISS:     783010
cpu3_L2C RFO          ACCESS:    1061739 HIT:     639436 MISS:     422303
cpu3_L2C PREFETCH     ACCESS:   15313438 HIT:    7865705 MISS:    7447733
cpu3_L2C WRITE        ACCESS:    1436118 HIT:    1435520 MISS:        598
cpu3_L2C TRANSLATION  ACCESS:       9690 HIT:       3244 MISS:       6446
cpu3_L2C PREFETCH REQUESTED:   23057505 ISSUED:   15313436 USEFUL:     270684 USELESS:      11749
cpu3_L2C AVERAGE MISS LATENCY: 109.7 cycles
cpu3_STLB TOTAL        ACCESS:          0 HIT:          0 MISS:          0
cpu3_STLB LOAD         ACCESS:          0 HIT:          0 MISS:          0
cpu3_STLB RFO          ACCESS:          0 HIT:          0 MISS:          0
cpu3_STLB PREFETCH     ACCESS:          0 HIT:          0 MISS:          0
cpu3_STLB WRITE        ACCESS:          0 HIT:          0 MISS:          0
[...]
cpu2_L1I WRITE        ACCESS:          0 HIT:          0 MISS:          0
cpu2_L1I TRANSLATION  ACCESS:          0 HIT:          0 MISS:          0
cpu2_L1I PREFETCH REQUESTED:          0 ISSUED:          0 USEFUL:          0 USELESS:          0
cpu2_L1I AVERAGE MISS LATENCY: -nan cycles
cpu2_L1I TOTAL        ACCESS:          0 HIT:          0 MISS:          0
cpu2_L1I LOAD         ACCESS:          0 HIT:          0 MISS:          0
cpu2_L1I RFO          ACCESS:          0 HIT:          0 MISS:          0
cpu2_L1I PREFETCH     ACCESS:          0 HIT:          0 MISS:          0
cpu2_L1I WRITE        ACCESS:          0 HIT:          0 MISS:          0
cpu2_L1I TRANSLATION  ACCESS:          0 HIT:          0 MISS:          0
cpu2_L1I PREFETCH REQUESTED:          0 ISSUED:          0 USEFUL:          0 USELESS:          0
cpu2_L1I AVERAGE MISS LATENCY: -nan cycles
cpu2_L2C TOTAL        ACCESS:          0 HIT:          0 MISS:          0
cpu2_L2C LOAD         ACCESS:          0 HIT:          0 MISS:          0
cpu2_L2C RFO          ACCESS:          0 HIT:          0 MISS:          0
cpu2_L2C PREFETCH     ACCESS:          0 HIT:          0 MISS:          0
cpu2_L2C WRITE        ACCESS:          0 HIT:          0 MISS:          0
cpu2_L2C TRANSLATION  ACCESS:          0 HIT:          0 MISS:          0
cpu2_L2C PREFETCH REQUESTED:   28786130 ISSUED:   24329619 USEFUL:     541912 USELESS:        131
cpu2_L2C AVERAGE MISS LATENCY: 21.81 cycles
cpu2_L2C TOTAL        ACCESS:          0 HIT:          0 MISS:          0
cpu2_L2C LOAD         ACCESS:          0 HIT:          0 MISS:          0
cpu2_L2C RFO          ACCESS:          0 HIT:          0 MISS:          0
cpu2_L2C PREFETCH     ACCESS:          0 HIT:          0 MISS:          0
cpu2_L2C WRITE        ACCESS:          0 HIT:          0 MISS:          0
cpu2_L2C TRANSLATION  ACCESS:          0 HIT:          0 MISS:          0
cpu2_L2C PREFETCH REQUESTED:   28786130 ISSUED:   24329619 USEFUL:     541912 USELESS:        131
cpu2_L2C AVERAGE MISS LATENCY: 21.81 cycles
cpu2_L2C TOTAL        ACCESS:   27633260 HIT:    8339762 MISS:   19293498
cpu2_L2C LOAD         ACCESS:    1982771 HIT:     681711 MISS:    1301060
cpu2_L2C RFO          ACCESS:       2303 HIT:       1922 MISS:        381
cpu2_L2C PREFETCH     ACCESS:   24329622 HIT:    6337834 MISS:   17991788
cpu2_L2C WRITE        ACCESS:    1317753 HIT:    1317753 MISS:          0
cpu2_L2C TRANSLATION  ACCESS:        811 HIT:        542 MISS:        269
cpu2_L2C PREFETCH REQUESTED:   28786130 ISSUED:   24329619 USEFUL:     541912 USELESS:        131
cpu2_L2C AVERAGE MISS LATENCY: 21.81 cycles
cpu2_L2C TOTAL        ACCESS:          0 HIT:          0 MISS:          0
cpu2_L2C LOAD         ACCESS:          0 HIT:          0 MISS:          0
cpu2_L2C RFO          ACCESS:          0 HIT:          0 MISS:          0
cpu2_L2C PREFETCH     ACCESS:          0 HIT:          0 MISS:          0
cpu2_L2C WRITE        ACCESS:          0 HIT:          0 MISS:          0
cpu2_L2C TRANSLATION  ACCESS:          0 HIT:          0 MISS:          0
cpu2_L2C PREFETCH REQUESTED:   28786130 ISSUED:   24329619 USEFUL:     541912 USELESS:        131
cpu2_L2C AVERAGE MISS LATENCY: 21.81 cycles
cpu2_STLB TOTAL        ACCESS:          0 HIT:          0 MISS:          0
cpu2_STLB LOAD         ACCESS:          0 HIT:          0 MISS:          0
cpu2_STLB RFO          ACCESS:          0 HIT:          0 MISS:          0
cpu2_STLB PREFETCH     ACCESS:          0 HIT:          0 MISS:          0
cpu2_STLB WRITE        ACCESS:          0 HIT:          0 MISS:          0
cpu2_STLB TRANSLATION  ACCESS:          0 HIT:          0 MISS:          0
cpu2_STLB PREFETCH REQUESTED:          0 ISSUED:          0 USEFUL:          0 USELESS:          0
cpu2_STLB AVERAGE MISS LATENCY: 213.2 cycles
cpu2_STLB TOTAL        ACCESS:          0 HIT:          0 MISS:          0
cpu2_STLB LOAD         ACCESS:          0 HIT:          0 MISS:          0
cpu2_STLB RFO          ACCESS:          0 HIT:          0 MISS:          0
cpu2_STLB PREFETCH     ACCESS:          0 HIT:          0 MISS:          0
cpu2_STLB WRITE        ACCESS:          0 HIT:          0 MISS:          0
cpu2_STLB TRANSLATION  ACCESS:          0 HIT:          0 MISS:          0
cpu2_STLB PREFETCH REQUESTED:          0 ISSUED:          0 USEFUL:          0 USELESS:          0
cpu2_STLB AVERAGE MISS LATENCY: 213.2 cycles
cpu2_STLB TOTAL        ACCESS:      35122 HIT:      14538 MISS:      20584
cpu2_STLB LOAD         ACCESS:      35122 HIT:      14538 MISS:      20584
cpu2_STLB RFO          ACCESS:          0 HIT:          0 MISS:          0
cpu2_STLB PREFETCH     ACCESS:          0 HIT:          0 MISS:          0
cpu2_STLB WRITE        ACCESS:          0 HIT:          0 MISS:          0
cpu2_STLB TRANSLATION  ACCESS:          0 HIT:          0 MISS:          0
cpu2_STLB PREFETCH REQUESTED:          0 ISSUED:          0 USEFUL:          0 USELESS:          0
cpu2_STLB AVERAGE MISS LATENCY: 213.2 cycles
cpu2_STLB TOTAL        ACCESS:          0 HIT:          0 MISS:          0
cpu2_STLB LOAD         ACCESS:          0 HIT:          0 MISS:          0
cpu2_STLB RFO          ACCESS:          0 HIT:          0 MISS:          0
cpu2_STLB PREFETCH     ACCESS:          0 HIT:          0 MISS:          0
cpu2_STLB WRITE        ACCESS:          0 HIT:          0 MISS:          0
cpu2_STLB TRANSLATION  ACCESS:          0 HIT:          0 MISS:          0
cpu2_STLB PREFETCH REQUESTED:          0 ISSUED:          0 USEFUL:          0 USELESS:          0
cpu2_STLB AVERAGE MISS LATENCY: 213.2 cycles
cpu3_DTLB TOTAL        ACCESS:          0 HIT:          0 MISS:          0
cpu3_DTLB LOAD         ACCESS:          0 HIT:          0 MISS:          0
cpu3_DTLB RFO          ACCESS:          0 HIT:          0 MISS:          0
cpu3_DTLB PREFETCH     ACCESS:          0 HIT:          0 MISS:          0
cpu3_DTLB WRITE        ACCESS:          0 HIT:          0 MISS:          0
cpu3_DTLB TRANSLATION  ACCESS:          0 HIT:          0 MISS:          0
cpu3_DTLB PREFETCH REQUESTED:          0 ISSUED:          0 USEFUL:          0 USELESS:          0
cpu3_DTLB AVERAGE MISS LATENCY: 26 cycles
cpu3_DTLB TOTAL        ACCESS:          0 HIT:          0 MISS:          0
cpu3_DTLB LOAD         ACCESS:          0 HIT:          0 MISS:          0
cpu3_DTLB RFO          ACCESS:          0 HIT:          0 MISS:          0
cpu3_DTLB PREFETCH     ACCESS:          0 HIT:          0 MISS:          0
cpu3_DTLB WRITE        ACCESS:          0 HIT:          0 MISS:          0
cpu3_DTLB TRANSLATION  ACCESS:          0 HIT:          0 MISS:          0
cpu3_DTLB PREFETCH REQUESTED:          0 ISSUED:          0 USEFUL:          0 USELESS:          0
cpu3_DTLB AVERAGE MISS LATENCY: 26 cycles
cpu3_DTLB TOTAL        ACCESS:          0 HIT:          0 MISS:          0
cpu3_DTLB LOAD         ACCESS:          0 HIT:          0 MISS:          0
cpu3_DTLB RFO          ACCESS:          0 HIT:          0 MISS:          0
cpu3_DTLB PREFETCH     ACCESS:          0 HIT:          0 MISS:          0
cpu3_DTLB WRITE        ACCESS:          0 HIT:          0 MISS:          0
cpu3_DTLB TRANSLATION  ACCESS:          0 HIT:          0 MISS:          0
cpu3_DTLB PREFETCH REQUESTED:          0 ISSUED:          0 USEFUL:          0 USELESS:          0
cpu3_DTLB AVERAGE MISS LATENCY: 26 cycles
cpu3_DTLB TOTAL        ACCESS:   20194298 HIT:   20020061 MISS:     174237
cpu3_DTLB LOAD         ACCESS:   20194298 HIT:   20020061 MISS:     174237
cpu3_DTLB RFO          ACCESS:          0 HIT:          0 MISS:          0
cpu3_DTLB PREFETCH     ACCESS:          0 HIT:          0 MISS:          0
cpu3_DTLB WRITE        ACCESS:          0 HIT:          0 MISS:          0
cpu3_DTLB TRANSLATION  ACCESS:          0 HIT:          0 MISS:          0
cpu3_DTLB PREFETCH REQUESTED:          0 ISSUED:          0 USEFUL:          0 USELESS:          0
cpu3_DTLB AVERAGE MISS LATENCY: 26 cycles
cpu3_ITLB TOTAL        ACCESS:          0 HIT:          0 MISS:          0
cpu3_ITLB LOAD         ACCESS:          0 HIT:          0 MISS:          0
cpu3_ITLB RFO          ACCESS:          0 HIT:          0 MISS:          0
cpu3_ITLB PREFETCH     ACCESS:          0 HIT:          0 MISS:          0
cpu3_ITLB WRITE        ACCESS:          0 HIT:          0 MISS:          0
cpu3_ITLB TRANSLATION  ACCESS:          0 HIT:          0 MISS:          0
cpu3_ITLB PREFETCH REQUESTED:          0 ISSUED:          0 USEFUL:          0 USELESS:          0
cpu3_ITLB AVERAGE MISS LATENCY: 16.69 cycles
cpu3_ITLB TOTAL        ACCESS:          0 HIT:          0 MISS:          0
cpu3_ITLB LOAD         ACCESS:          0 HIT:          0 MISS:          0
cpu3_ITLB RFO          ACCESS:          0 HIT:          0 MISS:          0
cpu3_ITLB PREFETCH     ACCESS:          0 HIT:          0 MISS:          0
cpu3_ITLB WRITE        ACCESS:          0 HIT:          0 MISS:          0
cpu3_ITLB TRANSLATION  ACCESS:          0 HIT:          0 MISS:          0
cpu3_ITLB PREFETCH REQUESTED:          0 ISSUED:          0 USEFUL:          0 USELESS:          0
cpu3_ITLB AVERAGE MISS LATENCY: 16.69 cycles
cpu3_ITLB TOTAL        ACCESS:          0 HIT:          0 MISS:          0
cpu3_ITLB LOAD         ACCESS:          0 HIT:          0 MISS:          0
cpu3_ITLB RFO          ACCESS:          0 HIT:          0 MISS:          0
cpu3_ITLB PREFETCH     ACCESS:          0 HIT:          0 MISS:          0
cpu3_ITLB WRITE        ACCESS:          0 HIT:          0 MISS:          0
cpu3_ITLB TRANSLATION  ACCESS:          0 HIT:          0 MISS:          0
cpu3_ITLB PREFETCH REQUESTED:          0 ISSUED:          0 USEFUL:          0 USELESS:          0
cpu3_ITLB AVERAGE MISS LATENCY: 16.69 cycles
cpu3_ITLB TOTAL        ACCESS:     270752 HIT:     265087 MISS:       5665
cpu3_ITLB LOAD         ACCESS:     270752 HIT:     265087 MISS:       5665
cpu3_ITLB RFO          ACCESS:          0 HIT:          0 MISS:          0
cpu3_ITLB PREFETCH     ACCESS:          0 HIT:          0 MISS:          0
cpu3_ITLB WRITE        ACCESS:          0 HIT:          0 MISS:          0
cpu3_ITLB TRANSLATION  ACCESS:          0 HIT:          0 MISS:          0
cpu3_ITLB PREFETCH REQUESTED:          0 ISSUED:          0 USEFUL:          0 USELESS:          0
cpu3_ITLB AVERAGE MISS LATENCY: 16.69 cycles
cpu3_L1D TOTAL        ACCESS:          0 HIT:          0 MISS:          0
cpu3_L1D LOAD         ACCESS:          0 HIT:          0 MISS:          0
cpu3_L1D RFO          ACCESS:          0 HIT:          0 MISS:          0
cpu3_L1D PREFETCH     ACCESS:          0 HIT:          0 MISS:          0
cpu3_L1D WRITE        ACCESS:          0 HIT:          0 MISS:          0
cpu3_L1D TRANSLATION  ACCESS:          0 HIT:          0 MISS:          0
cpu3_L1D PREFETCH REQUESTED:          0 ISSUED:          0 USEFUL:          0 USELESS:          0
cpu3_L1D AVERAGE MISS LATENCY: 118.1 cycles
cpu3_L1D TOTAL        ACCESS:          0 HIT:          0 MISS:          0
cpu3_L1D LOAD         ACCESS:          0 HIT:          0 MISS:          0
cpu3_L1D RFO          ACCESS:          0 HIT:          0 MISS:          0
cpu3_L1D PREFETCH     ACCESS:          0 HIT:          0 MISS:          0
cpu3_L1D WRITE        ACCESS:          0 HIT:          0 MISS:          0
cpu3_L1D TRANSLATION  ACCESS:          0 HIT:          0 MISS:          0
cpu3_L1D PREFETCH REQUESTED:          0 ISSUED:          0 USEFUL:          0 USELESS:          0
cpu3_L1D AVERAGE MISS LATENCY: 118.1 cycles
cpu3_L1D TOTAL        ACCESS:          0 HIT:          0 MISS:          0
cpu3_L1D LOAD         ACCESS:          0 HIT:          0 MISS:          0
cpu3_L1D RFO          ACCESS:          0 HIT:          0 MISS:          0
cpu3_L1D PREFETCH     ACCESS:          0 HIT:          0 MISS:          0
cpu3_L1D WRITE        ACCESS:          0 HIT:          0 MISS:          0
cpu3_L1D TRANSLATION  ACCESS:          0 HIT:          0 MISS:          0
cpu3_L1D PREFETCH REQUESTED:          0 ISSUED:          0 USEFUL:          0 USELESS:          0
cpu3_L1D AVERAGE MISS LATENCY: 118.1 cycles
cpu3_L1D TOTAL        ACCESS:   24569185 HIT:   19645772 MISS:    4923413
cpu3_L1D LOAD         ACCESS:   14906306 HIT:   12919092 MISS:    1987214
cpu3_L1D RFO          ACCESS:          0 HIT:          0 MISS:          0
cpu3_L1D PREFETCH     ACCESS:          0 HIT:          0 MISS:          0
cpu3_L1D WRITE        ACCESS:    9654673 HIT:    6724436 MISS:    2930237
cpu3_L1D TRANSLATION  ACCESS:       8206 HIT:       2244 MISS:       5962
cpu3_L1D PREFETCH REQUESTED:          0 ISSUED:          0 USEFUL:          0 USELESS:          0
cpu3_L1D AVERAGE MISS LATENCY: 118.1 cycles
cpu3_L1I TOTAL        ACCESS:          0 HIT:          0 MISS:          0
cpu3_L1I LOAD         ACCESS:          0 HIT:          0 MISS:          0
cpu3_L1I RFO          ACCESS:          0 HIT:          0 MISS:          0
cpu3_L1I PREFETCH     ACCESS:          0 HIT:          0 MISS:          0
cpu3_L1I WRITE        ACCESS:          0 HIT:          0 MISS:          0
cpu3_L1I TRANSLATION  ACCESS:          0 HIT:          0 MISS:          0
cpu3_L1I PREFETCH REQUESTED:          0 ISSUED:          0 USEFUL:          0 USELESS:          0
cpu3_L1I AVERAGE MISS LATENCY: 24.63 cycles
cpu3_L1I TOTAL        ACCESS:          0 HIT:          0 MISS:          0
cpu3_L1I LOAD         ACCESS:          0 HIT:          0 MISS:          0
cpu3_L1I RFO          ACCESS:          0 HIT:          0 MISS:          0
cpu3_L1I PREFETCH     ACCESS:          0 HIT:          0 MISS:          0
cpu3_L1I WRITE        ACCESS:          0 HIT:          0 MISS:          0
cpu3_L1I TRANSLATION  ACCESS:          0 HIT:          0 MISS:          0
cpu3_L1I PREFETCH REQUESTED:          0 ISSUED:          0 USEFUL:          0 USELESS:          0
cpu3_L1I AVERAGE MISS LATENCY: 24.63 cycles
cpu3_L1I TOTAL        ACCESS:          0 HIT:          0 MISS:          0
cpu3_L1I LOAD         ACCESS:          0 HIT:          0 MISS:          0
cpu3_L1I RFO          ACCESS:          0 HIT:          0 MISS:          0
cpu3_L1I PREFETCH     ACCESS:          0 HIT:          0 MISS:          0
cpu3_L1I WRITE        ACCESS:          0 HIT:          0 MISS:          0
cpu3_L1I TRANSLATION  ACCESS:          0 HIT:          0 MISS:          0
cpu3_L1I PREFETCH REQUESTED:          0 ISSUED:          0 USEFUL:          0 USELESS:          0
cpu3_L1I AVERAGE MISS LATENCY: 24.63 cycles
cpu3_L1I TOTAL        ACCESS:     338228 HIT:     243286 MISS:      94942
cpu3_L1I LOAD         ACCESS:     338228 HIT:     243286 MISS:      94942
cpu3_L1I RFO          ACCESS:          0 HIT:          0 MISS:          0
cpu3_L1I PREFETCH     ACCESS:          0 HIT:          0 MISS:          0
cpu3_L1I WRITE        ACCESS:          0 HIT:          0 MISS:          0
cpu3_L1I TRANSLATION  ACCESS:          0 HIT:          0 MISS:          0
cpu3_L1I PREFETCH REQUESTED:          0 ISSUED:          0 USEFUL:          0 USELESS:          0
cpu3_L1I AVERAGE MISS LATENCY: 24.63 cycles
cpu3_L2C TOTAL        ACCESS:          0 HIT:          0 MISS:          0
cpu3_L2C LOAD         ACCESS:          0 HIT:          0 MISS:          0
cpu3_L2C RFO          ACCESS:          0 HIT:          0 MISS:          0
cpu3_L2C PREFETCH     ACCESS:          0 HIT:          0 MISS:          0
cpu3_L2C WRITE        ACCESS:          0 HIT:          0 MISS:          0
cpu3_L2C TRANSLATION  ACCESS:          0 HIT:          0 MISS:          0
cpu3_L2C PREFETCH REQUESTED:   23057505 ISSUED:   15313436 USEFUL:     270684 USELESS:      11749
cpu3_L2C AVERAGE MISS LATENCY: 109.7 cycles
cpu3_L2C TOTAL        ACCESS:          0 HIT:          0 MISS:          0
cpu3_L2C LOAD         ACCESS:          0 HIT:          0 MISS:          0
cpu3_L2C RFO          ACCESS:          0 HIT:          0 MISS:          0
cpu3_L2C PREFETCH     ACCESS:          0 HIT:          0 MISS:          0
cpu3_L2C WRITE        ACCESS:          0 HIT:          0 MISS:          0
cpu3_L2C TRANSLATION  ACCESS:          0 HIT:          0 MISS:          0
cpu3_L2C PREFETCH REQUESTED:   23057505 ISSUED:   15313436 USEFUL:     270684 USELESS:      11749
cpu3_L2C AVERAGE MISS LATENCY: 109.7 cycles
cpu3_L2C TOTAL        ACCESS:          0 HIT:          0 MISS:          0
cpu3_L2C LOAD         ACCESS:          0 HIT:          0 MISS:          0
cpu3_L2C RFO          ACCESS:          0 HIT:          0 MISS:          0
cpu3_L2C PREFETCH     ACCESS:          0 HIT:          0 MISS:          0
cpu3_L2C WRITE        ACCESS:          0 HIT:          0 MISS:          0
cpu3_L2C TRANSLATION  ACCESS:          0 HIT:          0 MISS:          0
cpu3_L2C PREFETCH REQUESTED:   23057505 ISSUED:   15313436 USEFUL:     270684 USELESS:      11749
cpu3_L2C AVERAGE MISS LATENCY: 109.7 cycles
cpu3_L2C TOTAL        ACCESS:   11981248 HIT:    6730792 MISS:    5250456
cpu3_L2C LOAD         ACCESS:    1287244 HIT:     824732 MISS:     462512
cpu3_L2C RFO          ACCESS:     719228 HIT:     410674 MISS:     308554
cpu3_L2C PREFETCH     ACCESS:    9032987 HIT:    4557704 MISS:    4475283
cpu3_L2C WRITE        ACCESS:     935908 HIT:     935439 MISS:        469
cpu3_L2C TRANSLATION  ACCESS:       5881 HIT:       2243 MISS:       3638
cpu3_L2C PREFETCH REQUESTED:   23057505 ISSUED:   15313436 USEFUL:     270684 USELESS:      11749
cpu3_L2C AVERAGE MISS LATENCY: 109.7 cycles
cpu3_STLB TOTAL        ACCESS:          0 HIT:          0 MISS:          0
cpu3_STLB LOAD         ACCESS:          0 HIT:          0 MISS:          0
cpu3_STLB RFO          ACCESS:          0 HIT:          0 MISS:          0
cpu3_STLB PREFETCH     ACCESS:          0 HIT:          0 MISS:          0
cpu3_STLB WRITE        ACCESS:          0 HIT:          0 MISS:          0
cpu3_STLB TRANSLATION  ACCESS:          0 HIT:          0 MISS:          0
cpu3_STLB PREFETCH REQUESTED:          0 ISSUED:          0 USEFUL:          0 USELESS:          0
cpu3_STLB AVERAGE MISS LATENCY: 752.9 cycles
cpu3_STLB TOTAL        ACCESS:          0 HIT:          0 MISS:          0
cpu3_STLB LOAD         ACCESS:          0 HIT:          0 MISS:          0
cpu3_STLB RFO          ACCESS:          0 HIT:          0 MISS:          0
cpu3_STLB PREFETCH     ACCESS:          0 HIT:          0 MISS:          0
cpu3_STLB WRITE        ACCESS:          0 HIT:          0 MISS:          0
cpu3_STLB TRANSLATION  ACCESS:          0 HIT:          0 MISS:          0
cpu3_STLB PREFETCH REQUESTED:          0 ISSUED:          0 USEFUL:          0 USELESS:          0
cpu3_STLB AVERAGE MISS LATENCY: 752.9 cycles
cpu3_STLB TOTAL        ACCESS:          0 HIT:          0 MISS:          0
cpu3_STLB LOAD         ACCESS:          0 HIT:          0 MISS:          0
cpu3_STLB RFO          ACCESS:          0 HIT:          0 MISS:          0
cpu3_STLB PREFETCH     ACCESS:          0 HIT:          0 MISS:          0
cpu3_STLB WRITE        ACCESS:          0 HIT:          0 MISS:          0
cpu3_STLB TRANSLATION  ACCESS:          0 HIT:          0 MISS:          0
cpu3_STLB PREFETCH REQUESTED:          0 ISSUED:          0 USEFUL:          0 USELESS:          0
cpu3_STLB AVERAGE MISS LATENCY: 752.9 cycles
cpu3_STLB TOTAL        ACCESS:      62834 HIT:      55625 MISS:       7209
cpu3_STLB LOAD         ACCESS:      62834 HIT:      55625 MISS:       7209
cpu3_STLB RFO          ACCESS:          0 HIT:          0 MISS:          0
cpu3_STLB PREFETCH     ACCESS:          0 HIT:          0 MISS:          0
cpu3_STLB WRITE        ACCESS:          0 HIT:          0 MISS:          0
cpu3_STLB TRANSLATION  ACCESS:          0 HIT:          0 MISS:          0
cpu3_STLB PREFETCH REQUESTED:          0 ISSUED:          0 USEFUL:          0 USELESS:          0
cpu3_STLB AVERAGE MISS LATENCY: 752.9 cycles

DRAM Statistics

Channel 0 RQ ROW_BUFFER_HIT:     640820
  ROW_BUFFER_MISS:    1501320
 AVG DBUS CONGESTED CYCLE: 3.989
WQ ROW_BUFFER_HIT: Channel 0 
  ROW_BUFFER_MISS:     153664
  FULL:    1561103
