WARNING: physical memory size is smaller than virtual memory size.
WARNING: option --warmup_instructions is deprecated. Use --warmup-instructions instead.
WARNING: option --simulation_instructions is deprecated. Use --simulation-instructions instead.

*** ChampSim Multicore Out-of-Order Simulator ***
Warmup Instructions: 50000000
Simulation Instructions: 150000000
Number of CPUs: 4
Page size: 4096

Initialize SIGNATURE TABLE
ST_SET: 1
ST_WAY: 256
ST_TAG_BIT: 16
ST_TAG_MASK: ffff

Initialize PATTERN TABLE
PT_SET: 512
PT_WAY: 4
SIG_DELTA_BIT: 7
C_SIG_BIT: 4
C_DELTA_BIT: 4

Initialize PREFETCH FILTER
FILTER_SET: 1024
Initialize SIGNATURE TABLE
ST_SET: 1
ST_WAY: 256
ST_TAG_BIT: 16
ST_TAG_MASK: ffff

Initialize PATTERN TABLE
PT_SET: 512
PT_WAY: 4
SIG_DELTA_BIT: 7
C_SIG_BIT: 4
C_DELTA_BIT: 4

Initialize PREFETCH FILTER
FILTER_SET: 1024
Initialize SIGNATURE TABLE
ST_SET: 1
ST_WAY: 256
ST_TAG_BIT: 16
ST_TAG_MASK: ffff

Initialize PATTERN TABLE
PT_SET: 512
PT_WAY: 4
SIG_DELTA_BIT: 7
C_SIG_BIT: 4
C_DELTA_BIT: 4

Initialize PREFETCH FILTER
FILTER_SET: 1024
Initialize SIGNATURE TABLE
ST_SET: 1
ST_WAY: 256
ST_TAG_BIT: 16
ST_TAG_MASK: ffff

Initialize PATTERN TABLE
PT_SET: 512
PT_WAY: 4
SIG_DELTA_BIT: 7
C_SIG_BIT: 4
C_DELTA_BIT: 4

Initialize PREFETCH FILTER
FILTER_SET: 1024
Off-chip DRAM Size: 4 GiB Channels: 1 Width: 64-bit Data Race: 3200 MT/s
Heartbeat CPU 2 instructions: 10000001 cycles: 2521924 heartbeat IPC: 3.965 cumulative IPC: 3.965 (Simulation time: 00 hr 02 min 03 sec)
Heartbeat CPU 3 instructions: 10000003 cycles: 2711723 heartbeat IPC: 3.688 cumulative IPC: 3.688 (Simulation time: 00 hr 02 min 13 sec)
Heartbeat CPU 1 instructions: 10000001 cycles: 3049980 heartbeat IPC: 3.279 cumulative IPC: 3.279 (Simulation time: 00 hr 02 min 29 sec)
Heartbeat CPU 0 instructions: 10000001 cycles: 3454916 heartbeat IPC: 2.894 cumulative IPC: 2.894 (Simulation time: 00 hr 02 min 49 sec)
Heartbeat CPU 2 instructions: 20000000 cycles: 5038320 heartbeat IPC: 3.974 cumulative IPC: 3.97 (Simulation time: 00 hr 04 min 09 sec)
Heartbeat CPU 3 instructions: 20000002 cycles: 5231357 heartbeat IPC: 3.969 cumulative IPC: 3.823 (Simulation time: 00 hr 04 min 19 sec)
Heartbeat CPU 1 instructions: 20000001 cycles: 6093145 heartbeat IPC: 3.286 cumulative IPC: 3.282 (Simulation time: 00 hr 05 min 04 sec)
Heartbeat CPU 0 instructions: 20000001 cycles: 6911329 heartbeat IPC: 2.893 cumulative IPC: 2.894 (Simulation time: 00 hr 05 min 45 sec)
Heartbeat CPU 2 instructions: 30000003 cycles: 7553376 heartbeat IPC: 3.976 cumulative IPC: 3.972 (Simulation time: 00 hr 06 min 18 sec)
Heartbeat CPU 3 instructions: 30000000 cycles: 7750704 heartbeat IPC: 3.969 cumulative IPC: 3.871 (Simulation time: 00 hr 06 min 28 sec)
Heartbeat CPU 1 instructions: 30000000 cycles: 9126111 heartbeat IPC: 3.297 cumulative IPC: 3.287 (Simulation time: 00 hr 07 min 34 sec)
Heartbeat CPU 2 instructions: 40000003 cycles: 10077430 heartbeat IPC: 3.962 cumulative IPC: 3.969 (Simulation time: 00 hr 08 min 23 sec)
Heartbeat CPU 3 instructions: 40000000 cycles: 10280889 heartbeat IPC: 3.952 cumulative IPC: 3.891 (Simulation time: 00 hr 08 min 32 sec)
Heartbeat CPU 0 instructions: 30000001 cycles: 10370609 heartbeat IPC: 2.891 cumulative IPC: 2.893 (Simulation time: 00 hr 08 min 37 sec)
Heartbeat CPU 1 instructions: 40000004 cycles: 12183868 heartbeat IPC: 3.27 cumulative IPC: 3.283 (Simulation time: 00 hr 10 min 15 sec)
Heartbeat CPU 2 instructions: 50000001 cycles: 12599284 heartbeat IPC: 3.965 cumulative IPC: 3.968 (Simulation time: 00 hr 10 min 35 sec)
Warmup finished CPU 2 instructions: 50000001 cycles: 12599285 cumulative IPC: 3.968 (Simulation time: 00 hr 10 min 35 sec)
Heartbeat CPU 3 instructions: 50000003 cycles: 12883612 heartbeat IPC: 3.842 cumulative IPC: 3.881 (Simulation time: 00 hr 10 min 50 sec)
Warmup finished CPU 3 instructions: 50000003 cycles: 12883613 cumulative IPC: 3.881 (Simulation time: 00 hr 10 min 50 sec)
Heartbeat CPU 0 instructions: 40000004 cycles: 13799806 heartbeat IPC: 2.916 cumulative IPC: 2.899 (Simulation time: 00 hr 11 min 36 sec)
Heartbeat CPU 2 instructions: 60000002 cycles: 15124319 heartbeat IPC: 3.96 cumulative IPC: 3.967 (Simulation time: 00 hr 12 min 42 sec)
Heartbeat CPU 1 instructions: 50000000 cycles: 15246166 heartbeat IPC: 3.266 cumulative IPC: 3.28 (Simulation time: 00 hr 12 min 48 sec)
Warmup finished CPU 1 instructions: 50000000 cycles: 15246167 cumulative IPC: 3.28 (Simulation time: 00 hr 12 min 48 sec)
Heartbeat CPU 3 instructions: 60000002 cycles: 15502091 heartbeat IPC: 3.819 cumulative IPC: 3.87 (Simulation time: 00 hr 13 min 00 sec)
Heartbeat CPU 0 instructions: 50000001 cycles: 17227486 heartbeat IPC: 2.917 cumulative IPC: 2.902 (Simulation time: 00 hr 14 min 28 sec)
Warmup finished CPU 0 instructions: 50000001 cycles: 17227487 cumulative IPC: 2.902 (Simulation time: 00 hr 14 min 28 sec)
Warmup complete CPU 0 instructions: 50000001 cycles: 17227487 cumulative IPC: 2.902 (Simulation time: 00 hr 14 min 28 sec)
Warmup complete CPU 1 instructions: 56415786 cycles: 17227487 cumulative IPC: 3.275 (Simulation time: 00 hr 14 min 28 sec)
Warmup complete CPU 2 instructions: 68330812 cycles: 17227487 cumulative IPC: 3.966 (Simulation time: 00 hr 14 min 28 sec)
Warmup complete CPU 3 instructions: 66619778 cycles: 17227487 cumulative IPC: 3.867 (Simulation time: 00 hr 14 min 28 sec)
Heartbeat CPU 2 instructions: 70000004 cycles: 17945177 heartbeat IPC: 3.545 cumulative IPC: 2.326 (Simulation time: 00 hr 14 min 52 sec)
Heartbeat CPU 3 instructions: 70000000 cycles: 18852677 heartbeat IPC: 2.985 cumulative IPC: 2.08 (Simulation time: 00 hr 15 min 25 sec)
Heartbeat CPU 0 instructions: 60000001 cycles: 21863108 heartbeat IPC: 2.157 cumulative IPC: 2.157 (Simulation time: 00 hr 17 min 07 sec)
Heartbeat CPU 2 instructions: 80000000 cycles: 22240536 heartbeat IPC: 2.328 cumulative IPC: 2.328 (Simulation time: 00 hr 17 min 20 sec)
Heartbeat CPU 0 instructions: 70000000 cycles: 25929064 heartbeat IPC: 2.459 cumulative IPC: 2.298 (Simulation time: 00 hr 19 min 26 sec)
Heartbeat CPU 3 instructions: 80000003 cycles: 26486471 heartbeat IPC: 1.31 cumulative IPC: 1.445 (Simulation time: 00 hr 19 min 45 sec)
Heartbeat CPU 2 instructions: 90000001 cycles: 26650721 heartbeat IPC: 2.267 cumulative IPC: 2.3 (Simulation time: 00 hr 19 min 52 sec)
Heartbeat CPU 0 instructions: 80000003 cycles: 30883474 heartbeat IPC: 2.018 cumulative IPC: 2.197 (Simulation time: 00 hr 22 min 15 sec)
Heartbeat CPU 2 instructions: 100000000 cycles: 31022193 heartbeat IPC: 2.288 cumulative IPC: 2.296 (Simulation time: 00 hr 22 min 19 sec)
Heartbeat CPU 3 instructions: 90000003 cycles: 31172593 heartbeat IPC: 2.134 cumulative IPC: 1.677 (Simulation time: 00 hr 22 min 25 sec)
Heartbeat CPU 2 instructions: 110000001 cycles: 35635802 heartbeat IPC: 2.168 cumulative IPC: 2.264 (Simulation time: 00 hr 24 min 42 sec)
Heartbeat CPU 0 instructions: 90000002 cycles: 36323311 heartbeat IPC: 1.838 cumulative IPC: 2.095 (Simulation time: 00 hr 25 min 01 sec)
Heartbeat CPU 1 instructions: 60000004 cycles: 37002321 heartbeat IPC: 0.4596 cumulative IPC: 0.1813 (Simulation time: 00 hr 25 min 23 sec)
Heartbeat CPU 2 instructions: 120000001 cycles: 39980086 heartbeat IPC: 2.302 cumulative IPC: 2.271 (Simulation time: 00 hr 26 min 50 sec)
Heartbeat CPU 0 instructions: 100000000 cycles: 41981356 heartbeat IPC: 1.767 cumulative IPC: 2.02 (Simulation time: 00 hr 27 min 44 sec)
Heartbeat CPU 2 instructions: 130000000 cycles: 44570055 heartbeat IPC: 2.179 cumulative IPC: 2.255 (Simulation time: 00 hr 29 min 02 sec)
Heartbeat CPU 0 instructions: 110000000 cycles: 47725170 heartbeat IPC: 1.741 cumulative IPC: 1.967 (Simulation time: 00 hr 30 min 41 sec)
Heartbeat CPU 2 instructions: 140000000 cycles: 49163429 heartbeat IPC: 2.177 cumulative IPC: 2.244 (Simulation time: 00 hr 31 min 27 sec)
Heartbeat CPU 0 instructions: 120000003 cycles: 53204986 heartbeat IPC: 1.825 cumulative IPC: 1.946 (Simulation time: 00 hr 33 min 33 sec)
Heartbeat CPU 2 instructions: 150000002 cycles: 53716678 heartbeat IPC: 2.196 cumulative IPC: 2.238 (Simulation time: 00 hr 33 min 48 sec)
Heartbeat CPU 3 instructions: 100000000 cycles: 55083634 heartbeat IPC: 0.4182 cumulative IPC: 0.8818 (Simulation time: 00 hr 34 min 29 sec)
Heartbeat CPU 2 instructions: 160000001 cycles: 58347585 heartbeat IPC: 2.159 cumulative IPC: 2.229 (Simulation time: 00 hr 36 min 03 sec)
Heartbeat CPU 0 instructions: 130000003 cycles: 58500173 heartbeat IPC: 1.889 cumulative IPC: 1.938 (Simulation time: 00 hr 36 min 07 sec)
Heartbeat CPU 2 instructions: 170000000 cycles: 62960368 heartbeat IPC: 2.168 cumulative IPC: 2.223 (Simulation time: 00 hr 38 min 13 sec)
Heartbeat CPU 0 instructions: 140000000 cycles: 63921823 heartbeat IPC: 1.844 cumulative IPC: 1.927 (Simulation time: 00 hr 38 min 38 sec)
Heartbeat CPU 2 instructions: 180000000 cycles: 67728694 heartbeat IPC: 2.097 cumulative IPC: 2.211 (Simulation time: 00 hr 40 min 33 sec)
Heartbeat CPU 0 instructions: 150000003 cycles: 69487719 heartbeat IPC: 1.797 cumulative IPC: 1.914 (Simulation time: 00 hr 41 min 26 sec)
Heartbeat CPU 2 instructions: 190000000 cycles: 72458620 heartbeat IPC: 2.114 cumulative IPC: 2.203 (Simulation time: 00 hr 42 min 47 sec)
Heartbeat CPU 0 instructions: 160000000 cycles: 75276981 heartbeat IPC: 1.727 cumulative IPC: 1.895 (Simulation time: 00 hr 44 min 10 sec)
Heartbeat CPU 2 instructions: 200000004 cycles: 77057993 heartbeat IPC: 2.174 cumulative IPC: 2.201 (Simulation time: 00 hr 45 min 00 sec)
Heartbeat CPU 0 instructions: 170000003 cycles: 81156591 heartbeat IPC: 1.701 cumulative IPC: 1.877 (Simulation time: 00 hr 47 min 03 sec)
Heartbeat CPU 2 instructions: 210000001 cycles: 81877899 heartbeat IPC: 2.075 cumulative IPC: 2.191 (Simulation time: 00 hr 47 min 23 sec)
Simulation finished CPU 2 instructions: 150000001 cycles: 68962630 cumulative IPC: 2.175 (Simulation time: 00 hr 49 min 23 sec)
Heartbeat CPU 0 instructions: 180000002 cycles: 86822060 heartbeat IPC: 1.765 cumulative IPC: 1.868 (Simulation time: 00 hr 49 min 41 sec)
Heartbeat CPU 2 instructions: 220000002 cycles: 86909992 heartbeat IPC: 1.987 cumulative IPC: 2.177 (Simulation time: 00 hr 49 min 43 sec)
Heartbeat CPU 2 instructions: 230000000 cycles: 91677015 heartbeat IPC: 2.098 cumulative IPC: 2.172 (Simulation time: 00 hr 51 min 52 sec)
Heartbeat CPU 0 instructions: 190000000 cycles: 92532595 heartbeat IPC: 1.751 cumulative IPC: 1.859 (Simulation time: 00 hr 52 min 18 sec)
Heartbeat CPU 2 instructions: 240000001 cycles: 96494155 heartbeat IPC: 2.076 cumulative IPC: 2.166 (Simulation time: 00 hr 54 min 11 sec)
Heartbeat CPU 0 instructions: 200000004 cycles: 98133258 heartbeat IPC: 1.786 cumulative IPC: 1.854 (Simulation time: 00 hr 54 min 57 sec)
Simulation finished CPU 0 instructions: 150000003 cycles: 80905772 cumulative IPC: 1.854 (Simulation time: 00 hr 54 min 57 sec)
Heartbeat CPU 2 instructions: 250000001 cycles: 101254853 heartbeat IPC: 2.101 cumulative IPC: 2.162 (Simulation time: 00 hr 56 min 25 sec)
Heartbeat CPU 0 instructions: 210000003 cycles: 103903889 heartbeat IPC: 1.733 cumulative IPC: 1.846 (Simulation time: 00 hr 57 min 38 sec)
Heartbeat CPU 2 instructions: 260000000 cycles: 105944903 heartbeat IPC: 2.132 cumulative IPC: 2.16 (Simulation time: 00 hr 58 min 40 sec)
Heartbeat CPU 0 instructions: 220000000 cycles: 109722630 heartbeat IPC: 1.719 cumulative IPC: 1.838 (Simulation time: 01 hr 00 min 32 sec)
Heartbeat CPU 2 instructions: 270000003 cycles: 110765062 heartbeat IPC: 2.075 cumulative IPC: 2.156 (Simulation time: 01 hr 01 min 02 sec)
Heartbeat CPU 0 instructions: 230000002 cycles: 115109394 heartbeat IPC: 1.856 cumulative IPC: 1.839 (Simulation time: 01 hr 02 min 59 sec)
Heartbeat CPU 2 instructions: 280000000 cycles: 115478452 heartbeat IPC: 2.122 cumulative IPC: 2.154 (Simulation time: 01 hr 03 min 09 sec)
Heartbeat CPU 2 instructions: 290000001 cycles: 120146021 heartbeat IPC: 2.142 cumulative IPC: 2.154 (Simulation time: 01 hr 05 min 34 sec)
Heartbeat CPU 0 instructions: 240000002 cycles: 120840529 heartbeat IPC: 1.745 cumulative IPC: 1.834 (Simulation time: 01 hr 05 min 56 sec)
Heartbeat CPU 2 instructions: 300000002 cycles: 124857335 heartbeat IPC: 2.123 cumulative IPC: 2.152 (Simulation time: 01 hr 07 min 52 sec)
Heartbeat CPU 1 instructions: 70000000 cycles: 125630739 heartbeat IPC: 0.1128 cumulative IPC: 0.1253 (Simulation time: 01 hr 08 min 14 sec)
Heartbeat CPU 0 instructions: 250000003 cycles: 126122748 heartbeat IPC: 1.893 cumulative IPC: 1.837 (Simulation time: 01 hr 08 min 27 sec)
Heartbeat CPU 3 instructions: 110000001 cycles: 128345333 heartbeat IPC: 0.1365 cumulative IPC: 0.3904 (Simulation time: 01 hr 09 min 41 sec)
Heartbeat CPU 2 instructions: 310000000 cycles: 129455158 heartbeat IPC: 2.175 cumulative IPC: 2.153 (Simulation time: 01 hr 10 min 17 sec)
Heartbeat CPU 0 instructions: 260000003 cycles: 131201092 heartbeat IPC: 1.969 cumulative IPC: 1.843 (Simulation time: 01 hr 11 min 16 sec)
Heartbeat CPU 2 instructions: 320000002 cycles: 134057345 heartbeat IPC: 2.173 cumulative IPC: 2.154 (Simulation time: 01 hr 12 min 53 sec)
Heartbeat CPU 3 instructions: 120000003 cycles: 134117321 heartbeat IPC: 1.733 cumulative IPC: 0.4567 (Simulation time: 01 hr 12 min 56 sec)
Heartbeat CPU 0 instructions: 270000001 cycles: 136413120 heartbeat IPC: 1.919 cumulative IPC: 1.846 (Simulation time: 01 hr 14 min 14 sec)
Heartbeat CPU 3 instructions: 130000001 cycles: 138188379 heartbeat IPC: 2.456 cumulative IPC: 0.524 (Simulation time: 01 hr 15 min 10 sec)
Heartbeat CPU 2 instructions: 330000004 cycles: 138769190 heartbeat IPC: 2.122 cumulative IPC: 2.153 (Simulation time: 01 hr 15 min 30 sec)
Heartbeat CPU 0 instructions: 280000001 cycles: 141663515 heartbeat IPC: 1.905 cumulative IPC: 1.848 (Simulation time: 01 hr 17 min 12 sec)
Heartbeat CPU 3 instructions: 140000000 cycles: 142088571 heartbeat IPC: 2.564 cumulative IPC: 0.5877 (Simulation time: 01 hr 17 min 26 sec)
Heartbeat CPU 2 instructions: 340000001 cycles: 143458829 heartbeat IPC: 2.132 cumulative IPC: 2.152 (Simulation time: 01 hr 18 min 10 sec)
Heartbeat CPU 0 instructions: 290000000 cycles: 146942826 heartbeat IPC: 1.894 cumulative IPC: 1.85 (Simulation time: 01 hr 20 min 07 sec)
Heartbeat CPU 3 instructions: 150000003 cycles: 147831189 heartbeat IPC: 1.741 cumulative IPC: 0.6384 (Simulation time: 01 hr 20 min 38 sec)
Heartbeat CPU 2 instructions: 350000001 cycles: 148157487 heartbeat IPC: 2.128 cumulative IPC: 2.151 (Simulation time: 01 hr 20 min 49 sec)
Heartbeat CPU 0 instructions: 300000004 cycles: 151487870 heartbeat IPC: 2.2 cumulative IPC: 1.862 (Simulation time: 01 hr 22 min 47 sec)
Heartbeat CPU 2 instructions: 360000004 cycles: 152989324 heartbeat IPC: 2.07 cumulative IPC: 2.148 (Simulation time: 01 hr 23 min 39 sec)
Heartbeat CPU 3 instructions: 160000000 cycles: 153909578 heartbeat IPC: 1.645 cumulative IPC: 0.6832 (Simulation time: 01 hr 24 min 13 sec)
Heartbeat CPU 0 instructions: 310000004 cycles: 156305345 heartbeat IPC: 2.076 cumulative IPC: 1.869 (Simulation time: 01 hr 25 min 32 sec)
Heartbeat CPU 2 instructions: 370000000 cycles: 157639678 heartbeat IPC: 2.15 cumulative IPC: 2.148 (Simulation time: 01 hr 26 min 19 sec)
Heartbeat CPU 3 instructions: 170000000 cycles: 160517906 heartbeat IPC: 1.513 cumulative IPC: 0.7215 (Simulation time: 01 hr 27 min 54 sec)
Heartbeat CPU 0 instructions: 320000000 cycles: 162185906 heartbeat IPC: 1.701 cumulative IPC: 1.863 (Simulation time: 01 hr 28 min 53 sec)
Heartbeat CPU 2 instructions: 380000000 cycles: 162208969 heartbeat IPC: 2.189 cumulative IPC: 2.15 (Simulation time: 01 hr 28 min 54 sec)
Heartbeat CPU 2 instructions: 390000000 cycles: 166805460 heartbeat IPC: 2.176 cumulative IPC: 2.151 (Simulation time: 01 hr 31 min 28 sec)
Heartbeat CPU 3 instructions: 180000003 cycles: 167314257 heartbeat IPC: 1.471 cumulative IPC: 0.7554 (Simulation time: 01 hr 31 min 45 sec)
Heartbeat CPU 0 instructions: 330000001 cycles: 169132724 heartbeat IPC: 1.44 cumulative IPC: 1.843 (Simulation time: 01 hr 32 min 44 sec)
Heartbeat CPU 2 instructions: 400000000 cycles: 171439086 heartbeat IPC: 2.158 cumulative IPC: 2.151 (Simulation time: 01 hr 34 min 03 sec)
Heartbeat CPU 3 instructions: 190000003 cycles: 172549348 heartbeat IPC: 1.91 cumulative IPC: 0.7944 (Simulation time: 01 hr 34 min 39 sec)
Heartbeat CPU 0 instructions: 340000002 cycles: 174160998 heartbeat IPC: 1.989 cumulative IPC: 1.848 (Simulation time: 01 hr 35 min 38 sec)
Heartbeat CPU 2 instructions: 410000000 cycles: 175993982 heartbeat IPC: 2.195 cumulative IPC: 2.152 (Simulation time: 01 hr 36 min 35 sec)
Heartbeat CPU 0 instructions: 350000000 cycles: 178372320 heartbeat IPC: 2.375 cumulative IPC: 1.862 (Simulation time: 01 hr 37 min 52 sec)
Heartbeat CPU 1 instructions: 80000000 cycles: 179819501 heartbeat IPC: 0.1845 cumulative IPC: 0.1451 (Simulation time: 01 hr 38 min 41 sec)
Heartbeat CPU 2 instructions: 420000004 cycles: 180564900 heartbeat IPC: 2.188 cumulative IPC: 2.153 (Simulation time: 01 hr 39 min 03 sec)
Heartbeat CPU 0 instructions: 360000002 cycles: 182189427 heartbeat IPC: 2.62 cumulative IPC: 1.879 (Simulation time: 01 hr 39 min 56 sec)
Heartbeat CPU 2 instructions: 430000004 cycles: 185219654 heartbeat IPC: 2.148 cumulative IPC: 2.153 (Simulation time: 01 hr 41 min 36 sec)
Heartbeat CPU 0 instructions: 370000000 cycles: 186379852 heartbeat IPC: 2.386 cumulative IPC: 1.892 (Simulation time: 01 hr 42 min 18 sec)
Heartbeat CPU 2 instructions: 440000003 cycles: 189893306 heartbeat IPC: 2.14 cumulative IPC: 2.153 (Simulation time: 01 hr 44 min 15 sec)
Heartbeat CPU 3 instructions: 200000004 cycles: 190214653 heartbeat IPC: 0.5661 cumulative IPC: 0.771 (Simulation time: 01 hr 44 min 25 sec)
Heartbeat CPU 0 instructions: 380000004 cycles: 190552736 heartbeat IPC: 2.396 cumulative IPC: 1.904 (Simulation time: 01 hr 44 min 38 sec)
Heartbeat CPU 2 instructions: 450000003 cycles: 194420457 heartbeat IPC: 2.209 cumulative IPC: 2.154 (Simulation time: 01 hr 46 min 44 sec)
Heartbeat CPU 0 instructions: 390000000 cycles: 194675634 heartbeat IPC: 2.425 cumulative IPC: 1.916 (Simulation time: 01 hr 46 min 53 sec)
Heartbeat CPU 0 instructions: 400000004 cycles: 198765164 heartbeat IPC: 2.445 cumulative IPC: 1.928 (Simulation time: 01 hr 49 min 06 sec)
Heartbeat CPU 2 instructions: 460000003 cycles: 199084515 heartbeat IPC: 2.144 cumulative IPC: 2.154 (Simulation time: 01 hr 49 min 15 sec)
Heartbeat CPU 0 instructions: 410000002 cycles: 203094723 heartbeat IPC: 2.31 cumulative IPC: 1.937 (Simulation time: 01 hr 51 min 18 sec)
Heartbeat CPU 2 instructions: 470000002 cycles: 203446526 heartbeat IPC: 2.293 cumulative IPC: 2.157 (Simulation time: 01 hr 51 min 28 sec)
Heartbeat CPU 0 instructions: 420000004 cycles: 207698772 heartbeat IPC: 2.172 cumulative IPC: 1.943 (Simulation time: 01 hr 53 min 52 sec)
Heartbeat CPU 2 instructions: 480000000 cycles: 207991833 heartbeat IPC: 2.2 cumulative IPC: 2.158 (Simulation time: 01 hr 54 min 03 sec)
Heartbeat CPU 0 instructions: 430000001 cycles: 212310564 heartbeat IPC: 2.168 cumulative IPC: 1.948 (Simulation time: 01 hr 56 min 26 sec)
Heartbeat CPU 2 instructions: 490000002 cycles: 212368826 heartbeat IPC: 2.285 cumulative IPC: 2.161 (Simulation time: 01 hr 56 min 27 sec)
Heartbeat CPU 0 instructions: 440000001 cycles: 216709950 heartbeat IPC: 2.273 cumulative IPC: 1.955 (Simulation time: 01 hr 58 min 50 sec)
Heartbeat CPU 2 instructions: 500000000 cycles: 216853719 heartbeat IPC: 2.23 cumulative IPC: 2.162 (Simulation time: 01 hr 58 min 54 sec)
Heartbeat CPU 2 instructions: 510000004 cycles: 221202237 heartbeat IPC: 2.3 cumulative IPC: 2.165 (Simulation time: 02 hr 01 min 03 sec)
Heartbeat CPU 0 instructions: 450000003 cycles: 221257333 heartbeat IPC: 2.199 cumulative IPC: 1.96 (Simulation time: 02 hr 01 min 04 sec)
Heartbeat CPU 2 instructions: 520000000 cycles: 225685482 heartbeat IPC: 2.231 cumulative IPC: 2.167 (Simulation time: 02 hr 03 min 16 sec)
Heartbeat CPU 0 instructions: 460000003 cycles: 226032965 heartbeat IPC: 2.094 cumulative IPC: 1.964 (Simulation time: 02 hr 03 min 26 sec)
Heartbeat CPU 0 instructions: 470000002 cycles: 231223078 heartbeat IPC: 1.927 cumulative IPC: 1.963 (Simulation time: 02 hr 05 min 46 sec)
Heartbeat CPU 0 instructions: 480000001 cycles: 237038965 heartbeat IPC: 1.719 cumulative IPC: 1.956 (Simulation time: 02 hr 08 min 06 sec)
Heartbeat CPU 2 instructions: 530000002 cycles: 237380828 heartbeat IPC: 0.855 cumulative IPC: 2.097 (Simulation time: 02 hr 08 min 17 sec)
Heartbeat CPU 0 instructions: 490000002 cycles: 243042589 heartbeat IPC: 1.666 cumulative IPC: 1.948 (Simulation time: 02 hr 10 min 37 sec)
Heartbeat CPU 2 instructions: 540000003 cycles: 246940155 heartbeat IPC: 1.046 cumulative IPC: 2.053 (Simulation time: 02 hr 12 min 26 sec)
Heartbeat CPU 0 instructions: 500000002 cycles: 247657145 heartbeat IPC: 2.167 cumulative IPC: 1.953 (Simulation time: 02 hr 12 min 46 sec)
Heartbeat CPU 2 instructions: 550000002 cycles: 251294646 heartbeat IPC: 2.296 cumulative IPC: 2.058 (Simulation time: 02 hr 14 min 25 sec)
Heartbeat CPU 0 instructions: 510000004 cycles: 252201640 heartbeat IPC: 2.2 cumulative IPC: 1.958 (Simulation time: 02 hr 14 min 47 sec)
Heartbeat CPU 2 instructions: 560000002 cycles: 255780772 heartbeat IPC: 2.229 cumulative IPC: 2.061 (Simulation time: 02 hr 16 min 25 sec)
Heartbeat CPU 0 instructions: 520000004 cycles: 256737193 heartbeat IPC: 2.205 cumulative IPC: 1.962 (Simulation time: 02 hr 16 min 53 sec)
Heartbeat CPU 2 instructions: 570000001 cycles: 260154723 heartbeat IPC: 2.286 cumulative IPC: 2.065 (Simulation time: 02 hr 18 min 24 sec)
Heartbeat CPU 0 instructions: 530000002 cycles: 261407984 heartbeat IPC: 2.141 cumulative IPC: 1.966 (Simulation time: 02 hr 18 min 57 sec)
Heartbeat CPU 2 instructions: 580000002 cycles: 264625138 heartbeat IPC: 2.237 cumulative IPC: 2.068 (Simulation time: 02 hr 20 min 24 sec)
Heartbeat CPU 0 instructions: 540000002 cycles: 266112094 heartbeat IPC: 2.126 cumulative IPC: 1.969 (Simulation time: 02 hr 21 min 03 sec)
Heartbeat CPU 2 instructions: 590000002 cycles: 268919123 heartbeat IPC: 2.329 cumulative IPC: 2.073 (Simulation time: 02 hr 22 min 29 sec)
Heartbeat CPU 0 instructions: 550000001 cycles: 270725768 heartbeat IPC: 2.167 cumulative IPC: 1.972 (Simulation time: 02 hr 23 min 19 sec)
Heartbeat CPU 3 instructions: 210000003 cycles: 271234517 heartbeat IPC: 0.1234 cumulative IPC: 0.5645 (Simulation time: 02 hr 23 min 37 sec)
Heartbeat CPU 1 instructions: 90000003 cycles: 272884339 heartbeat IPC: 0.1075 cumulative IPC: 0.1314 (Simulation time: 02 hr 24 min 35 sec)
Heartbeat CPU 2 instructions: 600000000 cycles: 273189299 heartbeat IPC: 2.342 cumulative IPC: 2.077 (Simulation time: 02 hr 24 min 45 sec)
Heartbeat CPU 0 instructions: 560000002 cycles: 274906437 heartbeat IPC: 2.392 cumulative IPC: 1.979 (Simulation time: 02 hr 25 min 39 sec)
Simulation finished CPU 3 instructions: 150000000 cycles: 258790891 cumulative IPC: 0.5796 (Simulation time: 02 hr 26 min 15 sec)
Heartbeat CPU 3 instructions: 220000001 cycles: 277468839 heartbeat IPC: 1.604 cumulative IPC: 0.5894 (Simulation time: 02 hr 27 min 06 sec)
Heartbeat CPU 2 instructions: 610000000 cycles: 277543100 heartbeat IPC: 2.297 cumulative IPC: 2.081 (Simulation time: 02 hr 27 min 08 sec)
Heartbeat CPU 0 instructions: 570000001 cycles: 279144229 heartbeat IPC: 2.36 cumulative IPC: 1.985 (Simulation time: 02 hr 28 min 03 sec)
Heartbeat CPU 3 instructions: 230000001 cycles: 281385245 heartbeat IPC: 2.553 cumulative IPC: 0.6185 (Simulation time: 02 hr 29 min 14 sec)
Heartbeat CPU 2 instructions: 620000001 cycles: 281961224 heartbeat IPC: 2.263 cumulative IPC: 2.084 (Simulation time: 02 hr 29 min 34 sec)
Heartbeat CPU 0 instructions: 580000004 cycles: 283477804 heartbeat IPC: 2.308 cumulative IPC: 1.991 (Simulation time: 02 hr 30 min 21 sec)
Heartbeat CPU 3 instructions: 240000000 cycles: 285406019 heartbeat IPC: 2.487 cumulative IPC: 0.6465 (Simulation time: 02 hr 31 min 26 sec)
Heartbeat CPU 2 instructions: 630000001 cycles: 286398825 heartbeat IPC: 2.253 cumulative IPC: 2.087 (Simulation time: 02 hr 32 min 01 sec)
Heartbeat CPU 0 instructions: 590000000 cycles: 287808012 heartbeat IPC: 2.309 cumulative IPC: 1.996 (Simulation time: 02 hr 32 min 56 sec)
Heartbeat CPU 2 instructions: 640000001 cycles: 290768907 heartbeat IPC: 2.288 cumulative IPC: 2.09 (Simulation time: 02 hr 34 min 40 sec)
Heartbeat CPU 3 instructions: 250000004 cycles: 290812224 heartbeat IPC: 1.85 cumulative IPC: 0.6703 (Simulation time: 02 hr 34 min 42 sec)
Heartbeat CPU 0 instructions: 600000002 cycles: 291994830 heartbeat IPC: 2.388 cumulative IPC: 2.002 (Simulation time: 02 hr 35 min 15 sec)
Heartbeat CPU 2 instructions: 650000000 cycles: 295245464 heartbeat IPC: 2.234 cumulative IPC: 2.092 (Simulation time: 02 hr 37 min 01 sec)
Heartbeat CPU 0 instructions: 610000000 cycles: 296176617 heartbeat IPC: 2.391 cumulative IPC: 2.008 (Simulation time: 02 hr 37 min 31 sec)
Heartbeat CPU 3 instructions: 260000000 cycles: 297038182 heartbeat IPC: 1.606 cumulative IPC: 0.6911 (Simulation time: 02 hr 38 min 01 sec)
Heartbeat CPU 2 instructions: 660000002 cycles: 299746822 heartbeat IPC: 2.222 cumulative IPC: 2.094 (Simulation time: 02 hr 39 min 32 sec)
Heartbeat CPU 0 instructions: 620000002 cycles: 300462225 heartbeat IPC: 2.333 cumulative IPC: 2.012 (Simulation time: 02 hr 39 min 54 sec)
Heartbeat CPU 3 instructions: 270000000 cycles: 303224656 heartbeat IPC: 1.616 cumulative IPC: 0.7111 (Simulation time: 02 hr 41 min 24 sec)
Heartbeat CPU 2 instructions: 670000001 cycles: 304260553 heartbeat IPC: 2.215 cumulative IPC: 2.096 (Simulation time: 02 hr 41 min 58 sec)
Heartbeat CPU 0 instructions: 630000002 cycles: 304789518 heartbeat IPC: 2.311 cumulative IPC: 2.017 (Simulation time: 02 hr 42 min 14 sec)
Heartbeat CPU 2 instructions: 680000004 cycles: 308844821 heartbeat IPC: 2.181 cumulative IPC: 2.098 (Simulation time: 02 hr 44 min 38 sec)
Heartbeat CPU 0 instructions: 640000004 cycles: 308869510 heartbeat IPC: 2.451 cumulative IPC: 2.023 (Simulation time: 02 hr 44 min 39 sec)
Heartbeat CPU 3 instructions: 280000001 cycles: 309440567 heartbeat IPC: 1.609 cumulative IPC: 0.7302 (Simulation time: 02 hr 44 min 57 sec)
Heartbeat CPU 0 instructions: 650000002 cycles: 312988833 heartbeat IPC: 2.428 cumulative IPC: 2.029 (Simulation time: 02 hr 46 min 50 sec)
Heartbeat CPU 2 instructions: 690000001 cycles: 313408857 heartbeat IPC: 2.191 cumulative IPC: 2.099 (Simulation time: 02 hr 47 min 03 sec)
Heartbeat CPU 3 instructions: 290000003 cycles: 316053668 heartbeat IPC: 1.512 cumulative IPC: 0.7475 (Simulation time: 02 hr 48 min 24 sec)
Heartbeat CPU 0 instructions: 660000000 cycles: 316902037 heartbeat IPC: 2.555 cumulative IPC: 2.036 (Simulation time: 02 hr 48 min 51 sec)
Heartbeat CPU 2 instructions: 700000000 cycles: 317978142 heartbeat IPC: 2.189 cumulative IPC: 2.1 (Simulation time: 02 hr 49 min 29 sec)
Heartbeat CPU 0 instructions: 670000003 cycles: 321088630 heartbeat IPC: 2.389 cumulative IPC: 2.04 (Simulation time: 02 hr 51 min 04 sec)
Heartbeat CPU 2 instructions: 710000002 cycles: 322536727 heartbeat IPC: 2.194 cumulative IPC: 2.102 (Simulation time: 02 hr 51 min 46 sec)
Heartbeat CPU 0 instructions: 680000004 cycles: 325007768 heartbeat IPC: 2.552 cumulative IPC: 2.047 (Simulation time: 02 hr 52 min 57 sec)
Heartbeat CPU 1 instructions: 100000000 cycles: 325741062 heartbeat IPC: 0.1892 cumulative IPC: 0.1413 (Simulation time: 02 hr 53 min 23 sec)
Heartbeat CPU 3 instructions: 300000001 cycles: 326616949 heartbeat IPC: 0.9467 cumulative IPC: 0.7543 (Simulation time: 02 hr 53 min 49 sec)
Heartbeat CPU 2 instructions: 720000004 cycles: 327160044 heartbeat IPC: 2.163 cumulative IPC: 2.103 (Simulation time: 02 hr 54 min 05 sec)
Heartbeat CPU 0 instructions: 690000002 cycles: 328961038 heartbeat IPC: 2.53 cumulative IPC: 2.053 (Simulation time: 02 hr 54 min 57 sec)
Heartbeat CPU 2 instructions: 730000002 cycles: 331753028 heartbeat IPC: 2.177 cumulative IPC: 2.104 (Simulation time: 02 hr 56 min 13 sec)
Heartbeat CPU 0 instructions: 700000004 cycles: 333850760 heartbeat IPC: 2.045 cumulative IPC: 2.053 (Simulation time: 02 hr 57 min 13 sec)
Heartbeat CPU 2 instructions: 740000004 cycles: 336420063 heartbeat IPC: 2.143 cumulative IPC: 2.104 (Simulation time: 02 hr 58 min 33 sec)
Heartbeat CPU 0 instructions: 710000001 cycles: 339684016 heartbeat IPC: 1.714 cumulative IPC: 2.047 (Simulation time: 03 hr 00 min 01 sec)
Heartbeat CPU 2 instructions: 750000001 cycles: 341122953 heartbeat IPC: 2.126 cumulative IPC: 2.105 (Simulation time: 03 hr 00 min 45 sec)
Heartbeat CPU 0 instructions: 720000002 cycles: 343797221 heartbeat IPC: 2.431 cumulative IPC: 2.052 (Simulation time: 03 hr 02 min 02 sec)
Heartbeat CPU 2 instructions: 760000000 cycles: 345768371 heartbeat IPC: 2.153 cumulative IPC: 2.105 (Simulation time: 03 hr 02 min 59 sec)
Heartbeat CPU 0 instructions: 730000000 cycles: 348190312 heartbeat IPC: 2.276 cumulative IPC: 2.055 (Simulation time: 03 hr 04 min 05 sec)
Heartbeat CPU 2 instructions: 770000002 cycles: 350432898 heartbeat IPC: 2.144 cumulative IPC: 2.106 (Simulation time: 03 hr 05 min 08 sec)
Heartbeat CPU 0 instructions: 740000001 cycles: 352632878 heartbeat IPC: 2.251 cumulative IPC: 2.057 (Simulation time: 03 hr 06 min 03 sec)
Heartbeat CPU 2 instructions: 780000002 cycles: 355081266 heartbeat IPC: 2.151 cumulative IPC: 2.106 (Simulation time: 03 hr 07 min 07 sec)
Heartbeat CPU 0 instructions: 750000002 cycles: 357274424 heartbeat IPC: 2.154 cumulative IPC: 2.059 (Simulation time: 03 hr 08 min 01 sec)
Heartbeat CPU 2 instructions: 790000002 cycles: 359768860 heartbeat IPC: 2.133 cumulative IPC: 2.107 (Simulation time: 03 hr 09 min 13 sec)
Heartbeat CPU 0 instructions: 760000002 cycles: 361855295 heartbeat IPC: 2.183 cumulative IPC: 2.06 (Simulation time: 03 hr 10 min 13 sec)
Heartbeat CPU 2 instructions: 800000001 cycles: 364411483 heartbeat IPC: 2.154 cumulative IPC: 2.107 (Simulation time: 03 hr 11 min 27 sec)
Heartbeat CPU 0 instructions: 770000000 cycles: 366402577 heartbeat IPC: 2.199 cumulative IPC: 2.062 (Simulation time: 03 hr 12 min 23 sec)
Heartbeat CPU 2 instructions: 810000000 cycles: 369208058 heartbeat IPC: 2.085 cumulative IPC: 2.107 (Simulation time: 03 hr 13 min 38 sec)
Heartbeat CPU 0 instructions: 780000002 cycles: 371024184 heartbeat IPC: 2.164 cumulative IPC: 2.063 (Simulation time: 03 hr 14 min 26 sec)
Heartbeat CPU 2 instructions: 820000000 cycles: 373858938 heartbeat IPC: 2.15 cumulative IPC: 2.108 (Simulation time: 03 hr 15 min 49 sec)
Heartbeat CPU 0 instructions: 790000000 cycles: 376650980 heartbeat IPC: 1.777 cumulative IPC: 2.059 (Simulation time: 03 hr 17 min 04 sec)
Heartbeat CPU 2 instructions: 830000004 cycles: 378605493 heartbeat IPC: 2.107 cumulative IPC: 2.108 (Simulation time: 03 hr 17 min 54 sec)
Heartbeat CPU 0 instructions: 800000000 cycles: 382139165 heartbeat IPC: 1.822 cumulative IPC: 2.055 (Simulation time: 03 hr 19 min 31 sec)
Heartbeat CPU 2 instructions: 840000003 cycles: 383367157 heartbeat IPC: 2.1 cumulative IPC: 2.108 (Simulation time: 03 hr 20 min 03 sec)
Heartbeat CPU 0 instructions: 810000003 cycles: 387062740 heartbeat IPC: 2.031 cumulative IPC: 2.055 (Simulation time: 03 hr 21 min 34 sec)
Heartbeat CPU 2 instructions: 850000001 cycles: 388040221 heartbeat IPC: 2.14 cumulative IPC: 2.108 (Simulation time: 03 hr 21 min 59 sec)
Heartbeat CPU 0 instructions: 820000003 cycles: 391977862 heartbeat IPC: 2.035 cumulative IPC: 2.055 (Simulation time: 03 hr 23 min 44 sec)
Heartbeat CPU 2 instructions: 860000003 cycles: 392746366 heartbeat IPC: 2.125 cumulative IPC: 2.108 (Simulation time: 03 hr 24 min 04 sec)
Heartbeat CPU 0 instructions: 830000001 cycles: 396850240 heartbeat IPC: 2.052 cumulative IPC: 2.055 (Simulation time: 03 hr 25 min 52 sec)
Heartbeat CPU 2 instructions: 870000003 cycles: 397457027 heartbeat IPC: 2.123 cumulative IPC: 2.108 (Simulation time: 03 hr 26 min 10 sec)
Heartbeat CPU 0 instructions: 840000000 cycles: 401585360 heartbeat IPC: 2.112 cumulative IPC: 2.055 (Simulation time: 03 hr 27 min 57 sec)
Heartbeat CPU 2 instructions: 880000000 cycles: 402206184 heartbeat IPC: 2.106 cumulative IPC: 2.108 (Simulation time: 03 hr 28 min 13 sec)
Heartbeat CPU 0 instructions: 850000002 cycles: 406222534 heartbeat IPC: 2.156 cumulative IPC: 2.057 (Simulation time: 03 hr 29 min 58 sec)
Heartbeat CPU 2 instructions: 890000004 cycles: 406945201 heartbeat IPC: 2.11 cumulative IPC: 2.108 (Simulation time: 03 hr 30 min 15 sec)
Heartbeat CPU 3 instructions: 310000000 cycles: 410741580 heartbeat IPC: 0.1189 cumulative IPC: 0.6185 (Simulation time: 03 hr 31 min 56 sec)
Heartbeat CPU 0 instructions: 860000004 cycles: 410869473 heartbeat IPC: 2.152 cumulative IPC: 2.058 (Simulation time: 03 hr 32 min 00 sec)
Heartbeat CPU 2 instructions: 900000000 cycles: 411583721 heartbeat IPC: 2.156 cumulative IPC: 2.109 (Simulation time: 03 hr 32 min 20 sec)
Heartbeat CPU 0 instructions: 870000003 cycles: 415245999 heartbeat IPC: 2.285 cumulative IPC: 2.06 (Simulation time: 03 hr 34 min 05 sec)
Heartbeat CPU 1 instructions: 110000002 cycles: 415571199 heartbeat IPC: 0.1113 cumulative IPC: 0.1345 (Simulation time: 03 hr 34 min 16 sec)
Heartbeat CPU 2 instructions: 910000003 cycles: 416296887 heartbeat IPC: 2.122 cumulative IPC: 2.109 (Simulation time: 03 hr 34 min 36 sec)
Heartbeat CPU 3 instructions: 320000004 cycles: 418942459 heartbeat IPC: 1.219 cumulative IPC: 0.6307 (Simulation time: 03 hr 35 min 54 sec)
Heartbeat CPU 0 instructions: 880000000 cycles: 419323084 heartbeat IPC: 2.453 cumulative IPC: 2.064 (Simulation time: 03 hr 36 min 05 sec)
Heartbeat CPU 2 instructions: 920000001 cycles: 420817173 heartbeat IPC: 2.212 cumulative IPC: 2.11 (Simulation time: 03 hr 37 min 04 sec)
Heartbeat CPU 3 instructions: 330000002 cycles: 422990560 heartbeat IPC: 2.47 cumulative IPC: 0.6491 (Simulation time: 03 hr 38 min 18 sec)
Heartbeat CPU 0 instructions: 890000003 cycles: 423512584 heartbeat IPC: 2.387 cumulative IPC: 2.068 (Simulation time: 03 hr 38 min 33 sec)
Heartbeat CPU 2 instructions: 930000001 cycles: 425371364 heartbeat IPC: 2.196 cumulative IPC: 2.111 (Simulation time: 03 hr 39 min 35 sec)
Heartbeat CPU 3 instructions: 340000004 cycles: 426859930 heartbeat IPC: 2.584 cumulative IPC: 0.6674 (Simulation time: 03 hr 40 min 23 sec)
Heartbeat CPU 0 instructions: 900000000 cycles: 427965745 heartbeat IPC: 2.246 cumulative IPC: 2.069 (Simulation time: 03 hr 40 min 55 sec)
Heartbeat CPU 2 instructions: 940000000 cycles: 430123367 heartbeat IPC: 2.104 cumulative IPC: 2.111 (Simulation time: 03 hr 42 min 12 sec)
Heartbeat CPU 3 instructions: 350000004 cycles: 431395644 heartbeat IPC: 2.205 cumulative IPC: 0.6842 (Simulation time: 03 hr 42 min 49 sec)
Heartbeat CPU 0 instructions: 910000000 cycles: 432783549 heartbeat IPC: 2.076 cumulative IPC: 2.07 (Simulation time: 03 hr 43 min 30 sec)
Heartbeat CPU 2 instructions: 950000000 cycles: 434805723 heartbeat IPC: 2.136 cumulative IPC: 2.111 (Simulation time: 03 hr 44 min 39 sec)
Heartbeat CPU 3 instructions: 360000001 cycles: 436728324 heartbeat IPC: 1.875 cumulative IPC: 0.6994 (Simulation time: 03 hr 45 min 40 sec)
Heartbeat CPU 0 instructions: 920000004 cycles: 437739661 heartbeat IPC: 2.018 cumulative IPC: 2.069 (Simulation time: 03 hr 46 min 11 sec)
Heartbeat CPU 2 instructions: 960000003 cycles: 439480922 heartbeat IPC: 2.139 cumulative IPC: 2.112 (Simulation time: 03 hr 47 min 06 sec)
Heartbeat CPU 0 instructions: 930000002 cycles: 442705500 heartbeat IPC: 2.014 cumulative IPC: 2.068 (Simulation time: 03 hr 48 min 53 sec)
Heartbeat CPU 3 instructions: 370000000 cycles: 442840665 heartbeat IPC: 1.636 cumulative IPC: 0.7128 (Simulation time: 03 hr 48 min 57 sec)
Heartbeat CPU 2 instructions: 970000001 cycles: 444017136 heartbeat IPC: 2.204 cumulative IPC: 2.113 (Simulation time: 03 hr 49 min 36 sec)
Heartbeat CPU 0 instructions: 940000001 cycles: 446852255 heartbeat IPC: 2.412 cumulative IPC: 2.072 (Simulation time: 03 hr 51 min 08 sec)
Heartbeat CPU 2 instructions: 980000000 cycles: 448636040 heartbeat IPC: 2.165 cumulative IPC: 2.113 (Simulation time: 03 hr 52 min 09 sec)
Heartbeat CPU 3 instructions: 380000002 cycles: 448867465 heartbeat IPC: 1.659 cumulative IPC: 0.726 (Simulation time: 03 hr 52 min 17 sec)
Heartbeat CPU 0 instructions: 950000000 cycles: 450836937 heartbeat IPC: 2.51 cumulative IPC: 2.076 (Simulation time: 03 hr 53 min 26 sec)
Heartbeat CPU 2 instructions: 990000004 cycles: 453192943 heartbeat IPC: 2.194 cumulative IPC: 2.114 (Simulation time: 03 hr 54 min 43 sec)
Heartbeat CPU 0 instructions: 960000003 cycles: 454970081 heartbeat IPC: 2.419 cumulative IPC: 2.079 (Simulation time: 03 hr 55 min 39 sec)
Heartbeat CPU 3 instructions: 390000000 cycles: 455750405 heartbeat IPC: 1.453 cumulative IPC: 0.7374 (Simulation time: 03 hr 56 min 03 sec)
Heartbeat CPU 2 instructions: 1000000004 cycles: 457786617 heartbeat IPC: 2.177 cumulative IPC: 2.115 (Simulation time: 03 hr 57 min 15 sec)
Heartbeat CPU 0 instructions: 970000002 cycles: 458918437 heartbeat IPC: 2.533 cumulative IPC: 2.083 (Simulation time: 03 hr 57 min 50 sec)
Heartbeat CPU 3 instructions: 400000001 cycles: 460400266 heartbeat IPC: 2.151 cumulative IPC: 0.7523 (Simulation time: 03 hr 58 min 38 sec)
Heartbeat CPU 2 instructions: 1010000000 cycles: 462402838 heartbeat IPC: 2.166 cumulative IPC: 2.115 (Simulation time: 03 hr 59 min 43 sec)
Heartbeat CPU 0 instructions: 980000001 cycles: 462983502 heartbeat IPC: 2.46 cumulative IPC: 2.086 (Simulation time: 04 hr 00 min 00 sec)
Heartbeat CPU 2 instructions: 1020000002 cycles: 466898995 heartbeat IPC: 2.224 cumulative IPC: 2.116 (Simulation time: 04 hr 01 min 56 sec)
Heartbeat CPU 0 instructions: 990000003 cycles: 466900097 heartbeat IPC: 2.553 cumulative IPC: 2.09 (Simulation time: 04 hr 01 min 56 sec)
Heartbeat CPU 1 instructions: 120000001 cycles: 470671843 heartbeat IPC: 0.1815 cumulative IPC: 0.1402 (Simulation time: 04 hr 03 min 50 sec)
Heartbeat CPU 0 instructions: 1000000002 cycles: 470837383 heartbeat IPC: 2.54 cumulative IPC: 2.094 (Simulation time: 04 hr 03 min 54 sec)
Heartbeat CPU 2 instructions: 1030000004 cycles: 471388452 heartbeat IPC: 2.227 cumulative IPC: 2.117 (Simulation time: 04 hr 04 min 12 sec)
Heartbeat CPU 0 instructions: 1010000001 cycles: 475048736 heartbeat IPC: 2.375 cumulative IPC: 2.097 (Simulation time: 04 hr 06 min 03 sec)
Heartbeat CPU 2 instructions: 1040000001 cycles: 475853172 heartbeat IPC: 2.24 cumulative IPC: 2.119 (Simulation time: 04 hr 06 min 31 sec)
Heartbeat CPU 0 instructions: 1020000003 cycles: 479192619 heartbeat IPC: 2.413 cumulative IPC: 2.1 (Simulation time: 04 hr 08 min 17 sec)
Heartbeat CPU 2 instructions: 1050000001 cycles: 480153021 heartbeat IPC: 2.326 cumulative IPC: 2.121 (Simulation time: 04 hr 08 min 44 sec)
Heartbeat CPU 0 instructions: 1030000001 cycles: 483185580 heartbeat IPC: 2.504 cumulative IPC: 2.103 (Simulation time: 04 hr 10 min 15 sec)
Heartbeat CPU 2 instructions: 1060000001 cycles: 484507838 heartbeat IPC: 2.296 cumulative IPC: 2.122 (Simulation time: 04 hr 10 min 50 sec)
Heartbeat CPU 0 instructions: 1040000001 cycles: 487365504 heartbeat IPC: 2.392 cumulative IPC: 2.106 (Simulation time: 04 hr 12 min 08 sec)
Heartbeat CPU 2 instructions: 1070000000 cycles: 488997377 heartbeat IPC: 2.227 cumulative IPC: 2.123 (Simulation time: 04 hr 13 min 01 sec)
Heartbeat CPU 3 instructions: 410000000 cycles: 491640560 heartbeat IPC: 0.3201 cumulative IPC: 0.7238 (Simulation time: 04 hr 14 min 34 sec)
Heartbeat CPU 0 instructions: 1050000001 cycles: 492019426 heartbeat IPC: 2.149 cumulative IPC: 2.106 (Simulation time: 04 hr 14 min 43 sec)
Heartbeat CPU 2 instructions: 1080000000 cycles: 493440079 heartbeat IPC: 2.251 cumulative IPC: 2.124 (Simulation time: 04 hr 15 min 20 sec)
Heartbeat CPU 0 instructions: 1060000001 cycles: 496471822 heartbeat IPC: 2.246 cumulative IPC: 2.107 (Simulation time: 04 hr 16 min 46 sec)
Heartbeat CPU 2 instructions: 1090000000 cycles: 497751511 heartbeat IPC: 2.319 cumulative IPC: 2.126 (Simulation time: 04 hr 17 min 26 sec)
Heartbeat CPU 0 instructions: 1070000001 cycles: 500819165 heartbeat IPC: 2.3 cumulative IPC: 2.109 (Simulation time: 04 hr 18 min 55 sec)
Heartbeat CPU 2 instructions: 1100000000 cycles: 502071337 heartbeat IPC: 2.315 cumulative IPC: 2.128 (Simulation time: 04 hr 19 min 28 sec)
Heartbeat CPU 0 instructions: 1080000003 cycles: 505552592 heartbeat IPC: 2.113 cumulative IPC: 2.109 (Simulation time: 04 hr 21 min 08 sec)
Heartbeat CPU 2 instructions: 1110000001 cycles: 506581292 heartbeat IPC: 2.217 cumulative IPC: 2.129 (Simulation time: 04 hr 21 min 40 sec)
Heartbeat CPU 0 instructions: 1090000001 cycles: 510299417 heartbeat IPC: 2.107 cumulative IPC: 2.109 (Simulation time: 04 hr 23 min 23 sec)
Heartbeat CPU 2 instructions: 1120000004 cycles: 510922560 heartbeat IPC: 2.303 cumulative IPC: 2.13 (Simulation time: 04 hr 23 min 39 sec)
Heartbeat CPU 0 instructions: 1100000003 cycles: 515196709 heartbeat IPC: 2.042 cumulative IPC: 2.109 (Simulation time: 04 hr 25 min 37 sec)
Heartbeat CPU 2 instructions: 1130000000 cycles: 515497395 heartbeat IPC: 2.186 cumulative IPC: 2.131 (Simulation time: 04 hr 25 min 44 sec)
Heartbeat CPU 2 instructions: 1140000002 cycles: 520050213 heartbeat IPC: 2.196 cumulative IPC: 2.131 (Simulation time: 04 hr 27 min 54 sec)
Heartbeat CPU 0 instructions: 1110000003 cycles: 520598070 heartbeat IPC: 1.851 cumulative IPC: 2.106 (Simulation time: 04 hr 28 min 10 sec)
Heartbeat CPU 2 instructions: 1150000000 cycles: 524338191 heartbeat IPC: 2.332 cumulative IPC: 2.133 (Simulation time: 04 hr 29 min 55 sec)
Heartbeat CPU 0 instructions: 1120000004 cycles: 527880212 heartbeat IPC: 1.373 cumulative IPC: 2.095 (Simulation time: 04 hr 31 min 19 sec)
Heartbeat CPU 0 instructions: 1130000002 cycles: 534991312 heartbeat IPC: 1.406 cumulative IPC: 2.086 (Simulation time: 04 hr 34 min 19 sec)
Heartbeat CPU 0 instructions: 1140000000 cycles: 541943161 heartbeat IPC: 1.438 cumulative IPC: 2.077 (Simulation time: 04 hr 37 min 11 sec)
Heartbeat CPU 2 instructions: 1160000001 cycles: 542434809 heartbeat IPC: 0.5526 cumulative IPC: 2.079 (Simulation time: 04 hr 37 min 23 sec)
Heartbeat CPU 2 instructions: 1170000004 cycles: 547054494 heartbeat IPC: 2.165 cumulative IPC: 2.079 (Simulation time: 04 hr 39 min 36 sec)
Heartbeat CPU 0 instructions: 1150000000 cycles: 547347874 heartbeat IPC: 1.85 cumulative IPC: 2.075 (Simulation time: 04 hr 39 min 45 sec)
Heartbeat CPU 2 instructions: 1180000001 cycles: 551387020 heartbeat IPC: 2.308 cumulative IPC: 2.081 (Simulation time: 04 hr 41 min 36 sec)
Heartbeat CPU 0 instructions: 1160000000 cycles: 552614487 heartbeat IPC: 1.899 cumulative IPC: 2.073 (Simulation time: 04 hr 42 min 08 sec)
Heartbeat CPU 2 instructions: 1190000001 cycles: 555880161 heartbeat IPC: 2.226 cumulative IPC: 2.082 (Simulation time: 04 hr 43 min 39 sec)
Heartbeat CPU 0 instructions: 1170000002 cycles: 558502180 heartbeat IPC: 1.698 cumulative IPC: 2.069 (Simulation time: 04 hr 44 min 58 sec)
Heartbeat CPU 3 instructions: 420000002 cycles: 559215994 heartbeat IPC: 0.148 cumulative IPC: 0.652 (Simulation time: 04 hr 45 min 20 sec)
Heartbeat CPU 2 instructions: 1200000001 cycles: 560165617 heartbeat IPC: 2.333 cumulative IPC: 2.084 (Simulation time: 04 hr 45 min 48 sec)
Heartbeat CPU 1 instructions: 130000000 cycles: 562952735 heartbeat IPC: 0.1084 cumulative IPC: 0.1348 (Simulation time: 04 hr 47 min 19 sec)
Heartbeat CPU 0 instructions: 1180000004 cycles: 563787239 heartbeat IPC: 1.892 cumulative IPC: 2.067 (Simulation time: 04 hr 47 min 50 sec)
Heartbeat CPU 2 instructions: 1210000002 cycles: 564464768 heartbeat IPC: 2.326 cumulative IPC: 2.086 (Simulation time: 04 hr 48 min 14 sec)
Heartbeat CPU 3 instructions: 430000000 cycles: 564961818 heartbeat IPC: 1.74 cumulative IPC: 0.6634 (Simulation time: 04 hr 48 min 32 sec)
Heartbeat CPU 0 instructions: 1190000001 cycles: 567912814 heartbeat IPC: 2.424 cumulative IPC: 2.07 (Simulation time: 04 hr 50 min 15 sec)
Heartbeat CPU 2 instructions: 1220000003 cycles: 568859768 heartbeat IPC: 2.275 cumulative IPC: 2.088 (Simulation time: 04 hr 50 min 48 sec)
Heartbeat CPU 3 instructions: 440000003 cycles: 569375421 heartbeat IPC: 2.266 cumulative IPC: 0.6762 (Simulation time: 04 hr 51 min 06 sec)
Heartbeat CPU 0 instructions: 1200000001 cycles: 572077945 heartbeat IPC: 2.401 cumulative IPC: 2.073 (Simulation time: 04 hr 52 min 37 sec)
Heartbeat CPU 2 instructions: 1230000002 cycles: 573159567 heartbeat IPC: 2.326 cumulative IPC: 2.09 (Simulation time: 04 hr 53 min 15 sec)
Heartbeat CPU 3 instructions: 450000002 cycles: 573873269 heartbeat IPC: 2.223 cumulative IPC: 0.6887 (Simulation time: 04 hr 53 min 40 sec)
Heartbeat CPU 0 instructions: 1210000000 cycles: 576070118 heartbeat IPC: 2.505 cumulative IPC: 2.076 (Simulation time: 04 hr 54 min 57 sec)
Heartbeat CPU 2 instructions: 1240000002 cycles: 577510629 heartbeat IPC: 2.298 cumulative IPC: 2.091 (Simulation time: 04 hr 55 min 51 sec)
Heartbeat CPU 3 instructions: 460000001 cycles: 579206862 heartbeat IPC: 1.875 cumulative IPC: 0.7 (Simulation time: 04 hr 56 min 48 sec)
Heartbeat CPU 0 instructions: 1220000002 cycles: 580007084 heartbeat IPC: 2.54 cumulative IPC: 2.079 (Simulation time: 04 hr 57 min 13 sec)
Heartbeat CPU 2 instructions: 1250000003 cycles: 581915598 heartbeat IPC: 2.27 cumulative IPC: 2.093 (Simulation time: 04 hr 58 min 15 sec)
Heartbeat CPU 0 instructions: 1230000002 cycles: 583923291 heartbeat IPC: 2.553 cumulative IPC: 2.082 (Simulation time: 04 hr 59 min 23 sec)
Heartbeat CPU 3 instructions: 470000000 cycles: 585349235 heartbeat IPC: 1.628 cumulative IPC: 0.71 (Simulation time: 05 hr 00 min 11 sec)
Heartbeat CPU 2 instructions: 1260000000 cycles: 586226411 heartbeat IPC: 2.32 cumulative IPC: 2.094 (Simulation time: 05 hr 00 min 40 sec)
Heartbeat CPU 0 instructions: 1240000003 cycles: 587902950 heartbeat IPC: 2.513 cumulative IPC: 2.085 (Simulation time: 05 hr 01 min 36 sec)
Heartbeat CPU 2 instructions: 1270000000 cycles: 590528365 heartbeat IPC: 2.325 cumulative IPC: 2.096 (Simulation time: 05 hr 03 min 06 sec)
Heartbeat CPU 3 instructions: 480000004 cycles: 591719363 heartbeat IPC: 1.57 cumulative IPC: 0.7196 (Simulation time: 05 hr 03 min 43 sec)
Heartbeat CPU 0 instructions: 1250000001 cycles: 591873623 heartbeat IPC: 2.518 cumulative IPC: 2.088 (Simulation time: 05 hr 03 min 48 sec)
Heartbeat CPU 2 instructions: 1280000001 cycles: 594809328 heartbeat IPC: 2.336 cumulative IPC: 2.098 (Simulation time: 05 hr 05 min 24 sec)
Heartbeat CPU 0 instructions: 1260000000 cycles: 595938273 heartbeat IPC: 2.46 cumulative IPC: 2.091 (Simulation time: 05 hr 05 min 57 sec)
Heartbeat CPU 3 instructions: 490000001 cycles: 598768810 heartbeat IPC: 1.419 cumulative IPC: 0.728 (Simulation time: 05 hr 07 min 27 sec)
Heartbeat CPU 2 instructions: 1290000002 cycles: 599252437 heartbeat IPC: 2.251 cumulative IPC: 2.099 (Simulation time: 05 hr 07 min 46 sec)
Heartbeat CPU 0 instructions: 1270000003 cycles: 600285303 heartbeat IPC: 2.3 cumulative IPC: 2.092 (Simulation time: 05 hr 08 min 18 sec)
Heartbeat CPU 3 instructions: 500000000 cycles: 603295523 heartbeat IPC: 2.209 cumulative IPC: 0.7395 (Simulation time: 05 hr 10 min 01 sec)
Heartbeat CPU 2 instructions: 1300000001 cycles: 603621491 heartbeat IPC: 2.289 cumulative IPC: 2.1 (Simulation time: 05 hr 10 min 11 sec)
Heartbeat CPU 0 instructions: 1280000001 cycles: 604301573 heartbeat IPC: 2.49 cumulative IPC: 2.095 (Simulation time: 05 hr 10 min 32 sec)
Heartbeat CPU 2 instructions: 1310000003 cycles: 608100712 heartbeat IPC: 2.233 cumulative IPC: 2.101 (Simulation time: 05 hr 12 min 25 sec)
Heartbeat CPU 0 instructions: 1290000000 cycles: 608277433 heartbeat IPC: 2.515 cumulative IPC: 2.098 (Simulation time: 05 hr 12 min 30 sec)
Heartbeat CPU 0 instructions: 1300000001 cycles: 612110593 heartbeat IPC: 2.609 cumulative IPC: 2.101 (Simulation time: 05 hr 14 min 24 sec)
Heartbeat CPU 2 instructions: 1320000003 cycles: 612553253 heartbeat IPC: 2.246 cumulative IPC: 2.102 (Simulation time: 05 hr 14 min 37 sec)
Heartbeat CPU 0 instructions: 1310000001 cycles: 616149080 heartbeat IPC: 2.476 cumulative IPC: 2.104 (Simulation time: 05 hr 16 min 19 sec)
Heartbeat CPU 1 instructions: 140000003 cycles: 616375522 heartbeat IPC: 0.1872 cumulative IPC: 0.1395 (Simulation time: 05 hr 16 min 25 sec)
Heartbeat CPU 2 instructions: 1330000004 cycles: 617113856 heartbeat IPC: 2.193 cumulative IPC: 2.103 (Simulation time: 05 hr 16 min 46 sec)
Heartbeat CPU 0 instructions: 1320000001 cycles: 620389902 heartbeat IPC: 2.358 cumulative IPC: 2.106 (Simulation time: 05 hr 18 min 27 sec)
Heartbeat CPU 2 instructions: 1340000000 cycles: 621621452 heartbeat IPC: 2.218 cumulative IPC: 2.104 (Simulation time: 05 hr 19 min 03 sec)
Heartbeat CPU 0 instructions: 1330000000 cycles: 624486543 heartbeat IPC: 2.441 cumulative IPC: 2.108 (Simulation time: 05 hr 20 min 31 sec)
Heartbeat CPU 3 instructions: 510000000 cycles: 625562625 heartbeat IPC: 0.4491 cumulative IPC: 0.7288 (Simulation time: 05 hr 21 min 04 sec)
Heartbeat CPU 2 instructions: 1350000002 cycles: 626244235 heartbeat IPC: 2.163 cumulative IPC: 2.104 (Simulation time: 05 hr 21 min 26 sec)
Heartbeat CPU 0 instructions: 1340000003 cycles: 628437389 heartbeat IPC: 2.531 cumulative IPC: 2.111 (Simulation time: 05 hr 22 min 30 sec)
Heartbeat CPU 2 instructions: 1360000003 cycles: 630847216 heartbeat IPC: 2.173 cumulative IPC: 2.105 (Simulation time: 05 hr 23 min 39 sec)
Heartbeat CPU 0 instructions: 1350000002 cycles: 632585592 heartbeat IPC: 2.411 cumulative IPC: 2.113 (Simulation time: 05 hr 24 min 28 sec)
Heartbeat CPU 2 instructions: 1370000003 cycles: 635506385 heartbeat IPC: 2.146 cumulative IPC: 2.105 (Simulation time: 05 hr 25 min 50 sec)
Heartbeat CPU 0 instructions: 1360000000 cycles: 637030211 heartbeat IPC: 2.25 cumulative IPC: 2.114 (Simulation time: 05 hr 26 min 32 sec)
Heartbeat CPU 2 instructions: 1380000002 cycles: 640204556 heartbeat IPC: 2.128 cumulative IPC: 2.105 (Simulation time: 05 hr 27 min 59 sec)
Heartbeat CPU 0 instructions: 1370000002 cycles: 641955882 heartbeat IPC: 2.03 cumulative IPC: 2.113 (Simulation time: 05 hr 28 min 43 sec)
Heartbeat CPU 2 instructions: 1390000000 cycles: 644997506 heartbeat IPC: 2.086 cumulative IPC: 2.105 (Simulation time: 05 hr 30 min 09 sec)
Heartbeat CPU 0 instructions: 1380000000 cycles: 646822568 heartbeat IPC: 2.055 cumulative IPC: 2.112 (Simulation time: 05 hr 31 min 00 sec)
Heartbeat CPU 2 instructions: 1400000003 cycles: 649642084 heartbeat IPC: 2.153 cumulative IPC: 2.106 (Simulation time: 05 hr 32 min 16 sec)
Heartbeat CPU 0 instructions: 1390000000 cycles: 652424159 heartbeat IPC: 1.785 cumulative IPC: 2.11 (Simulation time: 05 hr 33 min 34 sec)
Heartbeat CPU 2 instructions: 1410000002 cycles: 654228715 heartbeat IPC: 2.18 cumulative IPC: 2.106 (Simulation time: 05 hr 34 min 23 sec)
Heartbeat CPU 0 instructions: 1400000003 cycles: 657333210 heartbeat IPC: 2.037 cumulative IPC: 2.109 (Simulation time: 05 hr 35 min 48 sec)
Heartbeat CPU 2 instructions: 1420000001 cycles: 658985443 heartbeat IPC: 2.102 cumulative IPC: 2.106 (Simulation time: 05 hr 36 min 33 sec)
Heartbeat CPU 0 instructions: 1410000000 cycles: 661781691 heartbeat IPC: 2.248 cumulative IPC: 2.11 (Simulation time: 05 hr 37 min 48 sec)
Heartbeat CPU 2 instructions: 1430000002 cycles: 663607549 heartbeat IPC: 2.164 cumulative IPC: 2.107 (Simulation time: 05 hr 38 min 37 sec)
Heartbeat CPU 0 instructions: 1420000001 cycles: 666243080 heartbeat IPC: 2.241 cumulative IPC: 2.111 (Simulation time: 05 hr 39 min 45 sec)
Heartbeat CPU 2 instructions: 1440000000 cycles: 668318522 heartbeat IPC: 2.123 cumulative IPC: 2.107 (Simulation time: 05 hr 40 min 41 sec)
Heartbeat CPU 0 instructions: 1430000003 cycles: 671037591 heartbeat IPC: 2.086 cumulative IPC: 2.111 (Simulation time: 05 hr 41 min 58 sec)
Heartbeat CPU 2 instructions: 1450000001 cycles: 673115558 heartbeat IPC: 2.085 cumulative IPC: 2.107 (Simulation time: 05 hr 42 min 53 sec)
Heartbeat CPU 0 instructions: 1440000002 cycles: 676150536 heartbeat IPC: 1.956 cumulative IPC: 2.11 (Simulation time: 05 hr 44 min 17 sec)
Heartbeat CPU 2 instructions: 1460000004 cycles: 677754380 heartbeat IPC: 2.156 cumulative IPC: 2.107 (Simulation time: 05 hr 45 min 01 sec)
Heartbeat CPU 0 instructions: 1450000002 cycles: 680940638 heartbeat IPC: 2.088 cumulative IPC: 2.109 (Simulation time: 05 hr 46 min 24 sec)
Heartbeat CPU 2 instructions: 1470000004 cycles: 682385858 heartbeat IPC: 2.159 cumulative IPC: 2.107 (Simulation time: 05 hr 47 min 05 sec)
Heartbeat CPU 0 instructions: 1460000000 cycles: 685519221 heartbeat IPC: 2.184 cumulative IPC: 2.11 (Simulation time: 05 hr 48 min 29 sec)
Heartbeat CPU 2 instructions: 1480000001 cycles: 687084675 heartbeat IPC: 2.128 cumulative IPC: 2.107 (Simulation time: 05 hr 49 min 12 sec)
Heartbeat CPU 0 instructions: 1470000003 cycles: 690555314 heartbeat IPC: 1.986 cumulative IPC: 2.109 (Simulation time: 05 hr 50 min 40 sec)
Heartbeat CPU 2 instructions: 1490000000 cycles: 691715028 heartbeat IPC: 2.16 cumulative IPC: 2.108 (Simulation time: 05 hr 51 min 11 sec)
Heartbeat CPU 0 instructions: 1480000001 cycles: 695932764 heartbeat IPC: 1.86 cumulative IPC: 2.107 (Simulation time: 05 hr 53 min 08 sec)
Heartbeat CPU 2 instructions: 1500000003 cycles: 696308427 heartbeat IPC: 2.177 cumulative IPC: 2.108 (Simulation time: 05 hr 53 min 20 sec)
Heartbeat CPU 3 instructions: 520000003 cycles: 700342111 heartbeat IPC: 0.1337 cumulative IPC: 0.6637 (Simulation time: 05 hr 55 min 20 sec)
Heartbeat CPU 0 instructions: 1490000001 cycles: 700507120 heartbeat IPC: 2.186 cumulative IPC: 2.107 (Simulation time: 05 hr 55 min 26 sec)
Heartbeat CPU 2 instructions: 1510000002 cycles: 700940014 heartbeat IPC: 2.159 cumulative IPC: 2.109 (Simulation time: 05 hr 55 min 37 sec)
Heartbeat CPU 0 instructions: 1500000001 cycles: 704800211 heartbeat IPC: 2.329 cumulative IPC: 2.109 (Simulation time: 05 hr 57 min 39 sec)
Heartbeat CPU 2 instructions: 1520000003 cycles: 705519727 heartbeat IPC: 2.184 cumulative IPC: 2.109 (Simulation time: 05 hr 58 min 05 sec)
Heartbeat CPU 1 instructions: 150000001 cycles: 706210358 heartbeat IPC: 0.1113 cumulative IPC: 0.1358 (Simulation time: 05 hr 58 min 27 sec)
Heartbeat CPU 3 instructions: 530000003 cycles: 706334249 heartbeat IPC: 1.669 cumulative IPC: 0.6724 (Simulation time: 05 hr 58 min 30 sec)
Heartbeat CPU 0 instructions: 1510000002 cycles: 708978862 heartbeat IPC: 2.393 cumulative IPC: 2.111 (Simulation time: 05 hr 59 min 50 sec)
Heartbeat CPU 2 instructions: 1530000002 cycles: 710063644 heartbeat IPC: 2.201 cumulative IPC: 2.11 (Simulation time: 06 hr 00 min 24 sec)
Heartbeat CPU 3 instructions: 540000004 cycles: 710451674 heartbeat IPC: 2.429 cumulative IPC: 0.6829 (Simulation time: 06 hr 00 min 36 sec)
Heartbeat CPU 0 instructions: 1520000002 cycles: 713288755 heartbeat IPC: 2.32 cumulative IPC: 2.112 (Simulation time: 06 hr 02 min 05 sec)
Heartbeat CPU 2 instructions: 1540000001 cycles: 714560018 heartbeat IPC: 2.224 cumulative IPC: 2.11 (Simulation time: 06 hr 02 min 47 sec)
Heartbeat CPU 3 instructions: 550000001 cycles: 714936590 heartbeat IPC: 2.23 cumulative IPC: 0.6928 (Simulation time: 06 hr 02 min 57 sec)
Heartbeat CPU 0 instructions: 1530000001 cycles: 718068899 heartbeat IPC: 2.092 cumulative IPC: 2.112 (Simulation time: 06 hr 04 min 36 sec)
Heartbeat CPU 2 instructions: 1550000003 cycles: 719129518 heartbeat IPC: 2.188 cumulative IPC: 2.111 (Simulation time: 06 hr 05 min 07 sec)
Heartbeat CPU 3 instructions: 560000000 cycles: 719920605 heartbeat IPC: 2.006 cumulative IPC: 0.7021 (Simulation time: 06 hr 05 min 30 sec)
Heartbeat CPU 0 instructions: 1540000002 cycles: 722343553 heartbeat IPC: 2.339 cumulative IPC: 2.113 (Simulation time: 06 hr 06 min 43 sec)
Heartbeat CPU 2 instructions: 1560000002 cycles: 723596603 heartbeat IPC: 2.239 cumulative IPC: 2.112 (Simulation time: 06 hr 07 min 20 sec)
Heartbeat CPU 3 instructions: 570000004 cycles: 726292335 heartbeat IPC: 1.569 cumulative IPC: 0.7099 (Simulation time: 06 hr 08 min 37 sec)
Heartbeat CPU 0 instructions: 1550000004 cycles: 726699341 heartbeat IPC: 2.296 cumulative IPC: 2.114 (Simulation time: 06 hr 08 min 47 sec)
Heartbeat CPU 2 instructions: 1570000002 cycles: 728045246 heartbeat IPC: 2.248 cumulative IPC: 2.113 (Simulation time: 06 hr 09 min 25 sec)
Heartbeat CPU 0 instructions: 1560000002 cycles: 731151983 heartbeat IPC: 2.246 cumulative IPC: 2.115 (Simulation time: 06 hr 10 min 49 sec)
Heartbeat CPU 2 instructions: 1580000000 cycles: 732521831 heartbeat IPC: 2.234 cumulative IPC: 2.113 (Simulation time: 06 hr 11 min 26 sec)
Heartbeat CPU 3 instructions: 580000004 cycles: 732669642 heartbeat IPC: 1.568 cumulative IPC: 0.7176 (Simulation time: 06 hr 11 min 29 sec)
Heartbeat CPU 0 instructions: 1570000002 cycles: 735782985 heartbeat IPC: 2.159 cumulative IPC: 2.115 (Simulation time: 06 hr 13 min 08 sec)
Heartbeat CPU 2 instructions: 1590000000 cycles: 736991138 heartbeat IPC: 2.237 cumulative IPC: 2.114 (Simulation time: 06 hr 13 min 41 sec)
Heartbeat CPU 3 instructions: 590000000 cycles: 739437886 heartbeat IPC: 1.477 cumulative IPC: 0.7247 (Simulation time: 06 hr 14 min 46 sec)
Heartbeat CPU 0 instructions: 1580000000 cycles: 741433479 heartbeat IPC: 1.77 cumulative IPC: 2.113 (Simulation time: 06 hr 15 min 43 sec)
Heartbeat CPU 2 instructions: 1600000003 cycles: 741487983 heartbeat IPC: 2.224 cumulative IPC: 2.115 (Simulation time: 06 hr 15 min 45 sec)
Heartbeat CPU 3 instructions: 600000003 cycles: 744244395 heartbeat IPC: 2.081 cumulative IPC: 0.7337 (Simulation time: 06 hr 17 min 19 sec)
Heartbeat CPU 0 instructions: 1590000003 cycles: 745286760 heartbeat IPC: 2.595 cumulative IPC: 2.115 (Simulation time: 06 hr 17 min 57 sec)
Heartbeat CPU 2 instructions: 1610000001 cycles: 746035615 heartbeat IPC: 2.199 cumulative IPC: 2.115 (Simulation time: 06 hr 18 min 18 sec)
Heartbeat CPU 0 instructions: 1600000003 cycles: 749355582 heartbeat IPC: 2.458 cumulative IPC: 2.117 (Simulation time: 06 hr 19 min 39 sec)
Heartbeat CPU 2 instructions: 1620000004 cycles: 750470270 heartbeat IPC: 2.255 cumulative IPC: 2.116 (Simulation time: 06 hr 20 min 09 sec)
Heartbeat CPU 0 instructions: 1610000000 cycles: 753612836 heartbeat IPC: 2.349 cumulative IPC: 2.118 (Simulation time: 06 hr 21 min 36 sec)
Heartbeat CPU 2 instructions: 1630000000 cycles: 755037514 heartbeat IPC: 2.19 cumulative IPC: 2.117 (Simulation time: 06 hr 22 min 15 sec)
Heartbeat CPU 0 instructions: 1620000003 cycles: 758201341 heartbeat IPC: 2.179 cumulative IPC: 2.119 (Simulation time: 06 hr 23 min 45 sec)
Heartbeat CPU 2 instructions: 1640000001 cycles: 759578644 heartbeat IPC: 2.202 cumulative IPC: 2.117 (Simulation time: 06 hr 24 min 26 sec)
Heartbeat CPU 0 instructions: 1630000001 cycles: 763345371 heartbeat IPC: 1.944 cumulative IPC: 2.118 (Simulation time: 06 hr 26 min 05 sec)
Heartbeat CPU 1 instructions: 160000002 cycles: 763601923 heartbeat IPC: 0.1742 cumulative IPC: 0.1388 (Simulation time: 06 hr 26 min 13 sec)
Heartbeat CPU 2 instructions: 1650000001 cycles: 764214947 heartbeat IPC: 2.157 cumulative IPC: 2.117 (Simulation time: 06 hr 26 min 28 sec)
Heartbeat CPU 3 instructions: 610000003 cycles: 764219248 heartbeat IPC: 0.5006 cumulative IPC: 0.7274 (Simulation time: 06 hr 26 min 28 sec)
Heartbeat CPU 0 instructions: 1640000000 cycles: 768004053 heartbeat IPC: 2.147 cumulative IPC: 2.118 (Simulation time: 06 hr 28 min 05 sec)
Heartbeat CPU 2 instructions: 1660000004 cycles: 768726420 heartbeat IPC: 2.217 cumulative IPC: 2.118 (Simulation time: 06 hr 28 min 26 sec)
Heartbeat CPU 2 instructions: 1670000004 cycles: 773383476 heartbeat IPC: 2.147 cumulative IPC: 2.118 (Simulation time: 06 hr 30 min 16 sec)
Heartbeat CPU 0 instructions: 1650000000 cycles: 774806236 heartbeat IPC: 1.47 cumulative IPC: 2.112 (Simulation time: 06 hr 30 min 53 sec)
Heartbeat CPU 2 instructions: 1680000000 cycles: 778196464 heartbeat IPC: 2.078 cumulative IPC: 2.118 (Simulation time: 06 hr 32 min 09 sec)
Heartbeat CPU 0 instructions: 1660000003 cycles: 781705366 heartbeat IPC: 1.449 cumulative IPC: 2.106 (Simulation time: 06 hr 33 min 36 sec)
Heartbeat CPU 2 instructions: 1690000003 cycles: 782956136 heartbeat IPC: 2.101 cumulative IPC: 2.118 (Simulation time: 06 hr 34 min 06 sec)
Heartbeat CPU 0 instructions: 1670000000 cycles: 786804709 heartbeat IPC: 1.961 cumulative IPC: 2.105 (Simulation time: 06 hr 35 min 48 sec)
Heartbeat CPU 2 instructions: 1700000002 cycles: 787607544 heartbeat IPC: 2.15 cumulative IPC: 2.118 (Simulation time: 06 hr 36 min 08 sec)
Heartbeat CPU 0 instructions: 1680000003 cycles: 791629651 heartbeat IPC: 2.073 cumulative IPC: 2.105 (Simulation time: 06 hr 37 min 48 sec)
Heartbeat CPU 2 instructions: 1710000000 cycles: 792323198 heartbeat IPC: 2.121 cumulative IPC: 2.118 (Simulation time: 06 hr 38 min 05 sec)
Heartbeat CPU 0 instructions: 1690000002 cycles: 796199680 heartbeat IPC: 2.188 cumulative IPC: 2.105 (Simulation time: 06 hr 39 min 42 sec)
Heartbeat CPU 2 instructions: 1720000002 cycles: 797024227 heartbeat IPC: 2.127 cumulative IPC: 2.118 (Simulation time: 06 hr 40 min 01 sec)
Heartbeat CPU 0 instructions: 1700000004 cycles: 801012986 heartbeat IPC: 2.078 cumulative IPC: 2.105 (Simulation time: 06 hr 41 min 44 sec)
Heartbeat CPU 2 instructions: 1730000001 cycles: 801547374 heartbeat IPC: 2.211 cumulative IPC: 2.119 (Simulation time: 06 hr 41 min 57 sec)
Heartbeat CPU 0 instructions: 1710000002 cycles: 805768177 heartbeat IPC: 2.103 cumulative IPC: 2.105 (Simulation time: 06 hr 43 min 44 sec)
Heartbeat CPU 2 instructions: 1740000002 cycles: 806033590 heartbeat IPC: 2.229 cumulative IPC: 2.119 (Simulation time: 06 hr 43 min 51 sec)
Heartbeat CPU 2 instructions: 1750000001 cycles: 810322363 heartbeat IPC: 2.332 cumulative IPC: 2.12 (Simulation time: 06 hr 45 min 35 sec)
Heartbeat CPU 0 instructions: 1720000001 cycles: 810525200 heartbeat IPC: 2.102 cumulative IPC: 2.105 (Simulation time: 06 hr 45 min 41 sec)
Heartbeat CPU 2 instructions: 1760000003 cycles: 814589377 heartbeat IPC: 2.344 cumulative IPC: 2.122 (Simulation time: 06 hr 47 min 36 sec)
Heartbeat CPU 0 instructions: 1730000000 cycles: 815156921 heartbeat IPC: 2.159 cumulative IPC: 2.105 (Simulation time: 06 hr 47 min 50 sec)
Heartbeat CPU 2 instructions: 1770000001 cycles: 819027073 heartbeat IPC: 2.253 cumulative IPC: 2.122 (Simulation time: 06 hr 49 min 32 sec)
Heartbeat CPU 0 instructions: 1740000001 cycles: 819646798 heartbeat IPC: 2.227 cumulative IPC: 2.106 (Simulation time: 06 hr 49 min 54 sec)
Heartbeat CPU 2 instructions: 1780000001 cycles: 823233617 heartbeat IPC: 2.377 cumulative IPC: 2.124 (Simulation time: 06 hr 51 min 35 sec)
Heartbeat CPU 0 instructions: 1750000004 cycles: 824808665 heartbeat IPC: 1.937 cumulative IPC: 2.105 (Simulation time: 06 hr 52 min 17 sec)
Heartbeat CPU 2 instructions: 1790000004 cycles: 827489261 heartbeat IPC: 2.35 cumulative IPC: 2.125 (Simulation time: 06 hr 53 min 24 sec)
Heartbeat CPU 0 instructions: 1760000000 cycles: 830290022 heartbeat IPC: 1.824 cumulative IPC: 2.103 (Simulation time: 06 hr 54 min 32 sec)
Heartbeat CPU 2 instructions: 1800000003 cycles: 831798920 heartbeat IPC: 2.32 cumulative IPC: 2.126 (Simulation time: 06 hr 55 min 10 sec)
Heartbeat CPU 0 instructions: 1770000000 cycles: 834961799 heartbeat IPC: 2.141 cumulative IPC: 2.103 (Simulation time: 06 hr 56 min 34 sec)
Heartbeat CPU 2 instructions: 1810000002 cycles: 836210076 heartbeat IPC: 2.267 cumulative IPC: 2.127 (Simulation time: 06 hr 57 min 08 sec)
Heartbeat CPU 3 instructions: 620000003 cycles: 838724245 heartbeat IPC: 0.1342 cumulative IPC: 0.6736 (Simulation time: 06 hr 58 min 20 sec)
Heartbeat CPU 0 instructions: 1780000000 cycles: 839536492 heartbeat IPC: 2.186 cumulative IPC: 2.104 (Simulation time: 06 hr 58 min 40 sec)
Heartbeat CPU 2 instructions: 1820000002 cycles: 840434421 heartbeat IPC: 2.367 cumulative IPC: 2.128 (Simulation time: 06 hr 59 min 02 sec)
Heartbeat CPU 0 instructions: 1790000000 cycles: 844309094 heartbeat IPC: 2.095 cumulative IPC: 2.104 (Simulation time: 07 hr 00 min 52 sec)
Heartbeat CPU 3 instructions: 630000002 cycles: 844579778 heartbeat IPC: 1.708 cumulative IPC: 0.6809 (Simulation time: 07 hr 01 min 01 sec)
Heartbeat CPU 2 instructions: 1830000001 cycles: 844809317 heartbeat IPC: 2.286 cumulative IPC: 2.129 (Simulation time: 07 hr 01 min 07 sec)
Heartbeat CPU 3 instructions: 640000004 cycles: 848536428 heartbeat IPC: 2.527 cumulative IPC: 0.6897 (Simulation time: 07 hr 03 min 11 sec)
Heartbeat CPU 2 instructions: 1840000001 cycles: 849064553 heartbeat IPC: 2.35 cumulative IPC: 2.13 (Simulation time: 07 hr 03 min 27 sec)
Heartbeat CPU 0 instructions: 1800000004 cycles: 849085161 heartbeat IPC: 2.094 cumulative IPC: 2.104 (Simulation time: 07 hr 03 min 27 sec)
Heartbeat CPU 1 instructions: 170000004 cycles: 851167697 heartbeat IPC: 0.1142 cumulative IPC: 0.1362 (Simulation time: 07 hr 04 min 31 sec)
Heartbeat CPU 3 instructions: 650000000 cycles: 853248953 heartbeat IPC: 2.122 cumulative IPC: 0.6978 (Simulation time: 07 hr 05 min 32 sec)
Heartbeat CPU 2 instructions: 1850000001 cycles: 853312985 heartbeat IPC: 2.354 cumulative IPC: 2.131 (Simulation time: 07 hr 05 min 33 sec)
Heartbeat CPU 0 instructions: 1810000000 cycles: 854326434 heartbeat IPC: 1.908 cumulative IPC: 2.102 (Simulation time: 07 hr 06 min 02 sec)
Heartbeat CPU 2 instructions: 1860000001 cycles: 857582523 heartbeat IPC: 2.342 cumulative IPC: 2.132 (Simulation time: 07 hr 07 min 38 sec)
Heartbeat CPU 0 instructions: 1820000000 cycles: 859327257 heartbeat IPC: 2 cumulative IPC: 2.102 (Simulation time: 07 hr 08 min 32 sec)
Heartbeat CPU 3 instructions: 660000001 cycles: 859506318 heartbeat IPC: 1.598 cumulative IPC: 0.7045 (Simulation time: 07 hr 08 min 39 sec)
Heartbeat CPU 2 instructions: 1870000004 cycles: 861991287 heartbeat IPC: 2.268 cumulative IPC: 2.133 (Simulation time: 07 hr 09 min 58 sec)
Heartbeat CPU 0 instructions: 1830000001 cycles: 863325629 heartbeat IPC: 2.501 cumulative IPC: 2.104 (Simulation time: 07 hr 10 min 36 sec)
Heartbeat CPU 3 instructions: 670000000 cycles: 866139708 heartbeat IPC: 1.508 cumulative IPC: 0.7108 (Simulation time: 07 hr 12 min 03 sec)
Heartbeat CPU 2 instructions: 1880000003 cycles: 866288449 heartbeat IPC: 2.327 cumulative IPC: 2.134 (Simulation time: 07 hr 12 min 07 sec)
Heartbeat CPU 0 instructions: 1840000000 cycles: 867330521 heartbeat IPC: 2.497 cumulative IPC: 2.106 (Simulation time: 07 hr 12 min 37 sec)
Heartbeat CPU 2 instructions: 1890000000 cycles: 870834690 heartbeat IPC: 2.2 cumulative IPC: 2.134 (Simulation time: 07 hr 14 min 27 sec)
Heartbeat CPU 0 instructions: 1850000001 cycles: 871456339 heartbeat IPC: 2.424 cumulative IPC: 2.107 (Simulation time: 07 hr 14 min 45 sec)
Heartbeat CPU 3 instructions: 680000000 cycles: 872470574 heartbeat IPC: 1.58 cumulative IPC: 0.7172 (Simulation time: 07 hr 15 min 12 sec)
Heartbeat CPU 2 instructions: 1900000000 cycles: 875161829 heartbeat IPC: 2.311 cumulative IPC: 2.135 (Simulation time: 07 hr 16 min 31 sec)
Heartbeat CPU 0 instructions: 1860000003 cycles: 875591152 heartbeat IPC: 2.418 cumulative IPC: 2.109 (Simulation time: 07 hr 16 min 42 sec)
Heartbeat CPU 3 instructions: 690000000 cycles: 878364584 heartbeat IPC: 1.697 cumulative IPC: 0.7239 (Simulation time: 07 hr 18 min 04 sec)
Heartbeat CPU 0 instructions: 1870000000 cycles: 879993115 heartbeat IPC: 2.272 cumulative IPC: 2.109 (Simulation time: 07 hr 18 min 57 sec)
Heartbeat CPU 0 instructions: 1880000001 cycles: 884711496 heartbeat IPC: 2.119 cumulative IPC: 2.11 (Simulation time: 07 hr 20 min 58 sec)
Heartbeat CPU 2 instructions: 1910000002 cycles: 886062108 heartbeat IPC: 0.9174 cumulative IPC: 2.12 (Simulation time: 07 hr 21 min 34 sec)
Heartbeat CPU 0 instructions: 1890000003 cycles: 888730692 heartbeat IPC: 2.488 cumulative IPC: 2.111 (Simulation time: 07 hr 22 min 46 sec)
Heartbeat CPU 2 instructions: 1920000001 cycles: 890455301 heartbeat IPC: 2.276 cumulative IPC: 2.12 (Simulation time: 07 hr 23 min 35 sec)
Heartbeat CPU 0 instructions: 1900000000 cycles: 892775223 heartbeat IPC: 2.472 cumulative IPC: 2.113 (Simulation time: 07 hr 24 min 46 sec)
Heartbeat CPU 2 instructions: 1930000002 cycles: 894761352 heartbeat IPC: 2.322 cumulative IPC: 2.121 (Simulation time: 07 hr 25 min 39 sec)
Heartbeat CPU 0 instructions: 1910000002 cycles: 897735820 heartbeat IPC: 2.016 cumulative IPC: 2.112 (Simulation time: 07 hr 27 min 02 sec)
Heartbeat CPU 3 instructions: 700000000 cycles: 898022365 heartbeat IPC: 0.5087 cumulative IPC: 0.7191 (Simulation time: 07 hr 27 min 11 sec)
Heartbeat CPU 2 instructions: 1940000000 cycles: 899226571 heartbeat IPC: 2.24 cumulative IPC: 2.122 (Simulation time: 07 hr 27 min 48 sec)
Heartbeat CPU 0 instructions: 1920000000 cycles: 902629144 heartbeat IPC: 2.044 cumulative IPC: 2.112 (Simulation time: 07 hr 29 min 20 sec)
Heartbeat CPU 2 instructions: 1950000004 cycles: 903490295 heartbeat IPC: 2.345 cumulative IPC: 2.123 (Simulation time: 07 hr 29 min 46 sec)
Heartbeat CPU 0 instructions: 1930000003 cycles: 907601816 heartbeat IPC: 2.011 cumulative IPC: 2.111 (Simulation time: 07 hr 31 min 36 sec)
Heartbeat CPU 2 instructions: 1960000000 cycles: 907721260 heartbeat IPC: 2.364 cumulative IPC: 2.124 (Simulation time: 07 hr 31 min 39 sec)
Heartbeat CPU 2 instructions: 1970000004 cycles: 912123809 heartbeat IPC: 2.271 cumulative IPC: 2.125 (Simulation time: 07 hr 33 min 33 sec)
Heartbeat CPU 0 instructions: 1940000003 cycles: 913377209 heartbeat IPC: 1.731 cumulative IPC: 2.109 (Simulation time: 07 hr 34 min 02 sec)
Heartbeat CPU 2 instructions: 1980000000 cycles: 916375448 heartbeat IPC: 2.352 cumulative IPC: 2.126 (Simulation time: 07 hr 35 min 13 sec)
Heartbeat CPU 1 instructions: 180000002 cycles: 918065166 heartbeat IPC: 0.1495 cumulative IPC: 0.1372 (Simulation time: 07 hr 35 min 54 sec)
Heartbeat CPU 0 instructions: 1950000002 cycles: 919897201 heartbeat IPC: 1.534 cumulative IPC: 2.105 (Simulation time: 07 hr 36 min 39 sec)
Heartbeat CPU 2 instructions: 1990000002 cycles: 920633545 heartbeat IPC: 2.348 cumulative IPC: 2.127 (Simulation time: 07 hr 36 min 57 sec)
*** Reached end of trace: (2, "/home/das/dpc3_traces/603.bwaves_s-3699B.champsimtrace.xz")
Heartbeat CPU 2 instructions: 2000000001 cycles: 924920501 heartbeat IPC: 2.333 cumulative IPC: 2.128 (Simulation time: 07 hr 38 min 41 sec)
Heartbeat CPU 0 instructions: 1960000003 cycles: 927049465 heartbeat IPC: 1.398 cumulative IPC: 2.099 (Simulation time: 07 hr 39 min 31 sec)
Heartbeat CPU 2 instructions: 2010000004 cycles: 929248484 heartbeat IPC: 2.311 cumulative IPC: 2.129 (Simulation time: 07 hr 40 min 24 sec)
Heartbeat CPU 0 instructions: 1970000001 cycles: 933102377 heartbeat IPC: 1.652 cumulative IPC: 2.096 (Simulation time: 07 hr 41 min 58 sec)
Heartbeat CPU 2 instructions: 2020000004 cycles: 939647957 heartbeat IPC: 0.9616 cumulative IPC: 2.116 (Simulation time: 07 hr 44 min 25 sec)
Heartbeat CPU 0 instructions: 1980000002 cycles: 939913900 heartbeat IPC: 1.468 cumulative IPC: 2.092 (Simulation time: 07 hr 44 min 31 sec)
Heartbeat CPU 0 instructions: 1990000003 cycles: 946583812 heartbeat IPC: 1.499 cumulative IPC: 2.087 (Simulation time: 07 hr 47 min 06 sec)
Heartbeat CPU 2 instructions: 2030000000 cycles: 950702170 heartbeat IPC: 0.9046 cumulative IPC: 2.101 (Simulation time: 07 hr 48 min 47 sec)
*** Reached end of trace: (0, "/home/das/dpc3_traces/644.nab_s-5853B.champsimtrace.xz")
Heartbeat CPU 0 instructions: 2000000000 cycles: 951745021 heartbeat IPC: 1.938 cumulative IPC: 2.087 (Simulation time: 07 hr 49 min 17 sec)
Heartbeat CPU 2 instructions: 2040000001 cycles: 955171306 heartbeat IPC: 2.238 cumulative IPC: 2.102 (Simulation time: 07 hr 50 min 39 sec)
Heartbeat CPU 0 instructions: 2010000001 cycles: 957282937 heartbeat IPC: 1.806 cumulative IPC: 2.085 (Simulation time: 07 hr 51 min 31 sec)
Heartbeat CPU 2 instructions: 2050000002 cycles: 959601311 heartbeat IPC: 2.257 cumulative IPC: 2.103 (Simulation time: 07 hr 52 min 27 sec)
Heartbeat CPU 0 instructions: 2020000001 cycles: 961868685 heartbeat IPC: 2.181 cumulative IPC: 2.085 (Simulation time: 07 hr 53 min 27 sec)
Heartbeat CPU 2 instructions: 2060000001 cycles: 963906980 heartbeat IPC: 2.323 cumulative IPC: 2.104 (Simulation time: 07 hr 54 min 19 sec)
Heartbeat CPU 0 instructions: 2030000002 cycles: 966924542 heartbeat IPC: 1.978 cumulative IPC: 2.085 (Simulation time: 07 hr 55 min 35 sec)
Heartbeat CPU 2 instructions: 2070000003 cycles: 968308907 heartbeat IPC: 2.272 cumulative IPC: 2.105 (Simulation time: 07 hr 56 min 08 sec)
Heartbeat CPU 0 instructions: 2040000002 cycles: 972433106 heartbeat IPC: 1.815 cumulative IPC: 2.083 (Simulation time: 07 hr 57 min 51 sec)
Heartbeat CPU 2 instructions: 2080000002 cycles: 972573827 heartbeat IPC: 2.345 cumulative IPC: 2.106 (Simulation time: 07 hr 57 min 55 sec)
Heartbeat CPU 2 instructions: 2090000001 cycles: 976982857 heartbeat IPC: 2.268 cumulative IPC: 2.106 (Simulation time: 07 hr 59 min 56 sec)
Heartbeat CPU 3 instructions: 710000000 cycles: 977236513 heartbeat IPC: 0.1262 cumulative IPC: 0.6702 (Simulation time: 08 hr 00 min 06 sec)
Heartbeat CPU 0 instructions: 2050000003 cycles: 977309798 heartbeat IPC: 2.051 cumulative IPC: 2.083 (Simulation time: 08 hr 00 min 08 sec)
Heartbeat CPU 2 instructions: 2100000004 cycles: 981382266 heartbeat IPC: 2.273 cumulative IPC: 2.107 (Simulation time: 08 hr 02 min 08 sec)
Heartbeat CPU 0 instructions: 2060000000 cycles: 981707057 heartbeat IPC: 2.274 cumulative IPC: 2.084 (Simulation time: 08 hr 02 min 19 sec)
Heartbeat CPU 3 instructions: 720000002 cycles: 983522032 heartbeat IPC: 1.591 cumulative IPC: 0.6762 (Simulation time: 08 hr 03 min 13 sec)
Heartbeat CPU 2 instructions: 2110000000 cycles: 986028769 heartbeat IPC: 2.152 cumulative IPC: 2.107 (Simulation time: 08 hr 04 min 30 sec)
Heartbeat CPU 0 instructions: 2070000003 cycles: 986170421 heartbeat IPC: 2.24 cumulative IPC: 2.085 (Simulation time: 08 hr 04 min 35 sec)
Heartbeat CPU 3 instructions: 730000003 cycles: 987763105 heartbeat IPC: 2.358 cumulative IPC: 0.6835 (Simulation time: 08 hr 05 min 25 sec)
Heartbeat CPU 0 instructions: 2080000002 cycles: 990412325 heartbeat IPC: 2.357 cumulative IPC: 2.086 (Simulation time: 08 hr 06 min 52 sec)
Heartbeat CPU 2 instructions: 2120000000 cycles: 990443564 heartbeat IPC: 2.265 cumulative IPC: 2.108 (Simulation time: 08 hr 06 min 53 sec)
Heartbeat CPU 3 instructions: 740000000 cycles: 992638800 heartbeat IPC: 2.051 cumulative IPC: 0.6904 (Simulation time: 08 hr 07 min 53 sec)
Heartbeat CPU 0 instructions: 2090000003 cycles: 994887541 heartbeat IPC: 2.235 cumulative IPC: 2.087 (Simulation time: 08 hr 09 min 03 sec)
Heartbeat CPU 2 instructions: 2130000004 cycles: 995161687 heartbeat IPC: 2.119 cumulative IPC: 2.108 (Simulation time: 08 hr 09 min 10 sec)
Heartbeat CPU 3 instructions: 750000003 cycles: 998500374 heartbeat IPC: 1.706 cumulative IPC: 0.6964 (Simulation time: 08 hr 10 min 57 sec)
Heartbeat CPU 0 instructions: 2100000002 cycles: 998951441 heartbeat IPC: 2.461 cumulative IPC: 2.088 (Simulation time: 08 hr 11 min 13 sec)
Heartbeat CPU 2 instructions: 2140000004 cycles: 999678099 heartbeat IPC: 2.214 cumulative IPC: 2.109 (Simulation time: 08 hr 11 min 40 sec)
Heartbeat CPU 0 instructions: 2110000000 cycles: 1003086525 heartbeat IPC: 2.418 cumulative IPC: 2.09 (Simulation time: 08 hr 13 min 25 sec)
Heartbeat CPU 2 instructions: 2150000001 cycles: 1004162254 heartbeat IPC: 2.23 cumulative IPC: 2.109 (Simulation time: 08 hr 13 min 58 sec)
Heartbeat CPU 1 instructions: 190000003 cycles: 1004473111 heartbeat IPC: 0.1157 cumulative IPC: 0.1353 (Simulation time: 08 hr 14 min 08 sec)
Heartbeat CPU 3 instructions: 760000000 cycles: 1004551123 heartbeat IPC: 1.653 cumulative IPC: 0.7023 (Simulation time: 08 hr 14 min 09 sec)
Heartbeat CPU 0 instructions: 2120000002 cycles: 1007270167 heartbeat IPC: 2.39 cumulative IPC: 2.091 (Simulation time: 08 hr 15 min 34 sec)
Heartbeat CPU 2 instructions: 2160000000 cycles: 1008677073 heartbeat IPC: 2.215 cumulative IPC: 2.11 (Simulation time: 08 hr 16 min 21 sec)
Heartbeat CPU 3 instructions: 770000003 cycles: 1011219639 heartbeat IPC: 1.5 cumulative IPC: 0.7076 (Simulation time: 08 hr 17 min 34 sec)
Heartbeat CPU 0 instructions: 2130000000 cycles: 1011413537 heartbeat IPC: 2.413 cumulative IPC: 2.092 (Simulation time: 08 hr 17 min 40 sec)
Heartbeat CPU 2 instructions: 2170000000 cycles: 1013216537 heartbeat IPC: 2.203 cumulative IPC: 2.11 (Simulation time: 08 hr 18 min 37 sec)
Heartbeat CPU 0 instructions: 2140000000 cycles: 1015282081 heartbeat IPC: 2.585 cumulative IPC: 2.094 (Simulation time: 08 hr 19 min 39 sec)
Heartbeat CPU 3 instructions: 780000001 cycles: 1016605393 heartbeat IPC: 1.857 cumulative IPC: 0.7138 (Simulation time: 08 hr 20 min 17 sec)
Heartbeat CPU 2 instructions: 2180000002 cycles: 1017777893 heartbeat IPC: 2.192 cumulative IPC: 2.111 (Simulation time: 08 hr 20 min 52 sec)
Heartbeat CPU 0 instructions: 2150000002 cycles: 1019220005 heartbeat IPC: 2.539 cumulative IPC: 2.096 (Simulation time: 08 hr 21 min 37 sec)
Heartbeat CPU 2 instructions: 2190000000 cycles: 1022311743 heartbeat IPC: 2.206 cumulative IPC: 2.111 (Simulation time: 08 hr 23 min 01 sec)
Heartbeat CPU 0 instructions: 2160000004 cycles: 1023298811 heartbeat IPC: 2.452 cumulative IPC: 2.097 (Simulation time: 08 hr 23 min 34 sec)
Heartbeat CPU 2 instructions: 2200000003 cycles: 1026780581 heartbeat IPC: 2.238 cumulative IPC: 2.111 (Simulation time: 08 hr 25 min 13 sec)
Heartbeat CPU 0 instructions: 2170000004 cycles: 1027318927 heartbeat IPC: 2.487 cumulative IPC: 2.099 (Simulation time: 08 hr 25 min 29 sec)
Heartbeat CPU 0 instructions: 2180000004 cycles: 1031379546 heartbeat IPC: 2.463 cumulative IPC: 2.1 (Simulation time: 08 hr 27 min 25 sec)
Heartbeat CPU 3 instructions: 790000003 cycles: 1031452294 heartbeat IPC: 0.6735 cumulative IPC: 0.7132 (Simulation time: 08 hr 27 min 27 sec)
Heartbeat CPU 2 instructions: 2210000000 cycles: 1031483565 heartbeat IPC: 2.126 cumulative IPC: 2.112 (Simulation time: 08 hr 27 min 28 sec)
Heartbeat CPU 0 instructions: 2190000000 cycles: 1035666344 heartbeat IPC: 2.333 cumulative IPC: 2.101 (Simulation time: 08 hr 29 min 27 sec)
Heartbeat CPU 2 instructions: 2220000001 cycles: 1036292892 heartbeat IPC: 2.079 cumulative IPC: 2.111 (Simulation time: 08 hr 29 min 45 sec)
Heartbeat CPU 0 instructions: 2200000003 cycles: 1039642218 heartbeat IPC: 2.515 cumulative IPC: 2.103 (Simulation time: 08 hr 31 min 21 sec)
Heartbeat CPU 2 instructions: 2230000004 cycles: 1040882992 heartbeat IPC: 2.179 cumulative IPC: 2.112 (Simulation time: 08 hr 31 min 55 sec)
Heartbeat CPU 0 instructions: 2210000001 cycles: 1043679140 heartbeat IPC: 2.477 cumulative IPC: 2.104 (Simulation time: 08 hr 33 min 21 sec)
Heartbeat CPU 2 instructions: 2240000000 cycles: 1045601049 heartbeat IPC: 2.12 cumulative IPC: 2.112 (Simulation time: 08 hr 34 min 17 sec)
Heartbeat CPU 0 instructions: 2220000004 cycles: 1048280995 heartbeat IPC: 2.173 cumulative IPC: 2.105 (Simulation time: 08 hr 35 min 26 sec)
Heartbeat CPU 2 instructions: 2250000004 cycles: 1050390861 heartbeat IPC: 2.088 cumulative IPC: 2.112 (Simulation time: 08 hr 36 min 19 sec)
Heartbeat CPU 0 instructions: 2230000001 cycles: 1052701760 heartbeat IPC: 2.262 cumulative IPC: 2.105 (Simulation time: 08 hr 37 min 25 sec)
Heartbeat CPU 2 instructions: 2260000000 cycles: 1055027139 heartbeat IPC: 2.157 cumulative IPC: 2.112 (Simulation time: 08 hr 38 min 32 sec)
Heartbeat CPU 0 instructions: 2240000000 cycles: 1057464950 heartbeat IPC: 2.099 cumulative IPC: 2.105 (Simulation time: 08 hr 39 min 41 sec)
Heartbeat CPU 2 instructions: 2270000002 cycles: 1059895223 heartbeat IPC: 2.054 cumulative IPC: 2.112 (Simulation time: 08 hr 40 min 55 sec)
[...]
cpu2_L1I WRITE        ACCESS:          0 HIT:          0 MISS:          0
cpu2_L1I TRANSLATION  ACCESS:          0 HIT:          0 MISS:          0
cpu2_L1I PREFETCH REQUESTED:          0 ISSUED:          0 USEFUL:          0 USELESS:          0
cpu2_L1I AVERAGE MISS LATENCY: -nan cycles
cpu2_L1I TOTAL        ACCESS:          0 HIT:          0 MISS:          0
cpu2_L1I LOAD         ACCESS:          0 HIT:          0 MISS:          0
cpu2_L1I RFO          ACCESS:          0 HIT:          0 MISS:          0
cpu2_L1I PREFETCH     ACCESS:          0 HIT:          0 MISS:          0
cpu2_L1I WRITE        ACCESS:          0 HIT:          0 MISS:          0
cpu2_L1I TRANSLATION  ACCESS:          0 HIT:          0 MISS:          0
cpu2_L1I PREFETCH REQUESTED:          0 ISSUED:          0 USEFUL:          0 USELESS:          0
cpu2_L1I AVERAGE MISS LATENCY: -nan cycles
cpu2_L2C TOTAL        ACCESS:          0 HIT:          0 MISS:          0
cpu2_L2C LOAD         ACCESS:          0 HIT:          0 MISS:          0
cpu2_L2C RFO          ACCESS:          0 HIT:          0 MISS:          0
cpu2_L2C PREFETCH     ACCESS:          0 HIT:          0 MISS:          0
cpu2_L2C WRITE        ACCESS:          0 HIT:          0 MISS:          0
cpu2_L2C TRANSLATION  ACCESS:          0 HIT:          0 MISS:          0
cpu2_L2C PREFETCH REQUESTED:     388262 ISSUED:     388207 USEFUL:      31135 USELESS:         24
cpu2_L2C AVERAGE MISS LATENCY: 2939 cycles
cpu2_L2C TOTAL        ACCESS:          0 HIT:          0 MISS:          0
cpu2_L2C LOAD         ACCESS:          0 HIT:          0 MISS:          0
cpu2_L2C RFO          ACCESS:          0 HIT:          0 MISS:          0
cpu2_L2C PREFETCH     ACCESS:          0 HIT:          0 MISS:          0
cpu2_L2C WRITE        ACCESS:          0 HIT:          0 MISS:          0
cpu2_L2C TRANSLATION  ACCESS:          0 HIT:          0 MISS:          0
cpu2_L2C PREFETCH REQUESTED:     388262 ISSUED:     388207 USEFUL:      31135 USELESS:         24
cpu2_L2C AVERAGE MISS LATENCY: 2939 cycles
cpu2_L2C TOTAL        ACCESS:      44700 HIT:      14623 MISS:      30077
cpu2_L2C LOAD         ACCESS:       2789 HIT:       1204 MISS:       1585
cpu2_L2C RFO          ACCESS:      13145 HIT:        113 MISS:      13032
cpu2_L2C PREFETCH     ACCESS:      15604 HIT:        170 MISS:      15434
cpu2_L2C WRITE        ACCESS:      13140 HIT:      13116 MISS:         24
cpu2_L2C TRANSLATION  ACCESS:         22 HIT:         20 MISS:          2
cpu2_L2C PREFETCH REQUESTED:     388262 ISSUED:     388207 USEFUL:      31135 USELESS:         24
cpu2_L2C AVERAGE MISS LATENCY: 2939 cycles
cpu2_L2C TOTAL        ACCESS:          0 HIT:          0 MISS:          0
cpu2_L2C LOAD         ACCESS:          0 HIT:          0 MISS:          0
cpu2_L2C RFO          ACCESS:          0 HIT:          0 MISS:          0
cpu2_L2C PREFETCH     ACCESS:          0 HIT:          0 MISS:          0
cpu2_L2C WRITE        ACCESS:          0 HIT:          0 MISS:          0
cpu2_L2C TRANSLATION  ACCESS:          0 HIT:          0 MISS:          0
cpu2_L2C PREFETCH REQUESTED:     388262 ISSUED:     388207 USEFUL:      31135 USELESS:         24
cpu2_L2C AVERAGE MISS LATENCY: 2939 cycles
cpu2_STLB TOTAL        ACCESS:          0 HIT:          0 MISS:          0
cpu2_STLB LOAD         ACCESS:          0 HIT:          0 MISS:          0
cpu2_STLB RFO          ACCESS:          0 HIT:          0 MISS:          0
cpu2_STLB PREFETCH     ACCESS:          0 HIT:          0 MISS:          0
cpu2_STLB WRITE        ACCESS:          0 HIT:          0 MISS:          0
cpu2_STLB TRANSLATION  ACCESS:          0 HIT:          0 MISS:          0
cpu2_STLB PREFETCH REQUESTED:          0 ISSUED:          0 USEFUL:          0 USELESS:          0
cpu2_STLB AVERAGE MISS LATENCY: 201.8 cycles
cpu2_STLB TOTAL        ACCESS:          0 HIT:          0 MISS:          0
cpu2_STLB LOAD         ACCESS:          0 HIT:          0 MISS:          0
cpu2_STLB RFO          ACCESS:          0 HIT:          0 MISS:          0
cpu2_STLB PREFETCH     ACCESS:          0 HIT:          0 MISS:          0
cpu2_STLB WRITE        ACCESS:          0 HIT:          0 MISS:          0
cpu2_STLB TRANSLATION  ACCESS:          0 HIT:          0 MISS:          0
cpu2_STLB PREFETCH REQUESTED:          0 ISSUED:          0 USEFUL:          0 USELESS:          0
cpu2_STLB AVERAGE MISS LATENCY: 201.8 cycles
cpu2_STLB TOTAL        ACCESS:        249 HIT:          4 MISS:        245
cpu2_STLB LOAD         ACCESS:        249 HIT:          4 MISS:        245
cpu2_STLB RFO          ACCESS:          0 HIT:          0 MISS:          0
cpu2_STLB PREFETCH     ACCESS:          0 HIT:          0 MISS:          0
cpu2_STLB WRITE        ACCESS:          0 HIT:          0 MISS:          0
cpu2_STLB TRANSLATION  ACCESS:          0 HIT:          0 MISS:          0
cpu2_STLB PREFETCH REQUESTED:          0 ISSUED:          0 USEFUL:          0 USELESS:          0
cpu2_STLB AVERAGE MISS LATENCY: 201.8 cycles
cpu2_STLB TOTAL        ACCESS:          0 HIT:          0 MISS:          0
cpu2_STLB LOAD         ACCESS:          0 HIT:          0 MISS:          0
cpu2_STLB RFO          ACCESS:          0 HIT:          0 MISS:          0
cpu2_STLB PREFETCH     ACCESS:          0 HIT:          0 MISS:          0
cpu2_STLB WRITE        ACCESS:          0 HIT:          0 MISS:          0
cpu2_STLB TRANSLATION  ACCESS:          0 HIT:          0 MISS:          0
cpu2_STLB PREFETCH REQUESTED:          0 ISSUED:          0 USEFUL:          0 USELESS:          0
cpu2_STLB AVERAGE MISS LATENCY: 201.8 cycles
cpu3_DTLB TOTAL        ACCESS:          0 HIT:          0 MISS:          0
cpu3_DTLB LOAD         ACCESS:          0 HIT:          0 MISS:          0
cpu3_DTLB RFO          ACCESS:          0 HIT:          0 MISS:          0
cpu3_DTLB PREFETCH     ACCESS:          0 HIT:          0 MISS:          0
cpu3_DTLB WRITE        ACCESS:          0 HIT:          0 MISS:          0
cpu3_DTLB TRANSLATION  ACCESS:          0 HIT:          0 MISS:          0
cpu3_DTLB PREFETCH REQUESTED:          0 ISSUED:          0 USEFUL:          0 USELESS:          0
cpu3_DTLB AVERAGE MISS LATENCY: 29.21 cycles
cpu3_DTLB TOTAL        ACCESS:          0 HIT:          0 MISS:          0
cpu3_DTLB LOAD         ACCESS:          0 HIT:          0 MISS:          0
cpu3_DTLB RFO          ACCESS:          0 HIT:          0 MISS:          0
cpu3_DTLB PREFETCH     ACCESS:          0 HIT:          0 MISS:          0
cpu3_DTLB WRITE        ACCESS:          0 HIT:          0 MISS:          0
cpu3_DTLB TRANSLATION  ACCESS:          0 HIT:          0 MISS:          0
cpu3_DTLB PREFETCH REQUESTED:          0 ISSUED:          0 USEFUL:          0 USELESS:          0
cpu3_DTLB AVERAGE MISS LATENCY: 29.21 cycles
cpu3_DTLB TOTAL        ACCESS:          0 HIT:          0 MISS:          0
cpu3_DTLB LOAD         ACCESS:          0 HIT:          0 MISS:          0
cpu3_DTLB RFO          ACCESS:          0 HIT:          0 MISS:          0
cpu3_DTLB PREFETCH     ACCESS:          0 HIT:          0 MISS:          0
cpu3_DTLB WRITE        ACCESS:          0 HIT:          0 MISS:          0
cpu3_DTLB TRANSLATION  ACCESS:          0 HIT:          0 MISS:          0
cpu3_DTLB PREFETCH REQUESTED:          0 ISSUED:          0 USEFUL:          0 USELESS:          0
cpu3_DTLB AVERAGE MISS LATENCY: 29.21 cycles
cpu3_DTLB TOTAL        ACCESS:   22393531 HIT:   22101611 MISS:     291920
cpu3_DTLB LOAD         ACCESS:   22393531 HIT:   22101611 MISS:     291920
cpu3_DTLB RFO          ACCESS:          0 HIT:          0 MISS:          0
cpu3_DTLB PREFETCH     ACCESS:          0 HIT:          0 MISS:          0
cpu3_DTLB WRITE        ACCESS:          0 HIT:          0 MISS:          0
cpu3_DTLB TRANSLATION  ACCESS:          0 HIT:          0 MISS:          0
cpu3_DTLB PREFETCH REQUESTED:          0 ISSUED:          0 USEFUL:          0 USELESS:          0
cpu3_DTLB AVERAGE MISS LATENCY: 29.21 cycles
cpu3_ITLB TOTAL        ACCESS:          0 HIT:          0 MISS:          0
cpu3_ITLB LOAD         ACCESS:          0 HIT:          0 MISS:          0
cpu3_ITLB RFO          ACCESS:          0 HIT:          0 MISS:          0
cpu3_ITLB PREFETCH     ACCESS:          0 HIT:          0 MISS:          0
cpu3_ITLB WRITE        ACCESS:          0 HIT:          0 MISS:          0
cpu3_ITLB TRANSLATION  ACCESS:          0 HIT:          0 MISS:          0
cpu3_ITLB PREFETCH REQUESTED:          0 ISSUED:          0 USEFUL:          0 USELESS:          0
cpu3_ITLB AVERAGE MISS LATENCY: 232 cycles
cpu3_ITLB TOTAL        ACCESS:          0 HIT:          0 MISS:          0
cpu3_ITLB LOAD         ACCESS:          0 HIT:          0 MISS:          0
cpu3_ITLB RFO          ACCESS:          0 HIT:          0 MISS:          0
cpu3_ITLB PREFETCH     ACCESS:          0 HIT:          0 MISS:          0
cpu3_ITLB WRITE        ACCESS:          0 HIT:          0 MISS:          0
cpu3_ITLB TRANSLATION  ACCESS:          0 HIT:          0 MISS:          0
cpu3_ITLB PREFETCH REQUESTED:          0 ISSUED:          0 USEFUL:          0 USELESS:          0
cpu3_ITLB AVERAGE MISS LATENCY: 232 cycles
cpu3_ITLB TOTAL        ACCESS:          0 HIT:          0 MISS:          0
cpu3_ITLB LOAD         ACCESS:          0 HIT:          0 MISS:          0
cpu3_ITLB RFO          ACCESS:          0 HIT:          0 MISS:          0
cpu3_ITLB PREFETCH     ACCESS:          0 HIT:          0 MISS:          0
cpu3_ITLB WRITE        ACCESS:          0 HIT:          0 MISS:          0
cpu3_ITLB TRANSLATION  ACCESS:          0 HIT:          0 MISS:          0
cpu3_ITLB PREFETCH REQUESTED:          0 ISSUED:          0 USEFUL:          0 USELESS:          0
cpu3_ITLB AVERAGE MISS LATENCY: 232 cycles
cpu3_ITLB TOTAL        ACCESS:    2471556 HIT:    2467926 MISS:       3630
cpu3_ITLB LOAD         ACCESS:    2471556 HIT:    2467926 MISS:       3630
cpu3_ITLB RFO          ACCESS:          0 HIT:          0 MISS:          0
cpu3_ITLB PREFETCH     ACCESS:          0 HIT:          0 MISS:          0
cpu3_ITLB WRITE        ACCESS:          0 HIT:          0 MISS:          0
cpu3_ITLB TRANSLATION  ACCESS:          0 HIT:          0 MISS:          0
cpu3_ITLB PREFETCH REQUESTED:          0 ISSUED:          0 USEFUL:          0 USELESS:          0
cpu3_ITLB AVERAGE MISS LATENCY: 232 cycles
cpu3_L1D TOTAL        ACCESS:          0 HIT:          0 MISS:          0
cpu3_L1D LOAD         ACCESS:          0 HIT:          0 MISS:          0
cpu3_L1D RFO          ACCESS:          0 HIT:          0 MISS:          0
cpu3_L1D PREFETCH     ACCESS:          0 HIT:          0 MISS:          0
cpu3_L1D WRITE        ACCESS:          0 HIT:          0 MISS:          0
cpu3_L1D TRANSLATION  ACCESS:          0 HIT:          0 MISS:          0
cpu3_L1D PREFETCH REQUESTED:          0 ISSUED:          0 USEFUL:          0 USELESS:          0
cpu3_L1D AVERAGE MISS LATENCY: 880.7 cycles
cpu3_L1D TOTAL        ACCESS:          0 HIT:          0 MISS:          0
cpu3_L1D LOAD         ACCESS:          0 HIT:          0 MISS:          0
cpu3_L1D RFO          ACCESS:          0 HIT:          0 MISS:          0
cpu3_L1D PREFETCH     ACCESS:          0 HIT:          0 MISS:          0
cpu3_L1D WRITE        ACCESS:          0 HIT:          0 MISS:          0
cpu3_L1D TRANSLATION  ACCESS:          0 HIT:          0 MISS:          0
cpu3_L1D PREFETCH REQUESTED:          0 ISSUED:          0 USEFUL:          0 USELESS:          0
cpu3_L1D AVERAGE MISS LATENCY: 880.7 cycles
cpu3_L1D TOTAL        ACCESS:          0 HIT:          0 MISS:          0
cpu3_L1D LOAD         ACCESS:          0 HIT:          0 MISS:          0
cpu3_L1D RFO          ACCESS:          0 HIT:          0 MISS:          0
cpu3_L1D PREFETCH     ACCESS:          0 HIT:          0 MISS:          0
cpu3_L1D WRITE        ACCESS:          0 HIT:          0 MISS:          0
cpu3_L1D TRANSLATION  ACCESS:          0 HIT:          0 MISS:          0
cpu3_L1D PREFETCH REQUESTED:          0 ISSUED:          0 USEFUL:          0 USELESS:          0
cpu3_L1D AVERAGE MISS LATENCY: 880.7 cycles
cpu3_L1D TOTAL        ACCESS:   29666159 HIT:   24079696 MISS:    5586463
cpu3_L1D LOAD         ACCESS:   14463518 HIT:   13667936 MISS:     795582
cpu3_L1D RFO          ACCESS:          0 HIT:          0 MISS:          0
cpu3_L1D PREFETCH     ACCESS:          0 HIT:          0 MISS:          0
cpu3_L1D WRITE        ACCESS:   15183254 HIT:   10396563 MISS:    4786691
cpu3_L1D TRANSLATION  ACCESS:      19387 HIT:      15197 MISS:       4190
cpu3_L1D PREFETCH REQUESTED:          0 ISSUED:          0 USEFUL:          0 USELESS:          0
cpu3_L1D AVERAGE MISS LATENCY: 880.7 cycles
cpu3_L1I TOTAL        ACCESS:          0 HIT:          0 MISS:          0
cpu3_L1I LOAD         ACCESS:          0 HIT:          0 MISS:          0
cpu3_L1I RFO          ACCESS:          0 HIT:          0 MISS:          0
cpu3_L1I PREFETCH     ACCESS:          0 HIT:          0 MISS:          0
cpu3_L1I WRITE        ACCESS:          0 HIT:          0 MISS:          0
cpu3_L1I TRANSLATION  ACCESS:          0 HIT:          0 MISS:          0
cpu3_L1I PREFETCH REQUESTED:          0 ISSUED:          0 USEFUL:          0 USELESS:          0
cpu3_L1I AVERAGE MISS LATENCY: 230.5 cycles
cpu3_L1I TOTAL        ACCESS:          0 HIT:          0 MISS:          0
cpu3_L1I LOAD         ACCESS:          0 HIT:          0 MISS:          0
cpu3_L1I RFO          ACCESS:          0 HIT:          0 MISS:          0
cpu3_L1I PREFETCH     ACCESS:          0 HIT:          0 MISS:          0
cpu3_L1I WRITE        ACCESS:          0 HIT:          0 MISS:          0
cpu3_L1I TRANSLATION  ACCESS:          0 HIT:          0 MISS:          0
cpu3_L1I PREFETCH REQUESTED:          0 ISSUED:          0 USEFUL:          0 USELESS:          0
cpu3_L1I AVERAGE MISS LATENCY: 230.5 cycles
cpu3_L1I TOTAL        ACCESS:          0 HIT:          0 MISS:          0
cpu3_L1I LOAD         ACCESS:          0 HIT:          0 MISS:          0
cpu3_L1I RFO          ACCESS:          0 HIT:          0 MISS:          0
cpu3_L1I PREFETCH     ACCESS:          0 HIT:          0 MISS:          0
cpu3_L1I WRITE        ACCESS:          0 HIT:          0 MISS:          0
cpu3_L1I TRANSLATION  ACCESS:          0 HIT:          0 MISS:          0
cpu3_L1I PREFETCH REQUESTED:          0 ISSUED:          0 USEFUL:          0 USELESS:          0
cpu3_L1I AVERAGE MISS LATENCY: 230.5 cycles
cpu3_L1I TOTAL        ACCESS:    3131245 HIT:    3052303 MISS:      78942
cpu3_L1I LOAD         ACCESS:    3131245 HIT:    3052303 MISS:      78942
cpu3_L1I RFO          ACCESS:          0 HIT:          0 MISS:          0
cpu3_L1I PREFETCH     ACCESS:          0 HIT:          0 MISS:          0
cpu3_L1I WRITE        ACCESS:          0 HIT:          0 MISS:          0
cpu3_L1I TRANSLATION  ACCESS:          0 HIT:          0 MISS:          0
cpu3_L1I PREFETCH REQUESTED:          0 ISSUED:          0 USEFUL:          0 USELESS:          0
cpu3_L1I AVERAGE MISS LATENCY: 230.5 cycles
cpu3_L2C TOTAL        ACCESS:          0 HIT:          0 MISS:          0
cpu3_L2C LOAD         ACCESS:          0 HIT:          0 MISS:          0
cpu3_L2C RFO          ACCESS:          0 HIT:          0 MISS:          0
cpu3_L2C PREFETCH     ACCESS:          0 HIT:          0 MISS:          0
cpu3_L2C WRITE        ACCESS:          0 HIT:          0 MISS:          0
cpu3_L2C TRANSLATION  ACCESS:          0 HIT:          0 MISS:          0
cpu3_L2C PREFETCH REQUESTED:   11565140 ISSUED:    8170585 USEFUL:      56542 USELESS:       5258
cpu3_L2C AVERAGE MISS LATENCY: 3379 cycles
cpu3_L2C TOTAL        ACCESS:          0 HIT:          0 MISS:          0
cpu3_L2C LOAD         ACCESS:          0 HIT:          0 MISS:          0
cpu3_L2C RFO          ACCESS:          0 HIT:          0 MISS:          0
cpu3_L2C PREFETCH     ACCESS:          0 HIT:          0 MISS:          0
cpu3_L2C WRITE        ACCESS:          0 HIT:          0 MISS:          0
cpu3_L2C TRANSLATION  ACCESS:          0 HIT:          0 MISS:          0
cpu3_L2C PREFETCH REQUESTED:   11565140 ISSUED:    8170585 USEFUL:      56542 USELESS:       5258
cpu3_L2C AVERAGE MISS LATENCY: 3379 cycles
cpu3_L2C TOTAL        ACCESS:          0 HIT:          0 MISS:          0
cpu3_L2C LOAD         ACCESS:          0 HIT:          0 MISS:          0
cpu3_L2C RFO          ACCESS:          0 HIT:          0 MISS:          0
cpu3_L2C PREFETCH     ACCESS:          0 HIT:          0 MISS:          0
cpu3_L2C WRITE        ACCESS:          0 HIT:          0 MISS:          0
cpu3_L2C TRANSLATION  ACCESS:          0 HIT:          0 MISS:          0
cpu3_L2C PREFETCH REQUESTED:   11565140 ISSUED:    8170585 USEFUL:      56542 USELESS:       5258
cpu3_L2C AVERAGE MISS LATENCY: 3379 cycles
cpu3_L2C TOTAL        ACCESS:    4988648 HIT:    3532818 MISS:    1455830
cpu3_L2C LOAD         ACCESS:     597872 HIT:     484559 MISS:     113313
cpu3_L2C RFO          ACCESS:    1202704 HIT:     230090 MISS:     972614
cpu3_L2C PREFETCH     ACCESS:    1904909 HIT:    1538077 MISS:     366832
cpu3_L2C WRITE        ACCESS:    1279009 HIT:    1278969 MISS:         40
cpu3_L2C TRANSLATION  ACCESS:       4154 HIT:       1123 MISS:       3031
cpu3_L2C PREFETCH REQUESTED:   11565140 ISSUED:    8170585 USEFUL:      56542 USELESS:       5258
cpu3_L2C AVERAGE MISS LATENCY: 3379 cycles
cpu3_STLB TOTAL        ACCESS:          0 HIT:          0 MISS:          0
cpu3_STLB LOAD         ACCESS:          0 HIT:          0 MISS:          0
cpu3_STLB RFO          ACCESS:          0 HIT:          0 MISS:          0
cpu3_STLB PREFETCH     ACCESS:          0 HIT:          0 MISS:          0
cpu3_STLB WRITE        ACCESS:          0 HIT:          0 MISS:          0
cpu3_STLB TRANSLATION  ACCESS:          0 HIT:          0 MISS:          0
cpu3_STLB PREFETCH REQUESTED:          0 ISSUED:          0 USEFUL:          0 USELESS:          0
cpu3_STLB AVERAGE MISS LATENCY: 517.6 cycles
cpu3_STLB TOTAL        ACCESS:          0 HIT:          0 MISS:          0
cpu3_STLB LOAD         ACCESS:          0 HIT:          0 MISS:          0
cpu3_STLB RFO          ACCESS:          0 HIT:          0 MISS:          0
cpu3_STLB PREFETCH     ACCESS:          0 HIT:          0 MISS:          0
cpu3_STLB WRITE        ACCESS:          0 HIT:          0 MISS:          0
cpu3_STLB TRANSLATION  ACCESS:          0 HIT:          0 MISS:          0
cpu3_STLB PREFETCH REQUESTED:          0 ISSUED:          0 USEFUL:          0 USELESS:          0
cpu3_STLB AVERAGE MISS LATENCY: 517.6 cycles
cpu3_STLB TOTAL        ACCESS:          0 HIT:          0 MISS:          0
cpu3_STLB LOAD         ACCESS:          0 HIT:          0 MISS:          0
cpu3_STLB RFO          ACCESS:          0 HIT:          0 MISS:          0
cpu3_STLB PREFETCH     ACCESS:          0 HIT:          0 MISS:          0
cpu3_STLB WRITE        ACCESS:          0 HIT:          0 MISS:          0
cpu3_STLB TRANSLATION  ACCESS:          0 HIT:          0 MISS:          0
cpu3_STLB PREFETCH REQUESTED:          0 ISSUED:          0 USEFUL:          0 USELESS:          0
cpu3_STLB AVERAGE MISS LATENCY: 517.6 cycles
cpu3_STLB TOTAL        ACCESS:     102777 HIT:      83761 MISS:      19016
cpu3_STLB LOAD         ACCESS:     102777 HIT:      83761 MISS:      19016
cpu3_STLB RFO          ACCESS:          0 HIT:          0 MISS:          0
cpu3_STLB PREFETCH     ACCESS:          0 HIT:          0 MISS:          0
cpu3_STLB WRITE        ACCESS:          0 HIT:          0 MISS:          0
cpu3_STLB TRANSLATION  ACCESS:          0 HIT:          0 MISS:          0
cpu3_STLB PREFETCH REQUESTED:          0 ISSUED:          0 USEFUL:          0 USELESS:          0
cpu3_STLB AVERAGE MISS LATENCY: 517.6 cycles

DRAM Statistics

Channel 0 RQ ROW_BUFFER_HIT:    1790267
  ROW_BUFFER_MISS:   10687959
 AVG DBUS CONGESTED CYCLE: 3.995
WQ ROW_BUFFER_HIT: Channel 0 
  ROW_BUFFER_MISS:     402987
  FULL:    9217365
