WARNING: physical memory size is smaller than virtual memory size.
WARNING: option --warmup_instructions is deprecated. Use --warmup-instructions instead.
WARNING: option --simulation_instructions is deprecated. Use --simulation-instructions instead.

*** ChampSim Multicore Out-of-Order Simulator ***
Warmup Instructions: 50000000
Simulation Instructions: 150000000
Number of CPUs: 4
Page size: 4096

Initialize SIGNATURE TABLE
ST_SET: 1
ST_WAY: 256
ST_TAG_BIT: 16
ST_TAG_MASK: ffff

Initialize PATTERN TABLE
PT_SET: 512
PT_WAY: 4
SIG_DELTA_BIT: 7
C_SIG_BIT: 4
C_DELTA_BIT: 4

Initialize PREFETCH FILTER
FILTER_SET: 1024
Initialize SIGNATURE TABLE
ST_SET: 1
ST_WAY: 256
ST_TAG_BIT: 16
ST_TAG_MASK: ffff

Initialize PATTERN TABLE
PT_SET: 512
PT_WAY: 4
SIG_DELTA_BIT: 7
C_SIG_BIT: 4
C_DELTA_BIT: 4

Initialize PREFETCH FILTER
FILTER_SET: 1024
Initialize SIGNATURE TABLE
ST_SET: 1
ST_WAY: 256
ST_TAG_BIT: 16
ST_TAG_MASK: ffff

Initialize PATTERN TABLE
PT_SET: 512
PT_WAY: 4
SIG_DELTA_BIT: 7
C_SIG_BIT: 4
C_DELTA_BIT: 4

Initialize PREFETCH FILTER
FILTER_SET: 1024
Initialize SIGNATURE TABLE
ST_SET: 1
ST_WAY: 256
ST_TAG_BIT: 16
ST_TAG_MASK: ffff

Initialize PATTERN TABLE
PT_SET: 512
PT_WAY: 4
SIG_DELTA_BIT: 7
C_SIG_BIT: 4
C_DELTA_BIT: 4

Initialize PREFETCH FILTER
FILTER_SET: 1024
Off-chip DRAM Size: 4 GiB Channels: 1 Width: 64-bit Data Race: 3200 MT/s
Heartbeat CPU 1 instructions: 10000002 cycles: 2500044 heartbeat IPC: 4 cumulative IPC: 4 (Simulation time: 00 hr 02 min 41 sec)
Heartbeat CPU 3 instructions: 10000000 cycles: 2502906 heartbeat IPC: 3.995 cumulative IPC: 3.995 (Simulation time: 00 hr 02 min 41 sec)
Heartbeat CPU 2 instructions: 10000003 cycles: 3063277 heartbeat IPC: 3.264 cumulative IPC: 3.264 (Simulation time: 00 hr 03 min 14 sec)
Heartbeat CPU 0 instructions: 10000003 cycles: 3457591 heartbeat IPC: 2.892 cumulative IPC: 2.892 (Simulation time: 00 hr 03 min 38 sec)
Heartbeat CPU 1 instructions: 20000002 cycles: 5000044 heartbeat IPC: 4 cumulative IPC: 4 (Simulation time: 00 hr 05 min 19 sec)
Heartbeat CPU 3 instructions: 20000001 cycles: 5005630 heartbeat IPC: 3.996 cumulative IPC: 3.996 (Simulation time: 00 hr 05 min 19 sec)
Heartbeat CPU 2 instructions: 20000002 cycles: 5748941 heartbeat IPC: 3.723 cumulative IPC: 3.479 (Simulation time: 00 hr 06 min 06 sec)
Heartbeat CPU 0 instructions: 20000001 cycles: 6921257 heartbeat IPC: 2.887 cumulative IPC: 2.89 (Simulation time: 00 hr 07 min 21 sec)
Heartbeat CPU 1 instructions: 30000002 cycles: 7500044 heartbeat IPC: 4 cumulative IPC: 4 (Simulation time: 00 hr 07 min 58 sec)
Heartbeat CPU 3 instructions: 30000003 cycles: 7507961 heartbeat IPC: 3.996 cumulative IPC: 3.996 (Simulation time: 00 hr 07 min 59 sec)
Heartbeat CPU 2 instructions: 30000000 cycles: 8967917 heartbeat IPC: 3.107 cumulative IPC: 3.345 (Simulation time: 00 hr 09 min 39 sec)
Heartbeat CPU 1 instructions: 40000002 cycles: 10000044 heartbeat IPC: 4 cumulative IPC: 4 (Simulation time: 00 hr 10 min 53 sec)
Heartbeat CPU 3 instructions: 40000002 cycles: 10010652 heartbeat IPC: 3.996 cumulative IPC: 3.996 (Simulation time: 00 hr 10 min 53 sec)
Heartbeat CPU 0 instructions: 30000001 cycles: 10377797 heartbeat IPC: 2.893 cumulative IPC: 2.891 (Simulation time: 00 hr 11 min 17 sec)
Heartbeat CPU 2 instructions: 40000004 cycles: 12221002 heartbeat IPC: 3.074 cumulative IPC: 3.273 (Simulation time: 00 hr 13 min 17 sec)
Heartbeat CPU 1 instructions: 50000002 cycles: 12500044 heartbeat IPC: 4 cumulative IPC: 4 (Simulation time: 00 hr 13 min 35 sec)
Warmup finished CPU 1 instructions: 50000002 cycles: 12500045 cumulative IPC: 4 (Simulation time: 00 hr 13 min 35 sec)
Heartbeat CPU 3 instructions: 50000003 cycles: 12513315 heartbeat IPC: 3.996 cumulative IPC: 3.996 (Simulation time: 00 hr 13 min 36 sec)
Warmup finished CPU 3 instructions: 50000003 cycles: 12513316 cumulative IPC: 3.996 (Simulation time: 00 hr 13 min 36 sec)
Heartbeat CPU 0 instructions: 40000004 cycles: 13807406 heartbeat IPC: 2.916 cumulative IPC: 2.897 (Simulation time: 00 hr 15 min 02 sec)
Heartbeat CPU 1 instructions: 60000002 cycles: 15000044 heartbeat IPC: 4 cumulative IPC: 4 (Simulation time: 00 hr 16 min 22 sec)
Heartbeat CPU 3 instructions: 60000001 cycles: 15015961 heartbeat IPC: 3.996 cumulative IPC: 3.996 (Simulation time: 00 hr 16 min 23 sec)
Heartbeat CPU 2 instructions: 50000002 cycles: 15374551 heartbeat IPC: 3.171 cumulative IPC: 3.252 (Simulation time: 00 hr 16 min 45 sec)
Warmup finished CPU 2 instructions: 50000002 cycles: 15374552 cumulative IPC: 3.252 (Simulation time: 00 hr 16 min 45 sec)
Heartbeat CPU 0 instructions: 50000001 cycles: 17239090 heartbeat IPC: 2.914 cumulative IPC: 2.9 (Simulation time: 00 hr 18 min 44 sec)
Warmup finished CPU 0 instructions: 50000001 cycles: 17239091 cumulative IPC: 2.9 (Simulation time: 00 hr 18 min 44 sec)
Warmup complete CPU 0 instructions: 50000001 cycles: 17239091 cumulative IPC: 2.9 (Simulation time: 00 hr 18 min 44 sec)
Warmup complete CPU 1 instructions: 68956186 cycles: 17239091 cumulative IPC: 4 (Simulation time: 00 hr 18 min 44 sec)
Warmup complete CPU 2 instructions: 56810643 cycles: 17239091 cumulative IPC: 3.295 (Simulation time: 00 hr 18 min 44 sec)
Warmup complete CPU 3 instructions: 68882257 cycles: 17239091 cumulative IPC: 3.996 (Simulation time: 00 hr 18 min 44 sec)
Heartbeat CPU 3 instructions: 70000000 cycles: 17789939 heartbeat IPC: 3.605 cumulative IPC: 2.029 (Simulation time: 00 hr 19 min 12 sec)
Heartbeat CPU 1 instructions: 70000003 cycles: 18195333 heartbeat IPC: 3.13 cumulative IPC: 1.092 (Simulation time: 00 hr 19 min 32 sec)
Heartbeat CPU 2 instructions: 60000003 cycles: 19161178 heartbeat IPC: 2.641 cumulative IPC: 1.659 (Simulation time: 00 hr 20 min 23 sec)
Heartbeat CPU 0 instructions: 60000001 cycles: 20879228 heartbeat IPC: 2.747 cumulative IPC: 2.747 (Simulation time: 00 hr 21 min 48 sec)
Heartbeat CPU 3 instructions: 80000000 cycles: 22496266 heartbeat IPC: 2.125 cumulative IPC: 2.115 (Simulation time: 00 hr 23 min 07 sec)
Heartbeat CPU 0 instructions: 70000000 cycles: 24639514 heartbeat IPC: 2.659 cumulative IPC: 2.703 (Simulation time: 00 hr 24 min 50 sec)
Heartbeat CPU 2 instructions: 70000001 cycles: 26364083 heartbeat IPC: 1.388 cumulative IPC: 1.445 (Simulation time: 00 hr 26 min 05 sec)
Heartbeat CPU 1 instructions: 80000000 cycles: 27036452 heartbeat IPC: 1.131 cumulative IPC: 1.127 (Simulation time: 00 hr 26 min 36 sec)
Heartbeat CPU 3 instructions: 90000004 cycles: 27218433 heartbeat IPC: 2.118 cumulative IPC: 2.116 (Simulation time: 00 hr 26 min 44 sec)
Heartbeat CPU 0 instructions: 80000003 cycles: 29358790 heartbeat IPC: 2.119 cumulative IPC: 2.475 (Simulation time: 00 hr 28 min 04 sec)
Heartbeat CPU 3 instructions: 100000000 cycles: 31946059 heartbeat IPC: 2.115 cumulative IPC: 2.116 (Simulation time: 00 hr 29 min 55 sec)
Heartbeat CPU 0 instructions: 90000002 cycles: 34170096 heartbeat IPC: 2.078 cumulative IPC: 2.363 (Simulation time: 00 hr 31 min 29 sec)
Heartbeat CPU 2 instructions: 80000001 cycles: 35650641 heartbeat IPC: 1.077 cumulative IPC: 1.26 (Simulation time: 00 hr 32 min 33 sec)
Heartbeat CPU 1 instructions: 90000004 cycles: 35787946 heartbeat IPC: 1.143 cumulative IPC: 1.135 (Simulation time: 00 hr 32 min 38 sec)
Heartbeat CPU 3 instructions: 110000001 cycles: 36647403 heartbeat IPC: 2.127 cumulative IPC: 2.119 (Simulation time: 00 hr 33 min 13 sec)
Heartbeat CPU 0 instructions: 100000000 cycles: 39444062 heartbeat IPC: 1.896 cumulative IPC: 2.252 (Simulation time: 00 hr 35 min 09 sec)
Heartbeat CPU 3 instructions: 120000000 cycles: 41285852 heartbeat IPC: 2.156 cumulative IPC: 2.126 (Simulation time: 00 hr 36 min 27 sec)
Heartbeat CPU 2 instructions: 90000001 cycles: 42349272 heartbeat IPC: 1.493 cumulative IPC: 1.322 (Simulation time: 00 hr 37 min 16 sec)
Heartbeat CPU 1 instructions: 100000004 cycles: 44480182 heartbeat IPC: 1.15 cumulative IPC: 1.14 (Simulation time: 00 hr 38 min 37 sec)
Heartbeat CPU 0 instructions: 110000004 cycles: 44608980 heartbeat IPC: 1.936 cumulative IPC: 2.192 (Simulation time: 00 hr 38 min 43 sec)
Heartbeat CPU 3 instructions: 130000002 cycles: 45944745 heartbeat IPC: 2.146 cumulative IPC: 2.129 (Simulation time: 00 hr 39 min 41 sec)
Heartbeat CPU 0 instructions: 120000003 cycles: 49365086 heartbeat IPC: 2.103 cumulative IPC: 2.179 (Simulation time: 00 hr 42 min 24 sec)
Heartbeat CPU 3 instructions: 140000000 cycles: 50638998 heartbeat IPC: 2.13 cumulative IPC: 2.129 (Simulation time: 00 hr 43 min 19 sec)
Heartbeat CPU 2 instructions: 100000002 cycles: 50840919 heartbeat IPC: 1.178 cumulative IPC: 1.285 (Simulation time: 00 hr 43 min 28 sec)
Heartbeat CPU 1 instructions: 110000001 cycles: 53579604 heartbeat IPC: 1.099 cumulative IPC: 1.129 (Simulation time: 00 hr 45 min 22 sec)
Heartbeat CPU 0 instructions: 130000001 cycles: 54068474 heartbeat IPC: 2.126 cumulative IPC: 2.172 (Simulation time: 00 hr 45 min 42 sec)
Heartbeat CPU 3 instructions: 150000004 cycles: 55262489 heartbeat IPC: 2.163 cumulative IPC: 2.133 (Simulation time: 00 hr 46 min 34 sec)
Heartbeat CPU 2 instructions: 110000004 cycles: 58083699 heartbeat IPC: 1.381 cumulative IPC: 1.302 (Simulation time: 00 hr 48 min 33 sec)
Heartbeat CPU 0 instructions: 140000000 cycles: 58865223 heartbeat IPC: 2.085 cumulative IPC: 2.162 (Simulation time: 00 hr 49 min 06 sec)
Heartbeat CPU 3 instructions: 160000003 cycles: 59886795 heartbeat IPC: 2.162 cumulative IPC: 2.137 (Simulation time: 00 hr 49 min 52 sec)
Heartbeat CPU 1 instructions: 120000000 cycles: 62888583 heartbeat IPC: 1.074 cumulative IPC: 1.118 (Simulation time: 00 hr 51 min 59 sec)
Heartbeat CPU 0 instructions: 150000002 cycles: 63687602 heartbeat IPC: 2.074 cumulative IPC: 2.153 (Simulation time: 00 hr 52 min 35 sec)
Heartbeat CPU 3 instructions: 170000003 cycles: 64501709 heartbeat IPC: 2.167 cumulative IPC: 2.139 (Simulation time: 00 hr 53 min 14 sec)
Heartbeat CPU 2 instructions: 120000000 cycles: 65248234 heartbeat IPC: 1.396 cumulative IPC: 1.316 (Simulation time: 00 hr 53 min 47 sec)
Heartbeat CPU 0 instructions: 160000000 cycles: 68572509 heartbeat IPC: 2.047 cumulative IPC: 2.143 (Simulation time: 00 hr 56 min 08 sec)
Heartbeat CPU 3 instructions: 180000004 cycles: 69122959 heartbeat IPC: 2.164 cumulative IPC: 2.142 (Simulation time: 00 hr 56 min 34 sec)
Heartbeat CPU 2 instructions: 130000001 cycles: 71576838 heartbeat IPC: 1.58 cumulative IPC: 1.347 (Simulation time: 00 hr 58 min 33 sec)
Heartbeat CPU 1 instructions: 130000003 cycles: 71967788 heartbeat IPC: 1.101 cumulative IPC: 1.115 (Simulation time: 00 hr 58 min 50 sec)
Heartbeat CPU 0 instructions: 170000003 cycles: 73419040 heartbeat IPC: 2.063 cumulative IPC: 2.136 (Simulation time: 00 hr 59 min 59 sec)
Heartbeat CPU 3 instructions: 190000002 cycles: 73746177 heartbeat IPC: 2.163 cumulative IPC: 2.143 (Simulation time: 01 hr 00 min 15 sec)
Heartbeat CPU 0 instructions: 180000002 cycles: 78192118 heartbeat IPC: 2.095 cumulative IPC: 2.133 (Simulation time: 01 hr 03 min 35 sec)
Heartbeat CPU 2 instructions: 140000000 cycles: 78260461 heartbeat IPC: 1.496 cumulative IPC: 1.363 (Simulation time: 01 hr 03 min 38 sec)
Heartbeat CPU 3 instructions: 200000000 cycles: 78387265 heartbeat IPC: 2.155 cumulative IPC: 2.144 (Simulation time: 01 hr 03 min 43 sec)
Heartbeat CPU 1 instructions: 140000002 cycles: 80594378 heartbeat IPC: 1.159 cumulative IPC: 1.121 (Simulation time: 01 hr 05 min 08 sec)
Heartbeat CPU 3 instructions: 210000000 cycles: 82971343 heartbeat IPC: 2.181 cumulative IPC: 2.147 (Simulation time: 01 hr 06 min 43 sec)
Heartbeat CPU 0 instructions: 190000000 cycles: 83022707 heartbeat IPC: 2.07 cumulative IPC: 2.128 (Simulation time: 01 hr 06 min 46 sec)
Simulation finished CPU 3 instructions: 150000001 cycles: 69828437 cumulative IPC: 2.148 (Simulation time: 01 hr 09 min 37 sec)
Heartbeat CPU 2 instructions: 150000004 cycles: 87424852 heartbeat IPC: 1.091 cumulative IPC: 1.328 (Simulation time: 01 hr 09 min 52 sec)
Heartbeat CPU 3 instructions: 220000000 cycles: 87566168 heartbeat IPC: 2.176 cumulative IPC: 2.149 (Simulation time: 01 hr 09 min 58 sec)
Heartbeat CPU 0 instructions: 200000004 cycles: 87811926 heartbeat IPC: 2.088 cumulative IPC: 2.125 (Simulation time: 01 hr 10 min 09 sec)
Simulation finished CPU 0 instructions: 150000003 cycles: 70572836 cumulative IPC: 2.125 (Simulation time: 01 hr 10 min 09 sec)
Heartbeat CPU 1 instructions: 150000002 cycles: 89256455 heartbeat IPC: 1.154 cumulative IPC: 1.125 (Simulation time: 01 hr 11 min 12 sec)
Heartbeat CPU 3 instructions: 230000001 cycles: 92182540 heartbeat IPC: 2.166 cumulative IPC: 2.15 (Simulation time: 01 hr 13 min 20 sec)
Heartbeat CPU 0 instructions: 210000003 cycles: 92600615 heartbeat IPC: 2.088 cumulative IPC: 2.123 (Simulation time: 01 hr 13 min 39 sec)
Heartbeat CPU 2 instructions: 160000002 cycles: 95765512 heartbeat IPC: 1.199 cumulative IPC: 1.314 (Simulation time: 01 hr 15 min 42 sec)
Heartbeat CPU 3 instructions: 240000000 cycles: 96801199 heartbeat IPC: 2.165 cumulative IPC: 2.151 (Simulation time: 01 hr 16 min 25 sec)
Heartbeat CPU 0 instructions: 220000004 cycles: 97299912 heartbeat IPC: 2.128 cumulative IPC: 2.123 (Simulation time: 01 hr 16 min 48 sec)
Heartbeat CPU 1 instructions: 160000004 cycles: 98045282 heartbeat IPC: 1.138 cumulative IPC: 1.127 (Simulation time: 01 hr 17 min 20 sec)
Heartbeat CPU 3 instructions: 250000002 cycles: 101437309 heartbeat IPC: 2.157 cumulative IPC: 2.151 (Simulation time: 01 hr 19 min 46 sec)
Heartbeat CPU 0 instructions: 230000002 cycles: 102047453 heartbeat IPC: 2.106 cumulative IPC: 2.122 (Simulation time: 01 hr 20 min 11 sec)
Heartbeat CPU 2 instructions: 170000004 cycles: 102563026 heartbeat IPC: 1.471 cumulative IPC: 1.327 (Simulation time: 01 hr 20 min 33 sec)
Heartbeat CPU 3 instructions: 260000000 cycles: 106131067 heartbeat IPC: 2.13 cumulative IPC: 2.15 (Simulation time: 01 hr 23 min 03 sec)
Heartbeat CPU 0 instructions: 240000002 cycles: 106790152 heartbeat IPC: 2.109 cumulative IPC: 2.122 (Simulation time: 01 hr 23 min 31 sec)
Heartbeat CPU 1 instructions: 170000004 cycles: 107341407 heartbeat IPC: 1.076 cumulative IPC: 1.121 (Simulation time: 01 hr 23 min 53 sec)
Heartbeat CPU 2 instructions: 180000002 cycles: 109702032 heartbeat IPC: 1.401 cumulative IPC: 1.332 (Simulation time: 01 hr 25 min 36 sec)
Heartbeat CPU 3 instructions: 270000000 cycles: 110776543 heartbeat IPC: 2.153 cumulative IPC: 2.15 (Simulation time: 01 hr 26 min 23 sec)
Heartbeat CPU 0 instructions: 250000000 cycles: 111445154 heartbeat IPC: 2.148 cumulative IPC: 2.123 (Simulation time: 01 hr 26 min 51 sec)
Heartbeat CPU 3 instructions: 280000001 cycles: 115421241 heartbeat IPC: 2.153 cumulative IPC: 2.15 (Simulation time: 01 hr 29 min 39 sec)
Heartbeat CPU 0 instructions: 260000003 cycles: 116151734 heartbeat IPC: 2.125 cumulative IPC: 2.123 (Simulation time: 01 hr 30 min 09 sec)
Heartbeat CPU 1 instructions: 180000000 cycles: 116839641 heartbeat IPC: 1.053 cumulative IPC: 1.115 (Simulation time: 01 hr 30 min 38 sec)
Heartbeat CPU 2 instructions: 190000001 cycles: 116862788 heartbeat IPC: 1.397 cumulative IPC: 1.337 (Simulation time: 01 hr 30 min 39 sec)
Heartbeat CPU 3 instructions: 290000004 cycles: 120074476 heartbeat IPC: 2.149 cumulative IPC: 2.15 (Simulation time: 01 hr 32 min 55 sec)
Heartbeat CPU 0 instructions: 270000001 cycles: 120902347 heartbeat IPC: 2.105 cumulative IPC: 2.122 (Simulation time: 01 hr 33 min 29 sec)
Heartbeat CPU 2 instructions: 200000002 cycles: 123475755 heartbeat IPC: 1.512 cumulative IPC: 1.348 (Simulation time: 01 hr 35 min 21 sec)
Heartbeat CPU 3 instructions: 300000000 cycles: 124708509 heartbeat IPC: 2.158 cumulative IPC: 2.151 (Simulation time: 01 hr 36 min 18 sec)
Heartbeat CPU 0 instructions: 280000001 cycles: 125655872 heartbeat IPC: 2.104 cumulative IPC: 2.121 (Simulation time: 01 hr 37 min 00 sec)
Heartbeat CPU 1 instructions: 190000000 cycles: 125755159 heartbeat IPC: 1.122 cumulative IPC: 1.115 (Simulation time: 01 hr 37 min 05 sec)
Simulation finished CPU 2 instructions: 150000002 cycles: 110076254 cumulative IPC: 1.363 (Simulation time: 01 hr 38 min 11 sec)
Heartbeat CPU 3 instructions: 310000001 cycles: 129346638 heartbeat IPC: 2.156 cumulative IPC: 2.151 (Simulation time: 01 hr 39 min 43 sec)
Heartbeat CPU 2 instructions: 210000001 cycles: 129369657 heartbeat IPC: 1.697 cumulative IPC: 1.366 (Simulation time: 01 hr 39 min 44 sec)
Heartbeat CPU 0 instructions: 290000000 cycles: 130226627 heartbeat IPC: 2.188 cumulative IPC: 2.124 (Simulation time: 01 hr 40 min 22 sec)
Heartbeat CPU 0 instructions: 300000004 cycles: 133861403 heartbeat IPC: 2.751 cumulative IPC: 2.144 (Simulation time: 01 hr 43 min 07 sec)
Heartbeat CPU 3 instructions: 320000001 cycles: 133972344 heartbeat IPC: 2.162 cumulative IPC: 2.151 (Simulation time: 01 hr 43 min 11 sec)
Heartbeat CPU 1 instructions: 200000000 cycles: 134553003 heartbeat IPC: 1.137 cumulative IPC: 1.117 (Simulation time: 01 hr 43 min 34 sec)
Heartbeat CPU 0 instructions: 310000000 cycles: 137698385 heartbeat IPC: 2.606 cumulative IPC: 2.158 (Simulation time: 01 hr 45 min 44 sec)
Heartbeat CPU 3 instructions: 330000001 cycles: 138597769 heartbeat IPC: 2.162 cumulative IPC: 2.152 (Simulation time: 01 hr 46 min 20 sec)
Heartbeat CPU 2 instructions: 220000000 cycles: 139332973 heartbeat IPC: 1.004 cumulative IPC: 1.337 (Simulation time: 01 hr 46 min 46 sec)
Heartbeat CPU 0 instructions: 320000000 cycles: 143322217 heartbeat IPC: 1.778 cumulative IPC: 2.141 (Simulation time: 01 hr 49 min 20 sec)
Heartbeat CPU 3 instructions: 340000000 cycles: 145749212 heartbeat IPC: 1.398 cumulative IPC: 2.11 (Simulation time: 01 hr 51 min 00 sec)
Heartbeat CPU 2 instructions: 230000000 cycles: 147631041 heartbeat IPC: 1.205 cumulative IPC: 1.328 (Simulation time: 01 hr 52 min 20 sec)
Heartbeat CPU 1 instructions: 210000002 cycles: 148356765 heartbeat IPC: 0.7244 cumulative IPC: 1.076 (Simulation time: 01 hr 52 min 52 sec)
Heartbeat CPU 0 instructions: 330000001 cycles: 148945469 heartbeat IPC: 1.778 cumulative IPC: 2.126 (Simulation time: 01 hr 53 min 15 sec)
Heartbeat CPU 3 instructions: 350000002 cycles: 151332128 heartbeat IPC: 1.791 cumulative IPC: 2.096 (Simulation time: 01 hr 54 min 58 sec)
Heartbeat CPU 0 instructions: 340000002 cycles: 153787698 heartbeat IPC: 2.065 cumulative IPC: 2.124 (Simulation time: 01 hr 56 min 43 sec)
Heartbeat CPU 2 instructions: 240000001 cycles: 155116592 heartbeat IPC: 1.336 cumulative IPC: 1.329 (Simulation time: 01 hr 57 min 39 sec)
Heartbeat CPU 3 instructions: 360000003 cycles: 156658197 heartbeat IPC: 1.878 cumulative IPC: 2.088 (Simulation time: 01 hr 58 min 49 sec)
Heartbeat CPU 0 instructions: 350000002 cycles: 157685048 heartbeat IPC: 2.566 cumulative IPC: 2.136 (Simulation time: 01 hr 59 min 37 sec)
Simulation finished CPU 1 instructions: 150000003 cycles: 141186637 cumulative IPC: 1.062 (Simulation time: 02 hr 00 min 10 sec)
Simulation complete CPU 0 instructions: 301972424 cycles: 141186637 cumulative IPC: 2.139 (Simulation time: 02 hr 00 min 10 sec)
Simulation complete CPU 1 instructions: 150000003 cycles: 141186637 cumulative IPC: 1.062 (Simulation time: 02 hr 00 min 10 sec)
Simulation complete CPU 2 instructions: 187675228 cycles: 141186637 cumulative IPC: 1.329 (Simulation time: 02 hr 00 min 10 sec)
Simulation complete CPU 3 instructions: 294477712 cycles: 141186637 cumulative IPC: 2.086 (Simulation time: 02 hr 00 min 10 sec)

ChampSim completed all CPUs

=== Simulation ===
CPU 0 runs /home/das/dpc3_traces/644.nab_s-5853B.champsimtrace.xzCPU 1 runs /home/das/dpc3_traces/649.fotonik3d_s-1176B.champsimtrace.xzCPU 2 runs /home/das/dpc3_traces/623.xalancbmk_s-700B.champsimtrace.xzCPU 3 runs /home/das/dpc3_traces/621.wrf_s-575B.champsimtrace.xz
Total Simulation Statistics (not including warmup)

CPU 0 cumulative IPC: 2.139 instructions: 301972424 cycles: 141186637
CPU 0 Branch Prediction Accuracy: 86.11% MPKI: 13.45 Average ROB Occupancy at Mispredict: 108.5
Branch type MPKI
BRANCH_DIRECT_JUMP: 0.000113
BRANCH_INDIRECT: 3.31e-06
BRANCH_CONDITIONAL: 7.92
BRANCH_DIRECT_CALL: 0
BRANCH_INDIRECT_CALL: 0
BRANCH_RETURN: 5.53


CPU 1 cumulative IPC: 1.062 instructions: 150000003 cycles: 141186637
CPU 1 Branch Prediction Accuracy: 99.98% MPKI: 0.00438 Average ROB Occupancy at Mispredict: 352
Branch type MPKI
BRANCH_DIRECT_JUMP: 0
BRANCH_INDIRECT: 0
BRANCH_CONDITIONAL: 0.00438
BRANCH_DIRECT_CALL: 0
BRANCH_INDIRECT_CALL: 0
BRANCH_RETURN: 0


CPU 2 cumulative IPC: 1.329 instructions: 187675228 cycles: 141186637
CPU 2 Branch Prediction Accuracy: 96.85% MPKI: 8.713 Average ROB Occupancy at Mispredict: 39.83
Branch type MPKI
BRANCH_DIRECT_JUMP: 0.124
BRANCH_INDIRECT: 0.378
BRANCH_CONDITIONAL: 6.17
BRANCH_DIRECT_CALL: 0.000671
BRANCH_INDIRECT_CALL: 0.422
BRANCH_RETURN: 1.62


CPU 3 cumulative IPC: 2.086 instructions: 294477712 cycles: 141186637
CPU 3 Branch Prediction Accuracy: 95.08% MPKI: 6.601 Average ROB Occupancy at Mispredict: 80.31
Branch type MPKI
BRANCH_DIRECT_JUMP: 0.000278
BRANCH_INDIRECT: 3.4e-06
BRANCH_CONDITIONAL: 6.54
BRANCH_DIRECT_CALL: 0.000584
BRANCH_INDIRECT_CALL: 0
BRANCH_RETURN: 0.0592

LLC TOTAL        ACCESS:     307264 HIT:     226778 MISS:      80486
LLC LOAD         ACCESS:      38586 HIT:      31356 MISS:       7230
LLC RFO          ACCESS:        120 HIT:         46 MISS:         74
LLC PREFETCH     ACCESS:     265747 HIT:     195292 MISS:      70455
LLC WRITE        ACCESS:       1910 HIT:         72 MISS:       1838
LLC TRANSLATION  ACCESS:        901 HIT:         12 MISS:        889
LLC PREFETCH REQUESTED:          0 ISSUED:          0 USEFUL:          0 USELESS:          0
LLC AVERAGE MISS LATENCY: 280.1 cycles
LLC TOTAL        ACCESS:    7897323 HIT:    2975980 MISS:    4921343
LLC LOAD         ACCESS:     605228 HIT:     253655 MISS:     351573
LLC RFO          ACCESS:       1270 HIT:       1270 MISS:          0
LLC PREFETCH     ACCESS:    5974555 HIT:    1404909 MISS:    4569646
LLC WRITE        ACCESS:    1316004 HIT:    1315994 MISS:         10
LLC TRANSLATION  ACCESS:        266 HIT:        152 MISS:        114
LLC PREFETCH REQUESTED:          0 ISSUED:          0 USEFUL:          0 USELESS:          0
LLC AVERAGE MISS LATENCY: 280.1 cycles
LLC TOTAL        ACCESS:    5409306 HIT:    5006139 MISS:     403167
LLC LOAD         ACCESS:     439083 HIT:     389633 MISS:      49450
LLC RFO          ACCESS:     232333 HIT:      32879 MISS:     199454
LLC PREFETCH     ACCESS:    4411792 HIT:    4274122 MISS:     137670
LLC WRITE        ACCESS:     284463 HIT:     280385 MISS:       4078
LLC TRANSLATION  ACCESS:      41635 HIT:      29120 MISS:      12515
LLC PREFETCH REQUESTED:          0 ISSUED:          0 USEFUL:          0 USELESS:          0
LLC AVERAGE MISS LATENCY: 280.1 cycles
LLC TOTAL        ACCESS:      83293 HIT:      45150 MISS:      38143
LLC LOAD         ACCESS:      13829 HIT:       7920 MISS:       5909
LLC RFO          ACCESS:      10063 HIT:        283 MISS:       9780
LLC PREFETCH     ACCESS:      47555 HIT:      33891 MISS:      13664
LLC WRITE        ACCESS:      11383 HIT:       3056 MISS:       8327
LLC TRANSLATION  ACCESS:        463 HIT:          0 MISS:        463
LLC PREFETCH REQUESTED:          0 ISSUED:          0 USEFUL:          0 USELESS:          0
LLC AVERAGE MISS LATENCY: 280.1 cycles
cpu0_DTLB TOTAL        ACCESS:   60627103 HIT:   60505531 MISS:     121572
cpu0_DTLB LOAD         ACCESS:   60627103 HIT:   60505531 MISS:     121572
cpu0_DTLB RFO          ACCESS:          0 HIT:          0 MISS:          0
cpu0_DTLB PREFETCH     ACCESS:          0 HIT:          0 MISS:          0
cpu0_DTLB WRITE        ACCESS:          0 HIT:          0 MISS:          0
cpu0_DTLB TRANSLATION  ACCESS:          0 HIT:          0 MISS:          0
cpu0_DTLB PREFETCH REQUESTED:          0 ISSUED:          0 USEFUL:          0 USELESS:          0
cpu0_DTLB AVERAGE MISS LATENCY: 19.32 cycles
cpu0_DTLB TOTAL        ACCESS:          0 HIT:          0 MISS:          0
cpu0_DTLB LOAD         ACCESS:          0 HIT:          0 MISS:          0
cpu0_DTLB RFO          ACCESS:          0 HIT:          0 MISS:          0
cpu0_DTLB PREFETCH     ACCESS:          0 HIT:          0 MISS:          0
cpu0_DTLB WRITE        ACCESS:          0 HIT:          0 MISS:          0
cpu0_DTLB TRANSLATION  ACCESS:          0 HIT:          0 MISS:          0
cpu0_DTLB PREFETCH REQUESTED:          0 ISSUED:          0 USEFUL:          0 USELESS:          0
cpu0_DTLB AVERAGE MISS LATENCY: 19.32 cycles
cpu0_DTLB TOTAL        ACCESS:          0 HIT:          0 MISS:          0
cpu0_DTLB LOAD         ACCESS:          0 HIT:          0 MISS:          0
cpu0_DTLB RFO          ACCESS:          0 HIT:          0 MISS:          0
cpu0_DTLB PREFETCH     ACCESS:          0 HIT:          0 MISS:          0
cpu0_DTLB WRITE        ACCESS:          0 HIT:          0 MISS:          0
cpu0_DTLB TRANSLATION  ACCESS:          0 HIT:          0 MISS:          0
cpu0_DTLB PREFETCH REQUESTED:          0 ISSUED:          0 USEFUL:          0 USELESS:          0
cpu0_DTLB AVERAGE MISS LATENCY: 19.32 cycles
cpu0_DTLB TOTAL        ACCESS:          0 HIT:          0 MISS:          0
cpu0_DTLB LOAD         ACCESS:          0 HIT:          0 MISS:          0
cpu0_DTLB RFO          ACCESS:          0 HIT:          0 MISS:          0
cpu0_DTLB PREFETCH     ACCESS:          0 HIT:          0 MISS:          0
cpu0_DTLB WRITE        ACCESS:          0 HIT:          0 MISS:          0
cpu0_DTLB TRANSLATION  ACCESS:          0 HIT:          0 MISS:          0
cpu0_DTLB PREFETCH REQUESTED:          0 ISSUED:          0 USEFUL:          0 USELESS:          0
cpu0_DTLB AVERAGE MISS LATENCY: 19.32 cycles
cpu0_ITLB TOTAL        ACCESS:       2656 HIT:       2656 MISS:          0
cpu0_ITLB LOAD         ACCESS:       2656 HIT:       2656 MISS:          0
cpu0_ITLB RFO          ACCESS:          0 HIT:          0 MISS:          0
cpu0_ITLB PREFETCH     ACCESS:          0 HIT:          0 MISS:          0
cpu0_ITLB WRITE        ACCESS:          0 HIT:          0 MISS:          0
cpu0_ITLB TRANSLATION  ACCESS:          0 HIT:          0 MISS:          0
cpu0_ITLB PREFETCH REQUESTED:          0 ISSUED:          0 USEFUL:          0 USELESS:          0
cpu0_ITLB AVERAGE MISS LATENCY: -nan cycles
cpu0_ITLB TOTAL        ACCESS:          0 HIT:          0 MISS:          0
cpu0_ITLB LOAD         ACCESS:          0 HIT:          0 MISS:          0
cpu0_ITLB RFO          ACCESS:          0 HIT:          0 MISS:          0
cpu0_ITLB PREFETCH     ACCESS:          0 HIT:          0 MISS:          0
cpu0_ITLB WRITE        ACCESS:          0 HIT:          0 MISS:          0
cpu0_ITLB TRANSLATION  ACCESS:          0 HIT:          0 MISS:          0
cpu0_ITLB PREFETCH REQUESTED:          0 ISSUED:          0 USEFUL:          0 USELESS:          0
cpu0_ITLB AVERAGE MISS LATENCY: -nan cycles
cpu0_ITLB TOTAL        ACCESS:          0 HIT:          0 MISS:          0
cpu0_ITLB LOAD         ACCESS:          0 HIT:          0 MISS:          0
cpu0_ITLB RFO          ACCESS:          0 HIT:          0 MISS:          0
cpu0_ITLB PREFETCH     ACCESS:          0 HIT:          0 MISS:          0
cpu0_ITLB WRITE        ACCESS:          0 HIT:          0 MISS:          0
cpu0_ITLB TRANSLATION  ACCESS:          0 HIT:          0 MISS:          0
cpu0_ITLB PREFETCH REQUESTED:          0 ISSUED:          0 USEFUL:          0 USELESS:          0
cpu0_ITLB AVERAGE MISS LATENCY: -nan cycles
cpu0_ITLB TOTAL        ACCESS:          0 HIT:          0 MISS:          0
cpu0_ITLB LOAD         ACCESS:          0 HIT:          0 MISS:          0
cpu0_ITLB RFO          ACCESS:          0 HIT:          0 MISS:          0
cpu0_ITLB PREFETCH     ACCESS:          0 HIT:          0 MISS:          0
cpu0_ITLB WRITE        ACCESS:          0 HIT:          0 MISS:          0
cpu0_ITLB TRANSLATION  ACCESS:          0 HIT:          0 MISS:          0
cpu0_ITLB PREFETCH REQUESTED:          0 ISSUED:          0 USEFUL:          0 USELESS:          0
cpu0_ITLB AVERAGE MISS LATENCY: -nan cycles
cpu0_L1D TOTAL        ACCESS:   79097496 HIT:   77926307 MISS:    1171189
cpu0_L1D LOAD         ACCESS:   46102177 HIT:   44940948 MISS:    1161229
cpu0_L1D RFO          ACCESS:          0 HIT:          0 MISS:          0
cpu0_L1D PREFETCH     ACCESS:          0 HIT:          0 MISS:          0
cpu0_L1D WRITE        ACCESS:   32992817 HIT:   32985306 MISS:       7511
cpu0_L1D TRANSLATION  ACCESS:       2502 HIT:         53 MISS:       2449
cpu0_L1D PREFETCH REQUESTED:          0 ISSUED:          0 USEFUL:          0 USELESS:          0
cpu0_L1D AVERAGE MISS LATENCY: 17.28 cycles
cpu0_L1D TOTAL        ACCESS:          0 HIT:          0 MISS:          0
cpu0_L1D LOAD         ACCESS:          0 HIT:          0 MISS:          0
cpu0_L1D RFO          ACCESS:          0 HIT:          0 MISS:          0
cpu0_L1D PREFETCH     ACCESS:          0 HIT:          0 MISS:          0
cpu0_L1D WRITE        ACCESS:          0 HIT:          0 MISS:          0
cpu0_L1D TRANSLATION  ACCESS:          0 HIT:          0 MISS:          0
cpu0_L1D PREFETCH REQUESTED:          0 ISSUED:          0 USEFUL:          0 USELESS:          0
cpu0_L1D AVERAGE MISS LATENCY: 17.28 cycles
cpu0_L1D TOTAL        ACCESS:          0 HIT:          0 MISS:          0
cpu0_L1D LOAD         ACCESS:          0 HIT:          0 MISS:          0
cpu0_L1D RFO          ACCESS:          0 HIT:          0 MISS:          0
cpu0_L1D PREFETCH     ACCESS:          0 HIT:          0 MISS:          0
cpu0_L1D WRITE        ACCESS:          0 HIT:          0 MISS:          0
cpu0_L1D TRANSLATION  ACCESS:          0 HIT:          0 MISS:          0
cpu0_L1D PREFETCH REQUESTED:          0 ISSUED:          0 USEFUL:          0 USELESS:          0
cpu0_L1D AVERAGE MISS LATENCY: 17.28 cycles
cpu0_L1D TOTAL        ACCESS:          0 HIT:          0 MISS:          0
cpu0_L1D LOAD         ACCESS:          0 HIT:          0 MISS:          0
cpu0_L1D RFO          ACCESS:          0 HIT:          0 MISS:          0
cpu0_L1D PREFETCH     ACCESS:          0 HIT:          0 MISS:          0
cpu0_L1D WRITE        ACCESS:          0 HIT:          0 MISS:          0
cpu0_L1D TRANSLATION  ACCESS:          0 HIT:          0 MISS:          0
cpu0_L1D PREFETCH REQUESTED:          0 ISSUED:          0 USEFUL:          0 USELESS:          0
cpu0_L1D AVERAGE MISS LATENCY: 17.28 cycles
cpu0_L1I TOTAL        ACCESS:       3208 HIT:       3207 MISS:          1
cpu0_L1I LOAD         ACCESS:       3208 HIT:       3207 MISS:          1
cpu0_L1I RFO          ACCESS:          0 HIT:          0 MISS:          0
cpu0_L1I PREFETCH     ACCESS:          0 HIT:          0 MISS:          0
cpu0_L1I WRITE        ACCESS:          0 HIT:          0 MISS:          0
cpu0_L1I TRANSLATION  ACCESS:          0 HIT:          0 MISS:          0
cpu0_L1I PREFETCH REQUESTED:          0 ISSUED:          0 USEFUL:          0 USELESS:          0
cpu0_L1I AVERAGE MISS LATENCY: 923 cycles
cpu0_L1I TOTAL        ACCESS:          0 HIT:          0 MISS:          0
cpu0_L1I LOAD         ACCESS:          0 HIT:          0 MISS:          0
cpu0_L1I RFO          ACCESS:          0 HIT:          0 MISS:          0
cpu0_L1I PREFETCH     ACCESS:          0 HIT:          0 MISS:          0
cpu0_L1I WRITE        ACCESS:          0 HIT:          0 MISS:          0
cpu0_L1I TRANSLATION  ACCESS:          0 HIT:          0 MISS:          0
cpu0_L1I PREFETCH REQUESTED:          0 ISSUED:          0 USEFUL:          0 USELESS:          0
cpu0_L1I AVERAGE MISS LATENCY: 923 cycles
cpu0_L1I TOTAL        ACCESS:          0 HIT:          0 MISS:          0
cpu0_L1I LOAD         ACCESS:          0 HIT:          0 MISS:          0
cpu0_L1I RFO          ACCESS:          0 HIT:          0 MISS:          0
cpu0_L1I PREFETCH     ACCESS:          0 HIT:          0 MISS:          0
cpu0_L1I WRITE        ACCESS:          0 HIT:          0 MISS:          0
cpu0_L1I TRANSLATION  ACCESS:          0 HIT:          0 MISS:          0
cpu0_L1I PREFETCH REQUESTED:          0 ISSUED:          0 USEFUL:          0 USELESS:          0
cpu0_L1I AVERAGE MISS LATENCY: 923 cycles
cpu0_L1I TOTAL        ACCESS:          0 HIT:          0 MISS:          0
cpu0_L1I LOAD         ACCESS:          0 HIT:          0 MISS:          0
cpu0_L1I RFO          ACCESS:          0 HIT:          0 MISS:          0
cpu0_L1I PREFETCH     ACCESS:          0 HIT:          0 MISS:          0
cpu0_L1I WRITE        ACCESS:          0 HIT:          0 MISS:          0
cpu0_L1I TRANSLATION  ACCESS:          0 HIT:          0 MISS:          0
cpu0_L1I PREFETCH REQUESTED:          0 ISSUED:          0 USEFUL:          0 USELESS:          0
cpu0_L1I AVERAGE MISS LATENCY: 923 cycles
cpu0_L2C TOTAL        ACCESS:    5483974 HIT:    5157893 MISS:     326081
cpu0_L2C LOAD         ACCESS:    1151744 HIT:    1113006 MISS:      38738
cpu0_L2C RFO          ACCESS:       2141 HIT:       2021 MISS:        120
cpu0_L2C PREFETCH     ACCESS:    3933428 HIT:    3647124 MISS:     286304
cpu0_L2C WRITE        ACCESS:     394212 HIT:     394194 MISS:         18
cpu0_L2C TRANSLATION  ACCESS:       2449 HIT:       1548 MISS:        901
cpu0_L2C PREFETCH REQUESTED:    3933429 ISSUED:    3933428 USEFUL:      22187 USELESS:        759
cpu0_L2C AVERAGE MISS LATENCY: 33.3 cycles
cpu0_L2C TOTAL        ACCESS:          0 HIT:          0 MISS:          0
cpu0_L2C LOAD         ACCESS:          0 HIT:          0 MISS:          0
cpu0_L2C RFO          ACCESS:          0 HIT:          0 MISS:          0
cpu0_L2C PREFETCH     ACCESS:          0 HIT:          0 MISS:          0
cpu0_L2C WRITE        ACCESS:          0 HIT:          0 MISS:          0
cpu0_L2C TRANSLATION  ACCESS:          0 HIT:          0 MISS:          0
cpu0_L2C PREFETCH REQUESTED:    3933429 ISSUED:    3933428 USEFUL:      22187 USELESS:        759
cpu0_L2C AVERAGE MISS LATENCY: 33.3 cycles
cpu0_L2C TOTAL        ACCESS:          0 HIT:          0 MISS:          0
cpu0_L2C LOAD         ACCESS:          0 HIT:          0 MISS:          0
cpu0_L2C RFO          ACCESS:          0 HIT:          0 MISS:          0
cpu0_L2C PREFETCH     ACCESS:          0 HIT:          0 MISS:          0
cpu0_L2C WRITE        ACCESS:          0 HIT:          0 MISS:          0
cpu0_L2C TRANSLATION  ACCESS:          0 HIT:          0 MISS:          0
cpu0_L2C PREFETCH REQUESTED:    3933429 ISSUED:    3933428 USEFUL:      22187 USELESS:        759
cpu0_L2C AVERAGE MISS LATENCY: 33.3 cycles
cpu0_L2C TOTAL        ACCESS:          0 HIT:          0 MISS:          0
cpu0_L2C LOAD         ACCESS:          0 HIT:          0 MISS:          0
cpu0_L2C RFO          ACCESS:          0 HIT:          0 MISS:          0
cpu0_L2C PREFETCH     ACCESS:          0 HIT:          0 MISS:          0
cpu0_L2C WRITE        ACCESS:          0 HIT:          0 MISS:          0
cpu0_L2C TRANSLATION  ACCESS:          0 HIT:          0 MISS:          0
cpu0_L2C PREFETCH REQUESTED:    3933429 ISSUED:    3933428 USEFUL:      22187 USELESS:        759
cpu0_L2C AVERAGE MISS LATENCY: 33.3 cycles
cpu0_STLB TOTAL        ACCESS:     112384 HIT:     109920 MISS:       2464
cpu0_STLB LOAD         ACCESS:     112384 HIT:     109920 MISS:       2464
cpu0_STLB RFO          ACCESS:          0 HIT:          0 MISS:          0
cpu0_STLB PREFETCH     ACCESS:          0 HIT:          0 MISS:          0
cpu0_STLB WRITE        ACCESS:          0 HIT:          0 MISS:          0
cpu0_STLB TRANSLATION  ACCESS:          0 HIT:          0 MISS:          0
cpu0_STLB PREFETCH REQUESTED:          0 ISSUED:          0 USEFUL:          0 USELESS:          0
cpu0_STLB AVERAGE MISS LATENCY: 613.4 cycles
cpu0_STLB TOTAL        ACCESS:          0 HIT:          0 MISS:          0
cpu0_STLB LOAD         ACCESS:          0 HIT:          0 MISS:          0
cpu0_STLB RFO          ACCESS:          0 HIT:          0 MISS:          0
cpu0_STLB PREFETCH     ACCESS:          0 HIT:          0 MISS:          0
cpu0_STLB WRITE        ACCESS:          0 HIT:          0 MISS:          0
cpu0_STLB TRANSLATION  ACCESS:          0 HIT:          0 MISS:          0
cpu0_STLB PREFETCH REQUESTED:          0 ISSUED:          0 USEFUL:          0 USELESS:          0
cpu0_STLB AVERAGE MISS LATENCY: 613.4 cycles
cpu0_STLB TOTAL        ACCESS:          0 HIT:          0 MISS:          0
cpu0_STLB LOAD         ACCESS:          0 HIT:          0 MISS:          0
cpu0_STLB RFO          ACCESS:          0 HIT:          0 MISS:          0
cpu0_STLB PREFETCH     ACCESS:          0 HIT:          0 MISS:          0
cpu0_STLB WRITE        ACCESS:          0 HIT:          0 MISS:          0
cpu0_STLB TRANSLATION  ACCESS:          0 HIT:          0 MISS:          0
cpu0_STLB PREFETCH REQUESTED:          0 ISSUED:          0 USEFUL:          0 USELESS:          0
cpu0_STLB AVERAGE MISS LATENCY: 613.4 cycles
cpu0_STLB TOTAL        ACCESS:          0 HIT:          0 MISS:          0
cpu0_STLB LOAD         ACCESS:          0 HIT:          0 MISS:          0
cpu0_STLB RFO          ACCESS:          0 HIT:          0 MISS:          0
cpu0_STLB PREFETCH     ACCESS:          0 HIT:          0 MISS:          0
cpu0_STLB WRITE        ACCESS:          0 HIT:          0 MISS:          0
cpu0_STLB TRANSLATION  ACCESS:          0 HIT:          0 MISS:          0
cpu0_STLB PREFETCH REQUESTED:          0 ISSUED:          0 USEFUL:          0 USELESS:          0
cpu0_STLB AVERAGE MISS LATENCY: 613.4 cycles
cpu1_DTLB TOTAL        ACCESS:          0 HIT:          0 MISS:          0
cpu1_DTLB LOAD         ACCESS:          0 HIT:          0 MISS:          0
cpu1_DTLB RFO          ACCESS:          0 HIT:          0 MISS:          0
cpu1_DTLB PREFETCH     ACCESS:          0 HIT:          0 MISS:          0
cpu1_DTLB WRITE        ACCESS:          0 HIT:          0 MISS:          0
cpu1_DTLB TRANSLATION  ACCESS:          0 HIT:          0 MISS:          0
cpu1_DTLB PREFETCH REQUESTED:          0 ISSUED:          0 USEFUL:          0 USELESS:          0
cpu1_DTLB AVERAGE MISS LATENCY: 26.76 cycles
cpu1_DTLB TOTAL        ACCESS:   16084879 HIT:   15959139 MISS:     125740
cpu1_DTLB LOAD         ACCESS:   16084879 HIT:   15959139 MISS:     125740
cpu1_DTLB RFO          ACCESS:          0 HIT:          0 MISS:          0
cpu1_DTLB PREFETCH     ACCESS:          0 HIT:          0 MISS:          0
cpu1_DTLB WRITE        ACCESS:          0 HIT:          0 MISS:          0
cpu1_DTLB TRANSLATION  ACCESS:          0 HIT:          0 MISS:          0
cpu1_DTLB PREFETCH REQUESTED:          0 ISSUED:          0 USEFUL:          0 USELESS:          0
cpu1_DTLB AVERAGE MISS LATENCY: 26.76 cycles
cpu1_DTLB TOTAL        ACCESS:          0 HIT:          0 MISS:          0
cpu1_DTLB LOAD         ACCESS:          0 HIT:          0 MISS:          0
cpu1_DTLB RFO          ACCESS:          0 HIT:          0 MISS:          0
cpu1_DTLB PREFETCH     ACCESS:          0 HIT:          0 MISS:          0
cpu1_DTLB WRITE        ACCESS:          0 HIT:          0 MISS:          0
cpu1_DTLB TRANSLATION  ACCESS:          0 HIT:          0 MISS:          0
cpu1_DTLB PREFETCH REQUESTED:          0 ISSUED:          0 USEFUL:          0 USELESS:          0
cpu1_DTLB AVERAGE MISS LATENCY: 26.76 cycles
cpu1_DTLB TOTAL        ACCESS:          0 HIT:          0 MISS:          0
cpu1_DTLB LOAD         ACCESS:          0 HIT:          0 MISS:          0
cpu1_DTLB RFO          ACCESS:          0 HIT:          0 MISS:          0
cpu1_DTLB PREFETCH     ACCESS:          0 HIT:          0 MISS:          0
cpu1_DTLB WRITE        ACCESS:          0 HIT:          0 MISS:          0
cpu1_DTLB TRANSLATION  ACCESS:          0 HIT:          0 MISS:          0
cpu1_DTLB PREFETCH REQUESTED:          0 ISSUED:          0 USEFUL:          0 USELESS:          0
cpu1_DTLB AVERAGE MISS LATENCY: 26.76 cycles
cpu1_ITLB TOTAL        ACCESS:          0 HIT:          0 MISS:          0
cpu1_ITLB LOAD         ACCESS:          0 HIT:          0 MISS:          0
cpu1_ITLB RFO          ACCESS:          0 HIT:          0 MISS:          0
cpu1_ITLB PREFETCH     ACCESS:          0 HIT:          0 MISS:          0
cpu1_ITLB WRITE        ACCESS:          0 HIT:          0 MISS:          0
cpu1_ITLB TRANSLATION  ACCESS:          0 HIT:          0 MISS:          0
cpu1_ITLB PREFETCH REQUESTED:          0 ISSUED:          0 USEFUL:          0 USELESS:          0
cpu1_ITLB AVERAGE MISS LATENCY: -nan cycles
cpu1_ITLB TOTAL        ACCESS:          0 HIT:          0 MISS:          0
cpu1_ITLB LOAD         ACCESS:          0 HIT:          0 MISS:          0
cpu1_ITLB RFO          ACCESS:          0 HIT:          0 MISS:          0
cpu1_ITLB PREFETCH     ACCESS:          0 HIT:          0 MISS:          0
cpu1_ITLB WRITE        ACCESS:          0 HIT:          0 MISS:          0
cpu1_ITLB TRANSLATION  ACCESS:          0 HIT:          0 MISS:          0
cpu1_ITLB PREFETCH REQUESTED:          0 ISSUED:          0 USEFUL:          0 USELESS:          0
cpu1_ITLB AVERAGE MISS LATENCY: -nan cycles
cpu1_ITLB TOTAL        ACCESS:          0 HIT:          0 MISS:          0
cpu1_ITLB LOAD         ACCESS:          0 HIT:          0 MISS:          0
cpu1_ITLB RFO          ACCESS:          0 HIT:          0 MISS:          0
cpu1_ITLB PREFETCH     ACCESS:          0 HIT:          0 MISS:          0
cpu1_ITLB WRITE        ACCESS:          0 HIT:          0 MISS:          0
cpu1_ITLB TRANSLATION  ACCESS:          0 HIT:          0 MISS:          0
cpu1_ITLB PREFETCH REQUESTED:          0 ISSUED:          0 USEFUL:          0 USELESS:          0
cpu1_ITLB AVERAGE MISS LATENCY: -nan cycles
cpu1_ITLB TOTAL        ACCESS:          0 HIT:          0 MISS:          0
cpu1_ITLB LOAD         ACCESS:          0 HIT:          0 MISS:          0
cpu1_ITLB RFO          ACCESS:          0 HIT:          0 MISS:          0
cpu1_ITLB PREFETCH     ACCESS:          0 HIT:          0 MISS:          0
cpu1_ITLB WRITE        ACCESS:          0 HIT:          0 MISS:          0
cpu1_ITLB TRANSLATION  ACCESS:          0 HIT:          0 MISS:          0
cpu1_ITLB PREFETCH REQUESTED:          0 ISSUED:          0 USEFUL:          0 USELESS:          0
cpu1_ITLB AVERAGE MISS LATENCY: -nan cycles
cpu1_L1D TOTAL        ACCESS:          0 HIT:          0 MISS:          0
cpu1_L1D LOAD         ACCESS:          0 HIT:          0 MISS:          0
cpu1_L1D RFO          ACCESS:          0 HIT:          0 MISS:          0
cpu1_L1D PREFETCH     ACCESS:          0 HIT:          0 MISS:          0
cpu1_L1D WRITE        ACCESS:          0 HIT:          0 MISS:          0
cpu1_L1D TRANSLATION  ACCESS:          0 HIT:          0 MISS:          0
cpu1_L1D PREFETCH REQUESTED:          0 ISSUED:          0 USEFUL:          0 USELESS:          0
cpu1_L1D AVERAGE MISS LATENCY: 101.2 cycles
cpu1_L1D TOTAL        ACCESS:   23957637 HIT:   20575854 MISS:    3381783
cpu1_L1D LOAD         ACCESS:   13406149 HIT:   10034175 MISS:    3371974
cpu1_L1D RFO          ACCESS:          0 HIT:          0 MISS:          0
cpu1_L1D PREFETCH     ACCESS:          0 HIT:          0 MISS:          0
cpu1_L1D WRITE        ACCESS:   10530828 HIT:   10521831 MISS:       8997
cpu1_L1D TRANSLATION  ACCESS:      20660 HIT:      19848 MISS:        812
cpu1_L1D PREFETCH REQUESTED:          0 ISSUED:          0 USEFUL:          0 USELESS:          0
cpu1_L1D AVERAGE MISS LATENCY: 101.2 cycles
cpu1_L1D TOTAL        ACCESS:          0 HIT:          0 MISS:          0
cpu1_L1D LOAD         ACCESS:          0 HIT:          0 MISS:          0
cpu1_L1D RFO          ACCESS:          0 HIT:          0 MISS:          0
cpu1_L1D PREFETCH     ACCESS:          0 HIT:          0 MISS:          0
cpu1_L1D WRITE        ACCESS:          0 HIT:          0 MISS:          0
cpu1_L1D TRANSLATION  ACCESS:          0 HIT:          0 MISS:          0
cpu1_L1D PREFETCH REQUESTED:          0 ISSUED:          0 USEFUL:          0 USELESS:          0
cpu1_L1D AVERAGE MISS LATENCY: 101.2 cycles
cpu1_L1D TOTAL        ACCESS:          0 HIT:          0 MISS:          0
cpu1_L1D LOAD         ACCESS:          0 HIT:          0 MISS:          0
cpu1_L1D RFO          ACCESS:          0 HIT:          0 MISS:          0
cpu1_L1D PREFETCH     ACCESS:          0 HIT:          0 MISS:          0
cpu1_L1D WRITE        ACCESS:          0 HIT:          0 MISS:          0
cpu1_L1D TRANSLATION  ACCESS:          0 HIT:          0 MISS:          0
cpu1_L1D PREFETCH REQUESTED:          0 ISSUED:          0 USEFUL:          0 USELESS:          0
cpu1_L1D AVERAGE MISS LATENCY: 101.2 cycles
cpu1_L1I TOTAL        ACCESS:          0 HIT:          0 MISS:          0
cpu1_L1I LOAD         ACCESS:          0 HIT:          0 MISS:          0
cpu1_L1I RFO          ACCESS:          0 HIT:          0 MISS:          0
cpu1_L1I PREFETCH     ACCESS:          0 HIT:          0 MISS:          0
cpu1_L1I WRITE        ACCESS:          0 HIT:          0 MISS:          0
cpu1_L1I TRANSLATION  ACCESS:          0 HIT:          0 MISS:          0
cpu1_L1I PREFETCH REQUESTED:          0 ISSUED:          0 USEFUL:          0 USELESS:          0
cpu1_L1I AVERAGE MISS LATENCY: -nan cycles
cpu1_L1I TOTAL        ACCESS:          0 HIT:          0 MISS:          0
cpu1_L1I LOAD         ACCESS:          0 HIT:          0 MISS:          0
cpu1_L1I RFO          ACCESS:          0 HIT:          0 MISS:          0
cpu1_L1I PREFETCH     ACCESS:          0 HIT:          0 MISS:          0
cpu1_L1I WRITE        ACCESS:          0 HIT:          0 MISS:          0
cpu1_L1I TRANSLATION  ACCESS:          0 HIT:          0 MISS:          0
cpu1_L1I PREFETCH REQUESTED:          0 ISSUED:          0 USEFUL:          0 USELESS:          0
cpu1_L1I AVERAGE MISS LATENCY: -nan cycles
cpu1_L1I TOTAL        ACCESS:          0 HIT:          0 MISS:          0
cpu1_L1I LOAD         ACCESS:          0 HIT:          0 MISS:          0
cpu1_L1I RFO          ACCESS:          0 HIT:          0 MISS:          0
cpu1_L1I PREFETCH     ACCESS:          0 HIT:          0 MISS:          0
cpu1_L1I WRITE        ACCESS:          0 HIT:          0 MISS:          0
cpu1_L1I TRANSLATION  ACCESS:          0 HIT:          0 MISS:          0
cpu1_L1I PREFETCH REQUESTED:          0 ISSUED:          0 USEFUL:          0 USELESS:          0
cpu1_L1I AVERAGE MISS LATENCY: -nan cycles
cpu1_L1I TOTAL        ACCESS:          0 HIT:          0 MISS:          0
cpu1_L1I LOAD         ACCESS:          0 HIT:          0 MISS:          0
cpu1_L1I RFO          ACCESS:          0 HIT:          0 MISS:          0
cpu1_L1I PREFETCH     ACCESS:          0 HIT:          0 MISS:          0
cpu1_L1I WRITE        ACCESS:          0 HIT:          0 MISS:          0
cpu1_L1I TRANSLATION  ACCESS:          0 HIT:          0 MISS:          0
cpu1_L1I PREFETCH REQUESTED:          0 ISSUED:          0 USEFUL:          0 USELESS:          0
cpu1_L1I AVERAGE MISS LATENCY: -nan cycles
cpu1_L2C TOTAL        ACCESS:          0 HIT:          0 MISS:          0
cpu1_L2C LOAD         ACCESS:          0 HIT:          0 MISS:          0
cpu1_L2C RFO          ACCESS:          0 HIT:          0 MISS:          0
cpu1_L2C PREFETCH     ACCESS:          0 HIT:          0 MISS:          0
cpu1_L2C WRITE        ACCESS:          0 HIT:          0 MISS:          0
cpu1_L2C TRANSLATION  ACCESS:          0 HIT:          0 MISS:          0
cpu1_L2C PREFETCH REQUESTED:    8742206 ISSUED:    8739750 USEFUL:     860125 USELESS:         25
cpu1_L2C AVERAGE MISS LATENCY: 57.18 cycles
cpu1_L2C TOTAL        ACCESS:   12043366 HIT:    4291195 MISS:    7752171
cpu1_L2C LOAD         ACCESS:    1982769 HIT:     716674 MISS:    1266095
cpu1_L2C RFO          ACCESS:       2303 HIT:       1033 MISS:       1270
cpu1_L2C PREFETCH     ACCESS:    8739741 HIT:    2255201 MISS:    6484540
cpu1_L2C WRITE        ACCESS:    1317744 HIT:    1317744 MISS:          0
cpu1_L2C TRANSLATION  ACCESS:        809 HIT:        543 MISS:        266
cpu1_L2C PREFETCH REQUESTED:    8742206 ISSUED:    8739750 USEFUL:     860125 USELESS:         25
cpu1_L2C AVERAGE MISS LATENCY: 57.18 cycles
cpu1_L2C TOTAL        ACCESS:          0 HIT:          0 MISS:          0
cpu1_L2C LOAD         ACCESS:          0 HIT:          0 MISS:          0
cpu1_L2C RFO          ACCESS:          0 HIT:          0 MISS:          0
cpu1_L2C PREFETCH     ACCESS:          0 HIT:          0 MISS:          0
cpu1_L2C WRITE        ACCESS:          0 HIT:          0 MISS:          0
cpu1_L2C TRANSLATION  ACCESS:          0 HIT:          0 MISS:          0
cpu1_L2C PREFETCH REQUESTED:    8742206 ISSUED:    8739750 USEFUL:     860125 USELESS:         25
cpu1_L2C AVERAGE MISS LATENCY: 57.18 cycles
cpu1_L2C TOTAL        ACCESS:          0 HIT:          0 MISS:          0
cpu1_L2C LOAD         ACCESS:          0 HIT:          0 MISS:          0
cpu1_L2C RFO          ACCESS:          0 HIT:          0 MISS:          0
cpu1_L2C PREFETCH     ACCESS:          0 HIT:          0 MISS:          0
cpu1_L2C WRITE        ACCESS:          0 HIT:          0 MISS:          0
cpu1_L2C TRANSLATION  ACCESS:          0 HIT:          0 MISS:          0
cpu1_L2C PREFETCH REQUESTED:    8742206 ISSUED:    8739750 USEFUL:     860125 USELESS:         25
cpu1_L2C AVERAGE MISS LATENCY: 57.18 cycles
cpu1_STLB TOTAL        ACCESS:          0 HIT:          0 MISS:          0
cpu1_STLB LOAD         ACCESS:          0 HIT:          0 MISS:          0
cpu1_STLB RFO          ACCESS:          0 HIT:          0 MISS:          0
cpu1_STLB PREFETCH     ACCESS:          0 HIT:          0 MISS:          0
cpu1_STLB WRITE        ACCESS:          0 HIT:          0 MISS:          0
cpu1_STLB TRANSLATION  ACCESS:          0 HIT:          0 MISS:          0
cpu1_STLB PREFETCH REQUESTED:          0 ISSUED:          0 USEFUL:          0 USELESS:          0
cpu1_STLB AVERAGE MISS LATENCY: 211.7 cycles
cpu1_STLB TOTAL        ACCESS:      35022 HIT:      14439 MISS:      20583
cpu1_STLB LOAD         ACCESS:      35022 HIT:      14439 MISS:      20583
cpu1_STLB RFO          ACCESS:          0 HIT:          0 MISS:          0
cpu1_STLB PREFETCH     ACCESS:          0 HIT:          0 MISS:          0
cpu1_STLB WRITE        ACCESS:          0 HIT:          0 MISS:          0
cpu1_STLB TRANSLATION  ACCESS:          0 HIT:          0 MISS:          0
cpu1_STLB PREFETCH REQUESTED:          0 ISSUED:          0 USEFUL:          0 USELESS:          0
cpu1_STLB AVERAGE MISS LATENCY: 211.7 cycles
cpu1_STLB TOTAL        ACCESS:          0 HIT:          0 MISS:          0
cpu1_STLB LOAD         ACCESS:          0 HIT:          0 MISS:          0
cpu1_STLB RFO          ACCESS:          0 HIT:          0 MISS:          0
cpu1_STLB PREFETCH     ACCESS:          0 HIT:          0 MISS:          0
cpu1_STLB WRITE        ACCESS:          0 HIT:          0 MISS:          0
cpu1_STLB TRANSLATION  ACCESS:          0 HIT:          0 MISS:          0
cpu1_STLB PREFETCH REQUESTED:          0 ISSUED:          0 USEFUL:          0 USELESS:          0
cpu1_STLB AVERAGE MISS LATENCY: 211.7 cycles
cpu1_STLB TOTAL        ACCESS:          0 HIT:          0 MISS:          0
cpu1_STLB LOAD         ACCESS:          0 HIT:          0 MISS:          0
cpu1_STLB RFO          ACCESS:          0 HIT:          0 MISS:          0
cpu1_STLB PREFETCH     ACCESS:          0 HIT:          0 MISS:          0
cpu1_STLB WRITE        ACCESS:          0 HIT:          0 MISS:          0
cpu1_STLB TRANSLATION  ACCESS:          0 HIT:          0 MISS:          0
cpu1_STLB PREFETCH REQUESTED:          0 ISSUED:          0 USEFUL:          0 USELESS:          0
cpu1_STLB AVERAGE MISS LATENCY: 211.7 cycles
cpu2_DTLB TOTAL        ACCESS:          0 HIT:          0 MISS:          0
cpu2_DTLB LOAD         ACCESS:          0 HIT:          0 MISS:          0
cpu2_DTLB RFO          ACCESS:          0 HIT:          0 MISS:          0
cpu2_DTLB PREFETCH     ACCESS:          0 HIT:          0 MISS:          0
cpu2_DTLB WRITE        ACCESS:          0 HIT:          0 MISS:          0
cpu2_DTLB TRANSLATION  ACCESS:          0 HIT:          0 MISS:          0
cpu2_DTLB PREFETCH REQUESTED:          0 ISSUED:          0 USEFUL:          0 USELESS:          0
cpu2_DTLB AVERAGE MISS LATENCY: 7.82 cycles
cpu2_DTLB TOTAL        ACCESS:          0 HIT:          0 MISS:          0
cpu2_DTLB LOAD         ACCESS:          0 HIT:          0 MISS:          0
cpu2_DTLB RFO          ACCESS:          0 HIT:          0 MISS:          0
cpu2_DTLB PREFETCH     ACCESS:          0 HIT:          0 MISS:          0
cpu2_DTLB WRITE        ACCESS:          0 HIT:          0 MISS:          0
cpu2_DTLB TRANSLATION  ACCESS:          0 HIT:          0 MISS:          0
cpu2_DTLB PREFETCH REQUESTED:          0 ISSUED:          0 USEFUL:          0 USELESS:          0
cpu2_DTLB AVERAGE MISS LATENCY: 7.82 cycles
cpu2_DTLB TOTAL        ACCESS:   37846765 HIT:   30422365 MISS:    7424400
cpu2_DTLB LOAD         ACCESS:   37846765 HIT:   30422365 MISS:    7424400
cpu2_DTLB RFO          ACCESS:          0 HIT:          0 MISS:          0
cpu2_DTLB PREFETCH     ACCESS:          0 HIT:          0 MISS:          0
cpu2_DTLB WRITE        ACCESS:          0 HIT:          0 MISS:          0
cpu2_DTLB TRANSLATION  ACCESS:          0 HIT:          0 MISS:          0
cpu2_DTLB PREFETCH REQUESTED:          0 ISSUED:          0 USEFUL:          0 USELESS:          0
cpu2_DTLB AVERAGE MISS LATENCY: 7.82 cycles
cpu2_DTLB TOTAL        ACCESS:          0 HIT:          0 MISS:          0
cpu2_DTLB LOAD         ACCESS:          0 HIT:          0 MISS:          0
cpu2_DTLB RFO          ACCESS:          0 HIT:          0 MISS:          0
cpu2_DTLB PREFETCH     ACCESS:          0 HIT:          0 MISS:          0
cpu2_DTLB WRITE        ACCESS:          0 HIT:          0 MISS:          0
cpu2_DTLB TRANSLATION  ACCESS:          0 HIT:          0 MISS:          0
cpu2_DTLB PREFETCH REQUESTED:          0 ISSUED:          0 USEFUL:          0 USELESS:          0
cpu2_DTLB AVERAGE MISS LATENCY: 7.82 cycles
cpu2_ITLB TOTAL        ACCESS:          0 HIT:          0 MISS:          0
cpu2_ITLB LOAD         ACCESS:          0 HIT:          0 MISS:          0
cpu2_ITLB RFO          ACCESS:          0 HIT:          0 MISS:          0
cpu2_ITLB PREFETCH     ACCESS:          0 HIT:          0 MISS:          0
cpu2_ITLB WRITE        ACCESS:          0 HIT:          0 MISS:          0
cpu2_ITLB TRANSLATION  ACCESS:          0 HIT:          0 MISS:          0
cpu2_ITLB PREFETCH REQUESTED:          0 ISSUED:          0 USEFUL:          0 USELESS:          0
cpu2_ITLB AVERAGE MISS LATENCY: 6.401 cycles
cpu2_ITLB TOTAL        ACCESS:          0 HIT:          0 MISS:          0
cpu2_ITLB LOAD         ACCESS:          0 HIT:          0 MISS:          0
cpu2_ITLB RFO          ACCESS:          0 HIT:          0 MISS:          0
cpu2_ITLB PREFETCH     ACCESS:          0 HIT:          0 MISS:          0
cpu2_ITLB WRITE        ACCESS:          0 HIT:          0 MISS:          0
cpu2_ITLB TRANSLATION  ACCESS:          0 HIT:          0 MISS:          0
cpu2_ITLB PREFETCH REQUESTED:          0 ISSUED:          0 USEFUL:          0 USELESS:          0
cpu2_ITLB AVERAGE MISS LATENCY: 6.401 cycles
cpu2_ITLB TOTAL        ACCESS:    6710261 HIT:    6557455 MISS:     152806
cpu2_ITLB LOAD         ACCESS:    6710261 HIT:    6557455 MISS:     152806
cpu2_ITLB RFO          ACCESS:          0 HIT:          0 MISS:          0
cpu2_ITLB PREFETCH     ACCESS:          0 HIT:          0 MISS:          0
cpu2_ITLB WRITE        ACCESS:          0 HIT:          0 MISS:          0
cpu2_ITLB TRANSLATION  ACCESS:          0 HIT:          0 MISS:          0
cpu2_ITLB PREFETCH REQUESTED:          0 ISSUED:          0 USEFUL:          0 USELESS:          0
cpu2_ITLB AVERAGE MISS LATENCY: 6.401 cycles
cpu2_ITLB TOTAL        ACCESS:          0 HIT:          0 MISS:          0
cpu2_ITLB LOAD         ACCESS:          0 HIT:          0 MISS:          0
cpu2_ITLB RFO          ACCESS:          0 HIT:          0 MISS:          0
cpu2_ITLB PREFETCH     ACCESS:          0 HIT:          0 MISS:          0
cpu2_ITLB WRITE        ACCESS:          0 HIT:          0 MISS:          0
cpu2_ITLB TRANSLATION  ACCESS:          0 HIT:          0 MISS:          0
cpu2_ITLB PREFETCH REQUESTED:          0 ISSUED:          0 USEFUL:          0 USELESS:          0
cpu2_ITLB AVERAGE MISS LATENCY: 6.401 cycles
cpu2_L1D TOTAL        ACCESS:          0 HIT:          0 MISS:          0
cpu2_L1D LOAD         ACCESS:          0 HIT:          0 MISS:          0
cpu2_L1D RFO          ACCESS:          0 HIT:          0 MISS:          0
cpu2_L1D PREFETCH     ACCESS:          0 HIT:          0 MISS:          0
cpu2_L1D WRITE        ACCESS:          0 HIT:          0 MISS:          0
cpu2_L1D TRANSLATION  ACCESS:          0 HIT:          0 MISS:          0
cpu2_L1D PREFETCH REQUESTED:          0 ISSUED:          0 USEFUL:          0 USELESS:          0
cpu2_L1D AVERAGE MISS LATENCY: 40.28 cycles
cpu2_L1D TOTAL        ACCESS:          0 HIT:          0 MISS:          0
cpu2_L1D LOAD         ACCESS:          0 HIT:          0 MISS:          0
cpu2_L1D RFO          ACCESS:          0 HIT:          0 MISS:          0
cpu2_L1D PREFETCH     ACCESS:          0 HIT:          0 MISS:          0
cpu2_L1D WRITE        ACCESS:          0 HIT:          0 MISS:          0
cpu2_L1D TRANSLATION  ACCESS:          0 HIT:          0 MISS:          0
cpu2_L1D PREFETCH REQUESTED:          0 ISSUED:          0 USEFUL:          0 USELESS:          0
cpu2_L1D AVERAGE MISS LATENCY: 40.28 cycles
cpu2_L1D TOTAL        ACCESS:   47868006 HIT:   35897802 MISS:   11970204
cpu2_L1D LOAD         ACCESS:   33185017 HIT:   22631159 MISS:   10553858
cpu2_L1D RFO          ACCESS:          0 HIT:          0 MISS:          0
cpu2_L1D PREFETCH     ACCESS:          0 HIT:          0 MISS:          0
cpu2_L1D WRITE        ACCESS:   14356941 HIT:   13252001 MISS:    1104940
cpu2_L1D TRANSLATION  ACCESS:     326048 HIT:      14642 MISS:     311406
cpu2_L1D PREFETCH REQUESTED:          0 ISSUED:          0 USEFUL:          0 USELESS:          0
cpu2_L1D AVERAGE MISS LATENCY: 40.28 cycles
cpu2_L1D TOTAL        ACCESS:          0 HIT:          0 MISS:          0
cpu2_L1D LOAD         ACCESS:          0 HIT:          0 MISS:          0
cpu2_L1D RFO          ACCESS:          0 HIT:          0 MISS:          0
cpu2_L1D PREFETCH     ACCESS:          0 HIT:          0 MISS:          0
cpu2_L1D WRITE        ACCESS:          0 HIT:          0 MISS:          0
cpu2_L1D TRANSLATION  ACCESS:          0 HIT:          0 MISS:          0
cpu2_L1D PREFETCH REQUESTED:          0 ISSUED:          0 USEFUL:          0 USELESS:          0
cpu2_L1D AVERAGE MISS LATENCY: 40.28 cycles
cpu2_L1I TOTAL        ACCESS:          0 HIT:          0 MISS:          0
cpu2_L1I LOAD         ACCESS:          0 HIT:          0 MISS:          0
cpu2_L1I RFO          ACCESS:          0 HIT:          0 MISS:          0
cpu2_L1I PREFETCH     ACCESS:          0 HIT:          0 MISS:          0
cpu2_L1I WRITE        ACCESS:          0 HIT:          0 MISS:          0
cpu2_L1I TRANSLATION  ACCESS:          0 HIT:          0 MISS:          0
cpu2_L1I PREFETCH REQUESTED:          0 ISSUED:          0 USEFUL:          0 USELESS:          0
cpu2_L1I AVERAGE MISS LATENCY: 12.32 cycles
cpu2_L1I TOTAL        ACCESS:          0 HIT:          0 MISS:          0
cpu2_L1I LOAD         ACCESS:          0 HIT:          0 MISS:          0
cpu2_L1I RFO          ACCESS:          0 HIT:          0 MISS:          0
cpu2_L1I PREFETCH     ACCESS:          0 HIT:          0 MISS:          0
cpu2_L1I WRITE        ACCESS:          0 HIT:          0 MISS:          0
cpu2_L1I TRANSLATION  ACCESS:          0 HIT:          0 MISS:          0
cpu2_L1I PREFETCH REQUESTED:          0 ISSUED:          0 USEFUL:          0 USELESS:          0
cpu2_L1I AVERAGE MISS LATENCY: 12.32 cycles
cpu2_L1I TOTAL        ACCESS:    7996047 HIT:    7301724 MISS:     694323
cpu2_L1I LOAD         ACCESS:    7996047 HIT:    7301724 MISS:     694323
cpu2_L1I RFO          ACCESS:          0 HIT:          0 MISS:          0
cpu2_L1I PREFETCH     ACCESS:          0 HIT:          0 MISS:          0
cpu2_L1I WRITE        ACCESS:          0 HIT:          0 MISS:          0
cpu2_L1I TRANSLATION  ACCESS:          0 HIT:          0 MISS:          0
cpu2_L1I PREFETCH REQUESTED:          0 ISSUED:          0 USEFUL:          0 USELESS:          0
cpu2_L1I AVERAGE MISS LATENCY: 12.32 cycles
cpu2_L1I TOTAL        ACCESS:          0 HIT:          0 MISS:          0
cpu2_L1I LOAD         ACCESS:          0 HIT:          0 MISS:          0
cpu2_L1I RFO          ACCESS:          0 HIT:          0 MISS:          0
cpu2_L1I PREFETCH     ACCESS:          0 HIT:          0 MISS:          0
cpu2_L1I WRITE        ACCESS:          0 HIT:          0 MISS:          0
cpu2_L1I TRANSLATION  ACCESS:          0 HIT:          0 MISS:          0
cpu2_L1I PREFETCH REQUESTED:          0 ISSUED:          0 USEFUL:          0 USELESS:          0
cpu2_L1I AVERAGE MISS LATENCY: 12.32 cycles
cpu2_L2C TOTAL        ACCESS:          0 HIT:          0 MISS:          0
cpu2_L2C LOAD         ACCESS:          0 HIT:          0 MISS:          0
cpu2_L2C RFO          ACCESS:          0 HIT:          0 MISS:          0
cpu2_L2C PREFETCH     ACCESS:          0 HIT:          0 MISS:          0
cpu2_L2C WRITE        ACCESS:          0 HIT:          0 MISS:          0
cpu2_L2C TRANSLATION  ACCESS:          0 HIT:          0 MISS:          0
cpu2_L2C PREFETCH REQUESTED:   12462459 ISSUED:   11995967 USEFUL:       4763 USELESS:       6608
cpu2_L2C AVERAGE MISS LATENCY: 75.12 cycles
cpu2_L2C TOTAL        ACCESS:          0 HIT:          0 MISS:          0
cpu2_L2C LOAD         ACCESS:          0 HIT:          0 MISS:          0
cpu2_L2C RFO          ACCESS:          0 HIT:          0 MISS:          0
cpu2_L2C PREFETCH     ACCESS:          0 HIT:          0 MISS:          0
cpu2_L2C WRITE        ACCESS:          0 HIT:          0 MISS:          0
cpu2_L2C TRANSLATION  ACCESS:          0 HIT:          0 MISS:          0
cpu2_L2C PREFETCH REQUESTED:   12462459 ISSUED:   11995967 USEFUL:       4763 USELESS:       6608
cpu2_L2C AVERAGE MISS LATENCY: 75.12 cycles
cpu2_L2C TOTAL        ACCESS:   22552045 HIT:   17276862 MISS:    5275183
cpu2_L2C LOAD         ACCESS:    9519125 HIT:    9077810 MISS:     441315
cpu2_L2C RFO          ACCESS:     280811 HIT:      48449 MISS:     232362
cpu2_L2C PREFETCH     ACCESS:   11995967 HIT:    7436097 MISS:    4559870
cpu2_L2C WRITE        ACCESS:     444851 HIT:     444850 MISS:          1
cpu2_L2C TRANSLATION  ACCESS:     311291 HIT:     269656 MISS:      41635
cpu2_L2C PREFETCH REQUESTED:   12462459 ISSUED:   11995967 USEFUL:       4763 USELESS:       6608
cpu2_L2C AVERAGE MISS LATENCY: 75.12 cycles
cpu2_L2C TOTAL        ACCESS:          0 HIT:          0 MISS:          0
cpu2_L2C LOAD         ACCESS:          0 HIT:          0 MISS:          0
cpu2_L2C RFO          ACCESS:          0 HIT:          0 MISS:          0
cpu2_L2C PREFETCH     ACCESS:          0 HIT:          0 MISS:          0
cpu2_L2C WRITE        ACCESS:          0 HIT:          0 MISS:          0
cpu2_L2C TRANSLATION  ACCESS:          0 HIT:          0 MISS:          0
cpu2_L2C PREFETCH REQUESTED:   12462459 ISSUED:   11995967 USEFUL:       4763 USELESS:       6608
cpu2_L2C AVERAGE MISS LATENCY: 75.12 cycles
cpu2_STLB TOTAL        ACCESS:          0 HIT:          0 MISS:          0
cpu2_STLB LOAD         ACCESS:          0 HIT:          0 MISS:          0
cpu2_STLB RFO          ACCESS:          0 HIT:          0 MISS:          0
cpu2_STLB PREFETCH     ACCESS:          0 HIT:          0 MISS:          0
cpu2_STLB WRITE        ACCESS:          0 HIT:          0 MISS:          0
cpu2_STLB TRANSLATION  ACCESS:          0 HIT:          0 MISS:          0
cpu2_STLB PREFETCH REQUESTED:          0 ISSUED:          0 USEFUL:          0 USELESS:          0
cpu2_STLB AVERAGE MISS LATENCY: 75.21 cycles
cpu2_STLB TOTAL        ACCESS:          0 HIT:          0 MISS:          0
cpu2_STLB LOAD         ACCESS:          0 HIT:          0 MISS:          0
cpu2_STLB RFO          ACCESS:          0 HIT:          0 MISS:          0
cpu2_STLB PREFETCH     ACCESS:          0 HIT:          0 MISS:          0
cpu2_STLB WRITE        ACCESS:          0 HIT:          0 MISS:          0
cpu2_STLB TRANSLATION  ACCESS:          0 HIT:          0 MISS:          0
cpu2_STLB PREFETCH REQUESTED:          0 ISSUED:          0 USEFUL:          0 USELESS:          0
cpu2_STLB AVERAGE MISS LATENCY: 75.21 cycles
cpu2_STLB TOTAL        ACCESS:    5548944 HIT:    5223928 MISS:     325016
cpu2_STLB LOAD         ACCESS:    5548944 HIT:    5223928 MISS:     325016
cpu2_STLB RFO          ACCESS:          0 HIT:          0 MISS:          0
cpu2_STLB PREFETCH     ACCESS:          0 HIT:          0 MISS:          0
cpu2_STLB WRITE        ACCESS:          0 HIT:          0 MISS:          0
cpu2_STLB TRANSLATION  ACCESS:          0 HIT:          0 MISS:          0
cpu2_STLB PREFETCH REQUESTED:          0 ISSUED:          0 USEFUL:          0 USELESS:          0
cpu2_STLB AVERAGE MISS LATENCY: 75.21 cycles
cpu2_STLB TOTAL        ACCESS:          0 HIT:          0 MISS:          0
cpu2_STLB LOAD         ACCESS:          0 HIT:          0 MISS:          0
cpu2_STLB RFO          ACCESS:          0 HIT:          0 MISS:          0
cpu2_STLB PREFETCH     ACCESS:          0 HIT:          0 MISS:          0
cpu2_STLB WRITE        ACCESS:          0 HIT:          0 MISS:          0
cpu2_STLB TRANSLATION  ACCESS:          0 HIT:          0 MISS:          0
cpu2_STLB PREFETCH REQUESTED:          0 ISSUED:          0 USEFUL:          0 USELESS:          0
cpu2_STLB AVERAGE MISS LATENCY: 75.21 cycles
cpu3_DTLB TOTAL        ACCESS:          0 HIT:          0 MISS:          0
cpu3_DTLB LOAD         ACCESS:          0 HIT:          0 MISS:          0
cpu3_DTLB RFO          ACCESS:          0 HIT:          0 MISS:          0
cpu3_DTLB PREFETCH     ACCESS:          0 HIT:          0 MISS:          0
cpu3_DTLB WRITE        ACCESS:          0 HIT:          0 MISS:          0
cpu3_DTLB TRANSLATION  ACCESS:          0 HIT:          0 MISS:          0
cpu3_DTLB PREFETCH REQUESTED:          0 ISSUED:          0 USEFUL:          0 USELESS:          0
cpu3_DTLB AVERAGE MISS LATENCY: 11.25 cycles
cpu3_DTLB TOTAL        ACCESS:          0 HIT:          0 MISS:          0
cpu3_DTLB LOAD         ACCESS:          0 HIT:          0 MISS:          0
cpu3_DTLB RFO          ACCESS:          0 HIT:          0 MISS:          0
cpu3_DTLB PREFETCH     ACCESS:          0 HIT:          0 MISS:          0
cpu3_DTLB WRITE        ACCESS:          0 HIT:          0 MISS:          0
cpu3_DTLB TRANSLATION  ACCESS:          0 HIT:          0 MISS:          0
cpu3_DTLB PREFETCH REQUESTED:          0 ISSUED:          0 USEFUL:          0 USELESS:          0
cpu3_DTLB AVERAGE MISS LATENCY: 11.25 cycles
cpu3_DTLB TOTAL        ACCESS:          0 HIT:          0 MISS:          0
cpu3_DTLB LOAD         ACCESS:          0 HIT:          0 MISS:          0
cpu3_DTLB RFO          ACCESS:          0 HIT:          0 MISS:          0
cpu3_DTLB PREFETCH     ACCESS:          0 HIT:          0 MISS:          0
cpu3_DTLB WRITE        ACCESS:          0 HIT:          0 MISS:          0
cpu3_DTLB TRANSLATION  ACCESS:          0 HIT:          0 MISS:          0
cpu3_DTLB PREFETCH REQUESTED:          0 ISSUED:          0 USEFUL:          0 USELESS:          0
cpu3_DTLB AVERAGE MISS LATENCY: 11.25 cycles
cpu3_DTLB TOTAL        ACCESS:   36696125 HIT:   36494664 MISS:     201461
cpu3_DTLB LOAD         ACCESS:   36696125 HIT:   36494664 MISS:     201461
cpu3_DTLB RFO          ACCESS:          0 HIT:          0 MISS:          0
cpu3_DTLB PREFETCH     ACCESS:          0 HIT:          0 MISS:          0
cpu3_DTLB WRITE        ACCESS:          0 HIT:          0 MISS:          0
cpu3_DTLB TRANSLATION  ACCESS:          0 HIT:          0 MISS:          0
cpu3_DTLB PREFETCH REQUESTED:          0 ISSUED:          0 USEFUL:          0 USELESS:          0
cpu3_DTLB AVERAGE MISS LATENCY: 11.25 cycles
cpu3_ITLB TOTAL        ACCESS:          0 HIT:          0 MISS:          0
cpu3_ITLB LOAD         ACCESS:          0 HIT:          0 MISS:          0
cpu3_ITLB RFO          ACCESS:          0 HIT:          0 MISS:          0
cpu3_ITLB PREFETCH     ACCESS:          0 HIT:          0 MISS:          0
cpu3_ITLB WRITE        ACCESS:          0 HIT:          0 MISS:          0
cpu3_ITLB TRANSLATION  ACCESS:          0 HIT:          0 MISS:          0
cpu3_ITLB PREFETCH REQUESTED:          0 ISSUED:          0 USEFUL:          0 USELESS:          0
cpu3_ITLB AVERAGE MISS LATENCY: 738.5 cycles
cpu3_ITLB TOTAL        ACCESS:          0 HIT:          0 MISS:          0
cpu3_ITLB LOAD         ACCESS:          0 HIT:          0 MISS:          0
cpu3_ITLB RFO          ACCESS:          0 HIT:          0 MISS:          0
cpu3_ITLB PREFETCH     ACCESS:          0 HIT:          0 MISS:          0
cpu3_ITLB WRITE        ACCESS:          0 HIT:          0 MISS:          0
cpu3_ITLB TRANSLATION  ACCESS:          0 HIT:          0 MISS:          0
cpu3_ITLB PREFETCH REQUESTED:          0 ISSUED:          0 USEFUL:          0 USELESS:          0
cpu3_ITLB AVERAGE MISS LATENCY: 738.5 cycles
cpu3_ITLB TOTAL        ACCESS:          0 HIT:          0 MISS:          0
cpu3_ITLB LOAD         ACCESS:          0 HIT:          0 MISS:          0
cpu3_ITLB RFO          ACCESS:          0 HIT:          0 MISS:          0
cpu3_ITLB PREFETCH     ACCESS:          0 HIT:          0 MISS:          0
cpu3_ITLB WRITE        ACCESS:          0 HIT:          0 MISS:          0
cpu3_ITLB TRANSLATION  ACCESS:          0 HIT:          0 MISS:          0
cpu3_ITLB PREFETCH REQUESTED:          0 ISSUED:          0 USEFUL:          0 USELESS:          0
cpu3_ITLB AVERAGE MISS LATENCY: 738.5 cycles
cpu3_ITLB TOTAL        ACCESS:    2282369 HIT:    2282327 MISS:         42
cpu3_ITLB LOAD         ACCESS:    2282369 HIT:    2282327 MISS:         42
cpu3_ITLB RFO          ACCESS:          0 HIT:          0 MISS:          0
cpu3_ITLB PREFETCH     ACCESS:          0 HIT:          0 MISS:          0
cpu3_ITLB WRITE        ACCESS:          0 HIT:          0 MISS:          0
cpu3_ITLB TRANSLATION  ACCESS:          0 HIT:          0 MISS:          0
cpu3_ITLB PREFETCH REQUESTED:          0 ISSUED:          0 USEFUL:          0 USELESS:          0
cpu3_ITLB AVERAGE MISS LATENCY: 738.5 cycles
cpu3_L1D TOTAL        ACCESS:          0 HIT:          0 MISS:          0
cpu3_L1D LOAD         ACCESS:          0 HIT:          0 MISS:          0
cpu3_L1D RFO          ACCESS:          0 HIT:          0 MISS:          0
cpu3_L1D PREFETCH     ACCESS:          0 HIT:          0 MISS:          0
cpu3_L1D WRITE        ACCESS:          0 HIT:          0 MISS:          0
cpu3_L1D TRANSLATION  ACCESS:          0 HIT:          0 MISS:          0
cpu3_L1D PREFETCH REQUESTED:          0 ISSUED:          0 USEFUL:          0 USELESS:          0
cpu3_L1D AVERAGE MISS LATENCY: 458.3 cycles
cpu3_L1D TOTAL        ACCESS:          0 HIT:          0 MISS:          0
cpu3_L1D LOAD         ACCESS:          0 HIT:          0 MISS:          0
cpu3_L1D RFO          ACCESS:          0 HIT:          0 MISS:          0
cpu3_L1D PREFETCH     ACCESS:          0 HIT:          0 MISS:          0
cpu3_L1D WRITE        ACCESS:          0 HIT:          0 MISS:          0
cpu3_L1D TRANSLATION  ACCESS:          0 HIT:          0 MISS:          0
cpu3_L1D PREFETCH REQUESTED:          0 ISSUED:          0 USEFUL:          0 USELESS:          0
cpu3_L1D AVERAGE MISS LATENCY: 458.3 cycles
cpu3_L1D TOTAL        ACCESS:          0 HIT:          0 MISS:          0
cpu3_L1D LOAD         ACCESS:          0 HIT:          0 MISS:          0
cpu3_L1D RFO          ACCESS:          0 HIT:          0 MISS:          0
cpu3_L1D PREFETCH     ACCESS:          0 HIT:          0 MISS:          0
cpu3_L1D WRITE        ACCESS:          0 HIT:          0 MISS:          0
cpu3_L1D TRANSLATION  ACCESS:          0 HIT:          0 MISS:          0
cpu3_L1D PREFETCH REQUESTED:          0 ISSUED:          0 USEFUL:          0 USELESS:          0
cpu3_L1D AVERAGE MISS LATENCY: 458.3 cycles
cpu3_L1D TOTAL        ACCESS:   45612252 HIT:   45558210 MISS:      54042
cpu3_L1D LOAD         ACCESS:   32772658 HIT:   32755036 MISS:      17622
cpu3_L1D RFO          ACCESS:          0 HIT:          0 MISS:          0
cpu3_L1D PREFETCH     ACCESS:          0 HIT:          0 MISS:          0
cpu3_L1D WRITE        ACCESS:   12838751 HIT:   12803011 MISS:      35740
cpu3_L1D TRANSLATION  ACCESS:        843 HIT:        163 MISS:        680
cpu3_L1D PREFETCH REQUESTED:          0 ISSUED:          0 USEFUL:          0 USELESS:          0
cpu3_L1D AVERAGE MISS LATENCY: 458.3 cycles
cpu3_L1I TOTAL        ACCESS:          0 HIT:          0 MISS:          0
cpu3_L1I LOAD         ACCESS:          0 HIT:          0 MISS:          0
cpu3_L1I RFO          ACCESS:          0 HIT:          0 MISS:          0
cpu3_L1I PREFETCH     ACCESS:          0 HIT:          0 MISS:          0
cpu3_L1I WRITE        ACCESS:          0 HIT:          0 MISS:          0
cpu3_L1I TRANSLATION  ACCESS:          0 HIT:          0 MISS:          0
cpu3_L1I PREFETCH REQUESTED:          0 ISSUED:          0 USEFUL:          0 USELESS:          0
cpu3_L1I AVERAGE MISS LATENCY: 8.107 cycles
cpu3_L1I TOTAL        ACCESS:          0 HIT:          0 MISS:          0
cpu3_L1I LOAD         ACCESS:          0 HIT:          0 MISS:          0
cpu3_L1I RFO          ACCESS:          0 HIT:          0 MISS:          0
cpu3_L1I PREFETCH     ACCESS:          0 HIT:          0 MISS:          0
cpu3_L1I WRITE        ACCESS:          0 HIT:          0 MISS:          0
cpu3_L1I TRANSLATION  ACCESS:          0 HIT:          0 MISS:          0
cpu3_L1I PREFETCH REQUESTED:          0 ISSUED:          0 USEFUL:          0 USELESS:          0
cpu3_L1I AVERAGE MISS LATENCY: 8.107 cycles
cpu3_L1I TOTAL        ACCESS:          0 HIT:          0 MISS:          0
cpu3_L1I LOAD         ACCESS:          0 HIT:          0 MISS:          0
cpu3_L1I RFO          ACCESS:          0 HIT:          0 MISS:          0
cpu3_L1I PREFETCH     ACCESS:          0 HIT:          0 MISS:          0
cpu3_L1I WRITE        ACCESS:          0 HIT:          0 MISS:          0
cpu3_L1I TRANSLATION  ACCESS:          0 HIT:          0 MISS:          0
cpu3_L1I PREFETCH REQUESTED:          0 ISSUED:          0 USEFUL:          0 USELESS:          0
cpu3_L1I AVERAGE MISS LATENCY: 8.107 cycles
cpu3_L1I TOTAL        ACCESS:    2789018 HIT:    2340008 MISS:     449010
cpu3_L1I LOAD         ACCESS:    2789018 HIT:    2340008 MISS:     449010
cpu3_L1I RFO          ACCESS:          0 HIT:          0 MISS:          0
cpu3_L1I PREFETCH     ACCESS:          0 HIT:          0 MISS:          0
cpu3_L1I WRITE        ACCESS:          0 HIT:          0 MISS:          0
cpu3_L1I TRANSLATION  ACCESS:          0 HIT:          0 MISS:          0
cpu3_L1I PREFETCH REQUESTED:          0 ISSUED:          0 USEFUL:          0 USELESS:          0
cpu3_L1I AVERAGE MISS LATENCY: 8.107 cycles
cpu3_L2C TOTAL        ACCESS:          0 HIT:          0 MISS:          0
cpu3_L2C LOAD         ACCESS:          0 HIT:          0 MISS:          0
cpu3_L2C RFO          ACCESS:          0 HIT:          0 MISS:          0
cpu3_L2C PREFETCH     ACCESS:          0 HIT:          0 MISS:          0
cpu3_L2C WRITE        ACCESS:          0 HIT:          0 MISS:          0
cpu3_L2C TRANSLATION  ACCESS:          0 HIT:          0 MISS:          0
cpu3_L2C PREFETCH REQUESTED:     573209 ISSUED:     572502 USEFUL:        919 USELESS:        242
cpu3_L2C AVERAGE MISS LATENCY: 396.4 cycles
cpu3_L2C TOTAL        ACCESS:          0 HIT:          0 MISS:          0
cpu3_L2C LOAD         ACCESS:          0 HIT:          0 MISS:          0
cpu3_L2C RFO          ACCESS:          0 HIT:          0 MISS:          0
cpu3_L2C PREFETCH     ACCESS:          0 HIT:          0 MISS:          0
cpu3_L2C WRITE        ACCESS:          0 HIT:          0 MISS:          0
cpu3_L2C TRANSLATION  ACCESS:          0 HIT:          0 MISS:          0
cpu3_L2C PREFETCH REQUESTED:     573209 ISSUED:     572502 USEFUL:        919 USELESS:        242
cpu3_L2C AVERAGE MISS LATENCY: 396.4 cycles
cpu3_L2C TOTAL        ACCESS:          0 HIT:          0 MISS:          0
cpu3_L2C LOAD         ACCESS:          0 HIT:          0 MISS:          0
cpu3_L2C RFO          ACCESS:          0 HIT:          0 MISS:          0
cpu3_L2C PREFETCH     ACCESS:          0 HIT:          0 MISS:          0
cpu3_L2C WRITE        ACCESS:          0 HIT:          0 MISS:          0
cpu3_L2C TRANSLATION  ACCESS:          0 HIT:          0 MISS:          0
cpu3_L2C PREFETCH REQUESTED:     573209 ISSUED:     572502 USEFUL:        919 USELESS:        242
cpu3_L2C AVERAGE MISS LATENCY: 396.4 cycles
cpu3_L2C TOTAL        ACCESS:     924842 HIT:     847148 MISS:      77694
cpu3_L2C LOAD         ACCESS:     326255 HIT:     312234 MISS:      14021
cpu3_L2C RFO          ACCESS:      10339 HIT:        275 MISS:      10064
cpu3_L2C PREFETCH     ACCESS:     572502 HIT:     519406 MISS:      53096
cpu3_L2C WRITE        ACCESS:      15067 HIT:      15017 MISS:         50
cpu3_L2C TRANSLATION  ACCESS:        679 HIT:        216 MISS:        463
cpu3_L2C PREFETCH REQUESTED:     573209 ISSUED:     572502 USEFUL:        919 USELESS:        242
cpu3_L2C AVERAGE MISS LATENCY: 396.4 cycles
cpu3_STLB TOTAL        ACCESS:          0 HIT:          0 MISS:          0
cpu3_STLB LOAD         ACCESS:          0 HIT:          0 MISS:          0
cpu3_STLB RFO          ACCESS:          0 HIT:          0 MISS:          0
cpu3_STLB PREFETCH     ACCESS:          0 HIT:          0 MISS:          0
cpu3_STLB WRITE        ACCESS:          0 HIT:          0 MISS:          0
cpu3_STLB TRANSLATION  ACCESS:          0 HIT:          0 MISS:          0
cpu3_STLB PREFETCH REQUESTED:          0 ISSUED:          0 USEFUL:          0 USELESS:          0
cpu3_STLB AVERAGE MISS LATENCY: 1345 cycles
cpu3_STLB TOTAL        ACCESS:          0 HIT:          0 MISS:          0
cpu3_STLB LOAD         ACCESS:          0 HIT:          0 MISS:          0
cpu3_STLB RFO          ACCESS:          0 HIT:          0 MISS:          0
cpu3_STLB PREFETCH     ACCESS:          0 HIT:          0 MISS:          0
cpu3_STLB WRITE        ACCESS:          0 HIT:          0 MISS:          0
cpu3_STLB TRANSLATION  ACCESS:          0 HIT:          0 MISS:          0
cpu3_STLB PREFETCH REQUESTED:          0 ISSUED:          0 USEFUL:          0 USELESS:          0
cpu3_STLB AVERAGE MISS LATENCY: 1345 cycles
cpu3_STLB TOTAL        ACCESS:          0 HIT:          0 MISS:          0
cpu3_STLB LOAD         ACCESS:          0 HIT:          0 MISS:          0
cpu3_STLB RFO          ACCESS:          0 HIT:          0 MISS:          0
cpu3_STLB PREFETCH     ACCESS:          0 HIT:          0 MISS:          0
cpu3_STLB WRITE        ACCESS:          0 HIT:          0 MISS:          0
cpu3_STLB TRANSLATION  ACCESS:          0 HIT:          0 MISS:          0
cpu3_STLB PREFETCH REQUESTED:          0 ISSUED:          0 USEFUL:          0 USELESS:          0
cpu3_STLB AVERAGE MISS LATENCY: 1345 cycles
cpu3_STLB TOTAL        ACCESS:     180224 HIT:     179391 MISS:        833
cpu3_STLB LOAD         ACCESS:     180224 HIT:     179391 MISS:        833
cpu3_STLB RFO          ACCESS:          0 HIT:          0 MISS:          0
cpu3_STLB PREFETCH     ACCESS:          0 HIT:          0 MISS:          0
cpu3_STLB WRITE        ACCESS:          0 HIT:          0 MISS:          0
cpu3_STLB TRANSLATION  ACCESS:          0 HIT:          0 MISS:          0
cpu3_STLB PREFETCH REQUESTED:          0 ISSUED:          0 USEFUL:          0 USELESS:          0
cpu3_STLB AVERAGE MISS LATENCY: 1345 cycles

Region of Interest Statistics

CPU 0 cumulative IPC: 2.125 instructions: 150000003 cycles: 70572836
[...]
cpu2_L1I WRITE        ACCESS:          0 HIT:          0 MISS:          0
cpu2_L1I TRANSLATION  ACCESS:          0 HIT:          0 MISS:          0
cpu2_L1I PREFETCH REQUESTED:          0 ISSUED:          0 USEFUL:          0 USELESS:          0
cpu2_L1I AVERAGE MISS LATENCY: 12.32 cycles
cpu2_L1I TOTAL        ACCESS:          0 HIT:          0 MISS:          0
cpu2_L1I LOAD         ACCESS:          0 HIT:          0 MISS:          0
cpu2_L1I RFO          ACCESS:          0 HIT:          0 MISS:          0
cpu2_L1I PREFETCH     ACCESS:          0 HIT:          0 MISS:          0
cpu2_L1I WRITE        ACCESS:          0 HIT:          0 MISS:          0
cpu2_L1I TRANSLATION  ACCESS:          0 HIT:          0 MISS:          0
cpu2_L1I PREFETCH REQUESTED:          0 ISSUED:          0 USEFUL:          0 USELESS:          0
cpu2_L1I AVERAGE MISS LATENCY: 12.32 cycles
cpu2_L2C TOTAL        ACCESS:          0 HIT:          0 MISS:          0
cpu2_L2C LOAD         ACCESS:          0 HIT:          0 MISS:          0
cpu2_L2C RFO          ACCESS:          0 HIT:          0 MISS:          0
cpu2_L2C PREFETCH     ACCESS:          0 HIT:          0 MISS:          0
cpu2_L2C WRITE        ACCESS:          0 HIT:          0 MISS:          0
cpu2_L2C TRANSLATION  ACCESS:          0 HIT:          0 MISS:          0
cpu2_L2C PREFETCH REQUESTED:   12462459 ISSUED:   11995967 USEFUL:       4763 USELESS:       6608
cpu2_L2C AVERAGE MISS LATENCY: 75.12 cycles
cpu2_L2C TOTAL        ACCESS:          0 HIT:          0 MISS:          0
cpu2_L2C LOAD         ACCESS:          0 HIT:          0 MISS:          0
cpu2_L2C RFO          ACCESS:          0 HIT:          0 MISS:          0
cpu2_L2C PREFETCH     ACCESS:          0 HIT:          0 MISS:          0
cpu2_L2C WRITE        ACCESS:          0 HIT:          0 MISS:          0
cpu2_L2C TRANSLATION  ACCESS:          0 HIT:          0 MISS:          0
cpu2_L2C PREFETCH REQUESTED:   12462459 ISSUED:   11995967 USEFUL:       4763 USELESS:       6608
cpu2_L2C AVERAGE MISS LATENCY: 75.12 cycles
cpu2_L2C TOTAL        ACCESS:   18172096 HIT:   13971904 MISS:    4200192
cpu2_L2C LOAD         ACCESS:    7719553 HIT:    7368776 MISS:     350777
cpu2_L2C RFO          ACCESS:     187488 HIT:      37043 MISS:     150445
cpu2_L2C PREFETCH     ACCESS:    9695681 HIT:    6030667 MISS:    3665014
cpu2_L2C WRITE        ACCESS:     316838 HIT:     316837 MISS:          1
cpu2_L2C TRANSLATION  ACCESS:     252536 HIT:     218581 MISS:      33955
cpu2_L2C PREFETCH REQUESTED:   12462459 ISSUED:   11995967 USEFUL:       4763 USELESS:       6608
cpu2_L2C AVERAGE MISS LATENCY: 75.12 cycles
cpu2_L2C TOTAL        ACCESS:          0 HIT:          0 MISS:          0
cpu2_L2C LOAD         ACCESS:          0 HIT:          0 MISS:          0
cpu2_L2C RFO          ACCESS:          0 HIT:          0 MISS:          0
cpu2_L2C PREFETCH     ACCESS:          0 HIT:          0 MISS:          0
cpu2_L2C WRITE        ACCESS:          0 HIT:          0 MISS:          0
cpu2_L2C TRANSLATION  ACCESS:          0 HIT:          0 MISS:          0
cpu2_L2C PREFETCH REQUESTED:   12462459 ISSUED:   11995967 USEFUL:       4763 USELESS:       6608
cpu2_L2C AVERAGE MISS LATENCY: 75.12 cycles
cpu2_STLB TOTAL        ACCESS:          0 HIT:          0 MISS:          0
cpu2_STLB LOAD         ACCESS:          0 HIT:          0 MISS:          0
cpu2_STLB RFO          ACCESS:          0 HIT:          0 MISS:          0
cpu2_STLB PREFETCH     ACCESS:          0 HIT:          0 MISS:          0
cpu2_STLB WRITE        ACCESS:          0 HIT:          0 MISS:          0
cpu2_STLB TRANSLATION  ACCESS:          0 HIT:          0 MISS:          0
cpu2_STLB PREFETCH REQUESTED:          0 ISSUED:          0 USEFUL:          0 USELESS:          0
cpu2_STLB AVERAGE MISS LATENCY: 75.21 cycles
cpu2_STLB TOTAL        ACCESS:          0 HIT:          0 MISS:          0
cpu2_STLB LOAD         ACCESS:          0 HIT:          0 MISS:          0
cpu2_STLB RFO          ACCESS:          0 HIT:          0 MISS:          0
cpu2_STLB PREFETCH     ACCESS:          0 HIT:          0 MISS:          0
cpu2_STLB WRITE        ACCESS:          0 HIT:          0 MISS:          0
cpu2_STLB TRANSLATION  ACCESS:          0 HIT:          0 MISS:          0
cpu2_STLB PREFETCH REQUESTED:          0 ISSUED:          0 USEFUL:          0 USELESS:          0
cpu2_STLB AVERAGE MISS LATENCY: 75.21 cycles
cpu2_STLB TOTAL        ACCESS:    4474880 HIT:    4211174 MISS:     263706
cpu2_STLB LOAD         ACCESS:    4474880 HIT:    4211174 MISS:     263706
cpu2_STLB RFO          ACCESS:          0 HIT:          0 MISS:          0
cpu2_STLB PREFETCH     ACCESS:          0 HIT:          0 MISS:          0
cpu2_STLB WRITE        ACCESS:          0 HIT:          0 MISS:          0
cpu2_STLB TRANSLATION  ACCESS:          0 HIT:          0 MISS:          0
cpu2_STLB PREFETCH REQUESTED:          0 ISSUED:          0 USEFUL:          0 USELESS:          0
cpu2_STLB AVERAGE MISS LATENCY: 75.21 cycles
cpu2_STLB TOTAL        ACCESS:          0 HIT:          0 MISS:          0
cpu2_STLB LOAD         ACCESS:          0 HIT:          0 MISS:          0
cpu2_STLB RFO          ACCESS:          0 HIT:          0 MISS:          0
cpu2_STLB PREFETCH     ACCESS:          0 HIT:          0 MISS:          0
cpu2_STLB WRITE        ACCESS:          0 HIT:          0 MISS:          0
cpu2_STLB TRANSLATION  ACCESS:          0 HIT:          0 MISS:          0
cpu2_STLB PREFETCH REQUESTED:          0 ISSUED:          0 USEFUL:          0 USELESS:          0
cpu2_STLB AVERAGE MISS LATENCY: 75.21 cycles
cpu3_DTLB TOTAL        ACCESS:          0 HIT:          0 MISS:          0
cpu3_DTLB LOAD         ACCESS:          0 HIT:          0 MISS:          0
cpu3_DTLB RFO          ACCESS:          0 HIT:          0 MISS:          0
cpu3_DTLB PREFETCH     ACCESS:          0 HIT:          0 MISS:          0
cpu3_DTLB WRITE        ACCESS:          0 HIT:          0 MISS:          0
cpu3_DTLB TRANSLATION  ACCESS:          0 HIT:          0 MISS:          0
cpu3_DTLB PREFETCH REQUESTED:          0 ISSUED:          0 USEFUL:          0 USELESS:          0
cpu3_DTLB AVERAGE MISS LATENCY: 11.25 cycles
cpu3_DTLB TOTAL        ACCESS:          0 HIT:          0 MISS:          0
cpu3_DTLB LOAD         ACCESS:          0 HIT:          0 MISS:          0
cpu3_DTLB RFO          ACCESS:          0 HIT:          0 MISS:          0
cpu3_DTLB PREFETCH     ACCESS:          0 HIT:          0 MISS:          0
cpu3_DTLB WRITE        ACCESS:          0 HIT:          0 MISS:          0
cpu3_DTLB TRANSLATION  ACCESS:          0 HIT:          0 MISS:          0
cpu3_DTLB PREFETCH REQUESTED:          0 ISSUED:          0 USEFUL:          0 USELESS:          0
cpu3_DTLB AVERAGE MISS LATENCY: 11.25 cycles
cpu3_DTLB TOTAL        ACCESS:          0 HIT:          0 MISS:          0
cpu3_DTLB LOAD         ACCESS:          0 HIT:          0 MISS:          0
cpu3_DTLB RFO          ACCESS:          0 HIT:          0 MISS:          0
cpu3_DTLB PREFETCH     ACCESS:          0 HIT:          0 MISS:          0
cpu3_DTLB WRITE        ACCESS:          0 HIT:          0 MISS:          0
cpu3_DTLB TRANSLATION  ACCESS:          0 HIT:          0 MISS:          0
cpu3_DTLB PREFETCH REQUESTED:          0 ISSUED:          0 USEFUL:          0 USELESS:          0
cpu3_DTLB AVERAGE MISS LATENCY: 11.25 cycles
cpu3_DTLB TOTAL        ACCESS:   18011966 HIT:   18000069 MISS:      11897
cpu3_DTLB LOAD         ACCESS:   18011966 HIT:   18000069 MISS:      11897
cpu3_DTLB RFO          ACCESS:          0 HIT:          0 MISS:          0
cpu3_DTLB PREFETCH     ACCESS:          0 HIT:          0 MISS:          0
cpu3_DTLB WRITE        ACCESS:          0 HIT:          0 MISS:          0
cpu3_DTLB TRANSLATION  ACCESS:          0 HIT:          0 MISS:          0
cpu3_DTLB PREFETCH REQUESTED:          0 ISSUED:          0 USEFUL:          0 USELESS:          0
cpu3_DTLB AVERAGE MISS LATENCY: 11.25 cycles
cpu3_ITLB TOTAL        ACCESS:          0 HIT:          0 MISS:          0
cpu3_ITLB LOAD         ACCESS:          0 HIT:          0 MISS:          0
cpu3_ITLB RFO          ACCESS:          0 HIT:          0 MISS:          0
cpu3_ITLB PREFETCH     ACCESS:          0 HIT:          0 MISS:          0
cpu3_ITLB WRITE        ACCESS:          0 HIT:          0 MISS:          0
cpu3_ITLB TRANSLATION  ACCESS:          0 HIT:          0 MISS:          0
cpu3_ITLB PREFETCH REQUESTED:          0 ISSUED:          0 USEFUL:          0 USELESS:          0
cpu3_ITLB AVERAGE MISS LATENCY: 738.5 cycles
cpu3_ITLB TOTAL        ACCESS:          0 HIT:          0 MISS:          0
cpu3_ITLB LOAD         ACCESS:          0 HIT:          0 MISS:          0
cpu3_ITLB RFO          ACCESS:          0 HIT:          0 MISS:          0
cpu3_ITLB PREFETCH     ACCESS:          0 HIT:          0 MISS:          0
cpu3_ITLB WRITE        ACCESS:          0 HIT:          0 MISS:          0
cpu3_ITLB TRANSLATION  ACCESS:          0 HIT:          0 MISS:          0
cpu3_ITLB PREFETCH REQUESTED:          0 ISSUED:          0 USEFUL:          0 USELESS:          0
cpu3_ITLB AVERAGE MISS LATENCY: 738.5 cycles
cpu3_ITLB TOTAL        ACCESS:          0 HIT:          0 MISS:          0
cpu3_ITLB LOAD         ACCESS:          0 HIT:          0 MISS:          0
cpu3_ITLB RFO          ACCESS:          0 HIT:          0 MISS:          0
cpu3_ITLB PREFETCH     ACCESS:          0 HIT:          0 MISS:          0
cpu3_ITLB WRITE        ACCESS:          0 HIT:          0 MISS:          0
cpu3_ITLB TRANSLATION  ACCESS:          0 HIT:          0 MISS:          0
cpu3_ITLB PREFETCH REQUESTED:          0 ISSUED:          0 USEFUL:          0 USELESS:          0
cpu3_ITLB AVERAGE MISS LATENCY: 738.5 cycles
cpu3_ITLB TOTAL        ACCESS:     522284 HIT:     522284 MISS:          0
cpu3_ITLB LOAD         ACCESS:     522284 HIT:     522284 MISS:          0
cpu3_ITLB RFO          ACCESS:          0 HIT:          0 MISS:          0
cpu3_ITLB PREFETCH     ACCESS:          0 HIT:          0 MISS:          0
cpu3_ITLB WRITE        ACCESS:          0 HIT:          0 MISS:          0
cpu3_ITLB TRANSLATION  ACCESS:          0 HIT:          0 MISS:          0
cpu3_ITLB PREFETCH REQUESTED:          0 ISSUED:          0 USEFUL:          0 USELESS:          0
cpu3_ITLB AVERAGE MISS LATENCY: 738.5 cycles
cpu3_L1D TOTAL        ACCESS:          0 HIT:          0 MISS:          0
cpu3_L1D LOAD         ACCESS:          0 HIT:          0 MISS:          0
cpu3_L1D RFO          ACCESS:          0 HIT:          0 MISS:          0
cpu3_L1D PREFETCH     ACCESS:          0 HIT:          0 MISS:          0
cpu3_L1D WRITE        ACCESS:          0 HIT:          0 MISS:          0
cpu3_L1D TRANSLATION  ACCESS:          0 HIT:          0 MISS:          0
cpu3_L1D PREFETCH REQUESTED:          0 ISSUED:          0 USEFUL:          0 USELESS:          0
cpu3_L1D AVERAGE MISS LATENCY: 458.3 cycles
cpu3_L1D TOTAL        ACCESS:          0 HIT:          0 MISS:          0
cpu3_L1D LOAD         ACCESS:          0 HIT:          0 MISS:          0
cpu3_L1D RFO          ACCESS:          0 HIT:          0 MISS:          0
cpu3_L1D PREFETCH     ACCESS:          0 HIT:          0 MISS:          0
cpu3_L1D WRITE        ACCESS:          0 HIT:          0 MISS:          0
cpu3_L1D TRANSLATION  ACCESS:          0 HIT:          0 MISS:          0
cpu3_L1D PREFETCH REQUESTED:          0 ISSUED:          0 USEFUL:          0 USELESS:          0
cpu3_L1D AVERAGE MISS LATENCY: 458.3 cycles
cpu3_L1D TOTAL        ACCESS:          0 HIT:          0 MISS:          0
cpu3_L1D LOAD         ACCESS:          0 HIT:          0 MISS:          0
cpu3_L1D RFO          ACCESS:          0 HIT:          0 MISS:          0
cpu3_L1D PREFETCH     ACCESS:          0 HIT:          0 MISS:          0
cpu3_L1D WRITE        ACCESS:          0 HIT:          0 MISS:          0
cpu3_L1D TRANSLATION  ACCESS:          0 HIT:          0 MISS:          0
cpu3_L1D PREFETCH REQUESTED:          0 ISSUED:          0 USEFUL:          0 USELESS:          0
cpu3_L1D AVERAGE MISS LATENCY: 458.3 cycles
cpu3_L1D TOTAL        ACCESS:   22089184 HIT:   22076115 MISS:      13069
cpu3_L1D LOAD         ACCESS:   16487761 HIT:   16485029 MISS:       2732
cpu3_L1D RFO          ACCESS:          0 HIT:          0 MISS:          0
cpu3_L1D PREFETCH     ACCESS:          0 HIT:          0 MISS:          0
cpu3_L1D WRITE        ACCESS:    5601248 HIT:    5591068 MISS:      10180
cpu3_L1D TRANSLATION  ACCESS:        175 HIT:         18 MISS:        157
cpu3_L1D PREFETCH REQUESTED:          0 ISSUED:          0 USEFUL:          0 USELESS:          0
cpu3_L1D AVERAGE MISS LATENCY: 458.3 cycles
cpu3_L1I TOTAL        ACCESS:          0 HIT:          0 MISS:          0
cpu3_L1I LOAD         ACCESS:          0 HIT:          0 MISS:          0
cpu3_L1I RFO          ACCESS:          0 HIT:          0 MISS:          0
cpu3_L1I PREFETCH     ACCESS:          0 HIT:          0 MISS:          0
cpu3_L1I WRITE        ACCESS:          0 HIT:          0 MISS:          0
cpu3_L1I TRANSLATION  ACCESS:          0 HIT:          0 MISS:          0
cpu3_L1I PREFETCH REQUESTED:          0 ISSUED:          0 USEFUL:          0 USELESS:          0
cpu3_L1I AVERAGE MISS LATENCY: 8.107 cycles
cpu3_L1I TOTAL        ACCESS:          0 HIT:          0 MISS:          0
cpu3_L1I LOAD         ACCESS:          0 HIT:          0 MISS:          0
cpu3_L1I RFO          ACCESS:          0 HIT:          0 MISS:          0
cpu3_L1I PREFETCH     ACCESS:          0 HIT:          0 MISS:          0
cpu3_L1I WRITE        ACCESS:          0 HIT:          0 MISS:          0
cpu3_L1I TRANSLATION  ACCESS:          0 HIT:          0 MISS:          0
cpu3_L1I PREFETCH REQUESTED:          0 ISSUED:          0 USEFUL:          0 USELESS:          0
cpu3_L1I AVERAGE MISS LATENCY: 8.107 cycles
cpu3_L1I TOTAL        ACCESS:          0 HIT:          0 MISS:          0
cpu3_L1I LOAD         ACCESS:          0 HIT:          0 MISS:          0
cpu3_L1I RFO          ACCESS:          0 HIT:          0 MISS:          0
cpu3_L1I PREFETCH     ACCESS:          0 HIT:          0 MISS:          0
cpu3_L1I WRITE        ACCESS:          0 HIT:          0 MISS:          0
cpu3_L1I TRANSLATION  ACCESS:          0 HIT:          0 MISS:          0
cpu3_L1I PREFETCH REQUESTED:          0 ISSUED:          0 USEFUL:          0 USELESS:          0
cpu3_L1I AVERAGE MISS LATENCY: 8.107 cycles
cpu3_L1I TOTAL        ACCESS:     578482 HIT:     576982 MISS:       1500
cpu3_L1I LOAD         ACCESS:     578482 HIT:     576982 MISS:       1500
cpu3_L1I RFO          ACCESS:          0 HIT:          0 MISS:          0
cpu3_L1I PREFETCH     ACCESS:          0 HIT:          0 MISS:          0
cpu3_L1I WRITE        ACCESS:          0 HIT:          0 MISS:          0
cpu3_L1I TRANSLATION  ACCESS:          0 HIT:          0 MISS:          0
cpu3_L1I PREFETCH REQUESTED:          0 ISSUED:          0 USEFUL:          0 USELESS:          0
cpu3_L1I AVERAGE MISS LATENCY: 8.107 cycles
cpu3_L2C TOTAL        ACCESS:          0 HIT:          0 MISS:          0
cpu3_L2C LOAD         ACCESS:          0 HIT:          0 MISS:          0
cpu3_L2C RFO          ACCESS:          0 HIT:          0 MISS:          0
cpu3_L2C PREFETCH     ACCESS:          0 HIT:          0 MISS:          0
cpu3_L2C WRITE        ACCESS:          0 HIT:          0 MISS:          0
cpu3_L2C TRANSLATION  ACCESS:          0 HIT:          0 MISS:          0
cpu3_L2C PREFETCH REQUESTED:     573209 ISSUED:     572502 USEFUL:        919 USELESS:        242
cpu3_L2C AVERAGE MISS LATENCY: 396.4 cycles
cpu3_L2C TOTAL        ACCESS:          0 HIT:          0 MISS:          0
cpu3_L2C LOAD         ACCESS:          0 HIT:          0 MISS:          0
cpu3_L2C RFO          ACCESS:          0 HIT:          0 MISS:          0
cpu3_L2C PREFETCH     ACCESS:          0 HIT:          0 MISS:          0
cpu3_L2C WRITE        ACCESS:          0 HIT:          0 MISS:          0
cpu3_L2C TRANSLATION  ACCESS:          0 HIT:          0 MISS:          0
cpu3_L2C PREFETCH REQUESTED:     573209 ISSUED:     572502 USEFUL:        919 USELESS:        242
cpu3_L2C AVERAGE MISS LATENCY: 396.4 cycles
cpu3_L2C TOTAL        ACCESS:          0 HIT:          0 MISS:          0
cpu3_L2C LOAD         ACCESS:          0 HIT:          0 MISS:          0
cpu3_L2C RFO          ACCESS:          0 HIT:          0 MISS:          0
cpu3_L2C PREFETCH     ACCESS:          0 HIT:          0 MISS:          0
cpu3_L2C WRITE        ACCESS:          0 HIT:          0 MISS:          0
cpu3_L2C TRANSLATION  ACCESS:          0 HIT:          0 MISS:          0
cpu3_L2C PREFETCH REQUESTED:     573209 ISSUED:     572502 USEFUL:        919 USELESS:        242
cpu3_L2C AVERAGE MISS LATENCY: 396.4 cycles
cpu3_L2C TOTAL        ACCESS:      14704 HIT:       6541 MISS:       8163
cpu3_L2C LOAD         ACCESS:       2934 HIT:       1358 MISS:       1576
cpu3_L2C RFO          ACCESS:       2686 HIT:         65 MISS:       2621
cpu3_L2C PREFETCH     ACCESS:       5723 HIT:       1857 MISS:       3866
cpu3_L2C WRITE        ACCESS:       3204 HIT:       3204 MISS:          0
cpu3_L2C TRANSLATION  ACCESS:        157 HIT:         57 MISS:        100
cpu3_L2C PREFETCH REQUESTED:     573209 ISSUED:     572502 USEFUL:        919 USELESS:        242
cpu3_L2C AVERAGE MISS LATENCY: 396.4 cycles
cpu3_STLB TOTAL        ACCESS:          0 HIT:          0 MISS:          0
cpu3_STLB LOAD         ACCESS:          0 HIT:          0 MISS:          0
cpu3_STLB RFO          ACCESS:          0 HIT:          0 MISS:          0
cpu3_STLB PREFETCH     ACCESS:          0 HIT:          0 MISS:          0
cpu3_STLB WRITE        ACCESS:          0 HIT:          0 MISS:          0
cpu3_STLB TRANSLATION  ACCESS:          0 HIT:          0 MISS:          0
cpu3_STLB PREFETCH REQUESTED:          0 ISSUED:          0 USEFUL:          0 USELESS:          0
cpu3_STLB AVERAGE MISS LATENCY: 1345 cycles
cpu3_STLB TOTAL        ACCESS:          0 HIT:          0 MISS:          0
cpu3_STLB LOAD         ACCESS:          0 HIT:          0 MISS:          0
cpu3_STLB RFO          ACCESS:          0 HIT:          0 MISS:          0
cpu3_STLB PREFETCH     ACCESS:          0 HIT:          0 MISS:          0
cpu3_STLB WRITE        ACCESS:          0 HIT:          0 MISS:          0
cpu3_STLB TRANSLATION  ACCESS:          0 HIT:          0 MISS:          0
cpu3_STLB PREFETCH REQUESTED:          0 ISSUED:          0 USEFUL:          0 USELESS:          0
cpu3_STLB AVERAGE MISS LATENCY: 1345 cycles
cpu3_STLB TOTAL        ACCESS:          0 HIT:          0 MISS:          0
cpu3_STLB LOAD         ACCESS:          0 HIT:          0 MISS:          0
cpu3_STLB RFO          ACCESS:          0 HIT:          0 MISS:          0
cpu3_STLB PREFETCH     ACCESS:          0 HIT:          0 MISS:          0
cpu3_STLB WRITE        ACCESS:          0 HIT:          0 MISS:          0
cpu3_STLB TRANSLATION  ACCESS:          0 HIT:          0 MISS:          0
cpu3_STLB PREFETCH REQUESTED:          0 ISSUED:          0 USEFUL:          0 USELESS:          0
cpu3_STLB AVERAGE MISS LATENCY: 1345 cycles
cpu3_STLB TOTAL        ACCESS:      10599 HIT:      10424 MISS:        175
cpu3_STLB LOAD         ACCESS:      10599 HIT:      10424 MISS:        175
cpu3_STLB RFO          ACCESS:          0 HIT:          0 MISS:          0
cpu3_STLB PREFETCH     ACCESS:          0 HIT:          0 MISS:          0
cpu3_STLB WRITE        ACCESS:          0 HIT:          0 MISS:          0
cpu3_STLB TRANSLATION  ACCESS:          0 HIT:          0 MISS:          0
cpu3_STLB PREFETCH REQUESTED:          0 ISSUED:          0 USEFUL:          0 USELESS:          0
cpu3_STLB AVERAGE MISS LATENCY: 1345 cycles

DRAM Statistics

Channel 0 RQ ROW_BUFFER_HIT:     290531
  ROW_BUFFER_MISS:    1508396
 AVG DBUS CONGESTED CYCLE: 3.989
WQ ROW_BUFFER_HIT: Channel 0 
  ROW_BUFFER_MISS:      68640
  FULL:    1506980
