WARNING: physical memory size is smaller than virtual memory size.
WARNING: option --warmup_instructions is deprecated. Use --warmup-instructions instead.
WARNING: option --simulation_instructions is deprecated. Use --simulation-instructions instead.

*** ChampSim Multicore Out-of-Order Simulator ***
Warmup Instructions: 50000000
Simulation Instructions: 150000000
Number of CPUs: 4
Page size: 4096

Initialize SIGNATURE TABLE
ST_SET: 1
ST_WAY: 256
ST_TAG_BIT: 16
ST_TAG_MASK: ffff

Initialize PATTERN TABLE
PT_SET: 512
PT_WAY: 4
SIG_DELTA_BIT: 7
C_SIG_BIT: 4
C_DELTA_BIT: 4

Initialize PREFETCH FILTER
FILTER_SET: 1024
Initialize SIGNATURE TABLE
ST_SET: 1
ST_WAY: 256
ST_TAG_BIT: 16
ST_TAG_MASK: ffff

Initialize PATTERN TABLE
PT_SET: 512
PT_WAY: 4
SIG_DELTA_BIT: 7
C_SIG_BIT: 4
C_DELTA_BIT: 4

Initialize PREFETCH FILTER
FILTER_SET: 1024
Initialize SIGNATURE TABLE
ST_SET: 1
ST_WAY: 256
ST_TAG_BIT: 16
ST_TAG_MASK: ffff

Initialize PATTERN TABLE
PT_SET: 512
PT_WAY: 4
SIG_DELTA_BIT: 7
C_SIG_BIT: 4
C_DELTA_BIT: 4

Initialize PREFETCH FILTER
FILTER_SET: 1024
Initialize SIGNATURE TABLE
ST_SET: 1
ST_WAY: 256
ST_TAG_BIT: 16
ST_TAG_MASK: ffff

Initialize PATTERN TABLE
PT_SET: 512
PT_WAY: 4
SIG_DELTA_BIT: 7
C_SIG_BIT: 4
C_DELTA_BIT: 4

Initialize PREFETCH FILTER
FILTER_SET: 1024
Off-chip DRAM Size: 4 GiB Channels: 1 Width: 64-bit Data Race: 3200 MT/s
Heartbeat CPU 3 instructions: 10000001 cycles: 2502764 heartbeat IPC: 3.996 cumulative IPC: 3.996 (Simulation time: 00 hr 02 min 24 sec)
Heartbeat CPU 2 instructions: 10000002 cycles: 3064621 heartbeat IPC: 3.263 cumulative IPC: 3.263 (Simulation time: 00 hr 02 min 58 sec)
Heartbeat CPU 1 instructions: 10000001 cycles: 3682900 heartbeat IPC: 2.715 cumulative IPC: 2.715 (Simulation time: 00 hr 03 min 35 sec)
Heartbeat CPU 0 instructions: 10000002 cycles: 4175097 heartbeat IPC: 2.395 cumulative IPC: 2.395 (Simulation time: 00 hr 04 min 04 sec)
Heartbeat CPU 3 instructions: 20000001 cycles: 5005398 heartbeat IPC: 3.996 cumulative IPC: 3.996 (Simulation time: 00 hr 04 min 55 sec)
Heartbeat CPU 2 instructions: 20000002 cycles: 5749511 heartbeat IPC: 3.725 cumulative IPC: 3.479 (Simulation time: 00 hr 05 min 39 sec)
Heartbeat CPU 1 instructions: 20000003 cycles: 7364017 heartbeat IPC: 2.717 cumulative IPC: 2.716 (Simulation time: 00 hr 07 min 17 sec)
Heartbeat CPU 3 instructions: 30000003 cycles: 7507697 heartbeat IPC: 3.996 cumulative IPC: 3.996 (Simulation time: 00 hr 07 min 26 sec)
Heartbeat CPU 0 instructions: 20000003 cycles: 8347480 heartbeat IPC: 2.397 cumulative IPC: 2.396 (Simulation time: 00 hr 08 min 16 sec)
Heartbeat CPU 2 instructions: 30000001 cycles: 8969447 heartbeat IPC: 3.106 cumulative IPC: 3.345 (Simulation time: 00 hr 08 min 54 sec)
Heartbeat CPU 3 instructions: 40000000 cycles: 10010324 heartbeat IPC: 3.996 cumulative IPC: 3.996 (Simulation time: 00 hr 09 min 57 sec)
Heartbeat CPU 1 instructions: 30000002 cycles: 11046112 heartbeat IPC: 2.716 cumulative IPC: 2.716 (Simulation time: 00 hr 11 min 00 sec)
Heartbeat CPU 2 instructions: 40000004 cycles: 12222802 heartbeat IPC: 3.074 cumulative IPC: 3.273 (Simulation time: 00 hr 12 min 13 sec)
Heartbeat CPU 3 instructions: 50000001 cycles: 12513051 heartbeat IPC: 3.996 cumulative IPC: 3.996 (Simulation time: 00 hr 12 min 30 sec)
Warmup finished CPU 3 instructions: 50000001 cycles: 12513052 cumulative IPC: 3.996 (Simulation time: 00 hr 12 min 30 sec)
Heartbeat CPU 0 instructions: 30000001 cycles: 12520313 heartbeat IPC: 2.396 cumulative IPC: 2.396 (Simulation time: 00 hr 12 min 31 sec)
Heartbeat CPU 1 instructions: 40000004 cycles: 14725467 heartbeat IPC: 2.718 cumulative IPC: 2.716 (Simulation time: 00 hr 14 min 46 sec)
Heartbeat CPU 3 instructions: 60000001 cycles: 15015694 heartbeat IPC: 3.996 cumulative IPC: 3.996 (Simulation time: 00 hr 15 min 03 sec)
Heartbeat CPU 2 instructions: 50000000 cycles: 15376594 heartbeat IPC: 3.171 cumulative IPC: 3.252 (Simulation time: 00 hr 15 min 27 sec)
Warmup finished CPU 2 instructions: 50000000 cycles: 15376595 cumulative IPC: 3.252 (Simulation time: 00 hr 15 min 27 sec)
Heartbeat CPU 0 instructions: 40000000 cycles: 16707500 heartbeat IPC: 2.388 cumulative IPC: 2.394 (Simulation time: 00 hr 16 min 50 sec)
Heartbeat CPU 3 instructions: 70000000 cycles: 17520515 heartbeat IPC: 3.992 cumulative IPC: 3.995 (Simulation time: 00 hr 17 min 40 sec)
Heartbeat CPU 2 instructions: 60000003 cycles: 18085161 heartbeat IPC: 3.692 cumulative IPC: 3.318 (Simulation time: 00 hr 18 min 14 sec)
Heartbeat CPU 1 instructions: 50000002 cycles: 18407502 heartbeat IPC: 2.716 cumulative IPC: 2.716 (Simulation time: 00 hr 18 min 34 sec)
Warmup finished CPU 1 instructions: 50000002 cycles: 18407503 cumulative IPC: 2.716 (Simulation time: 00 hr 18 min 34 sec)
Heartbeat CPU 3 instructions: 80000000 cycles: 20022662 heartbeat IPC: 3.997 cumulative IPC: 3.995 (Simulation time: 00 hr 20 min 17 sec)
Heartbeat CPU 2 instructions: 70000000 cycles: 20812752 heartbeat IPC: 3.666 cumulative IPC: 3.363 (Simulation time: 00 hr 21 min 05 sec)
Heartbeat CPU 0 instructions: 50000003 cycles: 20874060 heartbeat IPC: 2.4 cumulative IPC: 2.395 (Simulation time: 00 hr 21 min 09 sec)
Warmup finished CPU 0 instructions: 50000003 cycles: 20874061 cumulative IPC: 2.395 (Simulation time: 00 hr 21 min 09 sec)
Warmup complete CPU 0 instructions: 50000003 cycles: 20874061 cumulative IPC: 2.395 (Simulation time: 00 hr 21 min 09 sec)
Warmup complete CPU 1 instructions: 56455801 cycles: 20874061 cumulative IPC: 2.705 (Simulation time: 00 hr 21 min 09 sec)
Warmup complete CPU 2 instructions: 70208839 cycles: 20874061 cumulative IPC: 3.363 (Simulation time: 00 hr 21 min 09 sec)
Warmup complete CPU 3 instructions: 83405592 cycles: 20874061 cumulative IPC: 3.996 (Simulation time: 00 hr 21 min 09 sec)
Heartbeat CPU 3 instructions: 90000004 cycles: 24046463 heartbeat IPC: 2.485 cumulative IPC: 2.079 (Simulation time: 00 hr 22 min 58 sec)
Heartbeat CPU 1 instructions: 60000004 cycles: 24926605 heartbeat IPC: 1.534 cumulative IPC: 0.8746 (Simulation time: 00 hr 23 min 30 sec)
Heartbeat CPU 3 instructions: 100000000 cycles: 28812069 heartbeat IPC: 2.098 cumulative IPC: 2.091 (Simulation time: 00 hr 25 min 54 sec)
Heartbeat CPU 2 instructions: 80000001 cycles: 32116411 heartbeat IPC: 0.8847 cumulative IPC: 0.8709 (Simulation time: 00 hr 27 min 57 sec)
Heartbeat CPU 3 instructions: 110000001 cycles: 33568337 heartbeat IPC: 2.102 cumulative IPC: 2.095 (Simulation time: 00 hr 28 min 51 sec)
Heartbeat CPU 1 instructions: 70000000 cycles: 35918769 heartbeat IPC: 0.9097 cumulative IPC: 0.9003 (Simulation time: 00 hr 30 min 18 sec)
Heartbeat CPU 3 instructions: 120000000 cycles: 38237782 heartbeat IPC: 2.142 cumulative IPC: 2.108 (Simulation time: 00 hr 31 min 41 sec)
Heartbeat CPU 2 instructions: 90000001 cycles: 40408018 heartbeat IPC: 1.206 cumulative IPC: 1.013 (Simulation time: 00 hr 33 min 07 sec)
Heartbeat CPU 3 instructions: 130000002 cycles: 43020455 heartbeat IPC: 2.091 cumulative IPC: 2.104 (Simulation time: 00 hr 34 min 38 sec)
Heartbeat CPU 1 instructions: 80000004 cycles: 46199999 heartbeat IPC: 0.9726 cumulative IPC: 0.9296 (Simulation time: 00 hr 36 min 40 sec)
Heartbeat CPU 3 instructions: 140000000 cycles: 47800132 heartbeat IPC: 2.092 cumulative IPC: 2.102 (Simulation time: 00 hr 37 min 38 sec)
Heartbeat CPU 2 instructions: 100000002 cycles: 50941889 heartbeat IPC: 0.9493 cumulative IPC: 0.9908 (Simulation time: 00 hr 39 min 39 sec)
Heartbeat CPU 3 instructions: 150000004 cycles: 52452859 heartbeat IPC: 2.149 cumulative IPC: 2.109 (Simulation time: 00 hr 40 min 37 sec)
Heartbeat CPU 3 instructions: 160000003 cycles: 57115205 heartbeat IPC: 2.145 cumulative IPC: 2.113 (Simulation time: 00 hr 43 min 33 sec)
Heartbeat CPU 1 instructions: 90000000 cycles: 57206693 heartbeat IPC: 0.9085 cumulative IPC: 0.9233 (Simulation time: 00 hr 43 min 37 sec)
Heartbeat CPU 2 instructions: 110000004 cycles: 59453785 heartbeat IPC: 1.175 cumulative IPC: 1.031 (Simulation time: 00 hr 45 min 01 sec)
Heartbeat CPU 3 instructions: 170000003 cycles: 61766917 heartbeat IPC: 2.15 cumulative IPC: 2.118 (Simulation time: 00 hr 46 min 27 sec)
Heartbeat CPU 3 instructions: 180000004 cycles: 66432369 heartbeat IPC: 2.143 cumulative IPC: 2.12 (Simulation time: 00 hr 49 min 22 sec)
Heartbeat CPU 2 instructions: 120000000 cycles: 68254701 heartbeat IPC: 1.136 cumulative IPC: 1.051 (Simulation time: 00 hr 50 min 28 sec)
Heartbeat CPU 1 instructions: 100000001 cycles: 69470411 heartbeat IPC: 0.8154 cumulative IPC: 0.896 (Simulation time: 00 hr 51 min 14 sec)
Heartbeat CPU 3 instructions: 190000002 cycles: 71127047 heartbeat IPC: 2.13 cumulative IPC: 2.121 (Simulation time: 00 hr 52 min 15 sec)
Heartbeat CPU 0 instructions: 60000000 cycles: 75262505 heartbeat IPC: 0.1839 cumulative IPC: 0.1839 (Simulation time: 00 hr 54 min 54 sec)
Heartbeat CPU 3 instructions: 200000000 cycles: 75860895 heartbeat IPC: 2.112 cumulative IPC: 2.12 (Simulation time: 00 hr 55 min 17 sec)
Heartbeat CPU 2 instructions: 130000001 cycles: 76401773 heartbeat IPC: 1.227 cumulative IPC: 1.077 (Simulation time: 00 hr 55 min 37 sec)
Heartbeat CPU 3 instructions: 210000000 cycles: 80489853 heartbeat IPC: 2.16 cumulative IPC: 2.124 (Simulation time: 00 hr 58 min 19 sec)
Heartbeat CPU 1 instructions: 110000003 cycles: 80706696 heartbeat IPC: 0.89 cumulative IPC: 0.8949 (Simulation time: 00 hr 58 min 27 sec)
Heartbeat CPU 2 instructions: 140000000 cycles: 84895485 heartbeat IPC: 1.177 cumulative IPC: 1.09 (Simulation time: 01 hr 01 min 03 sec)
Heartbeat CPU 3 instructions: 220000000 cycles: 85142698 heartbeat IPC: 2.149 cumulative IPC: 2.125 (Simulation time: 01 hr 01 min 12 sec)
Heartbeat CPU 3 instructions: 230000001 cycles: 89804430 heartbeat IPC: 2.145 cumulative IPC: 2.127 (Simulation time: 01 hr 03 min 52 sec)
Heartbeat CPU 1 instructions: 120000004 cycles: 90687970 heartbeat IPC: 1.002 cumulative IPC: 0.9102 (Simulation time: 01 hr 04 min 25 sec)
Simulation finished CPU 3 instructions: 150000003 cycles: 70523683 cumulative IPC: 2.127 (Simulation time: 01 hr 04 min 51 sec)
Heartbeat CPU 3 instructions: 240000000 cycles: 94472349 heartbeat IPC: 2.142 cumulative IPC: 2.128 (Simulation time: 01 hr 06 min 49 sec)
Heartbeat CPU 2 instructions: 150000004 cycles: 96413800 heartbeat IPC: 0.8682 cumulative IPC: 1.056 (Simulation time: 01 hr 08 min 00 sec)
Heartbeat CPU 3 instructions: 250000002 cycles: 99143595 heartbeat IPC: 2.141 cumulative IPC: 2.128 (Simulation time: 01 hr 09 min 52 sec)
Heartbeat CPU 1 instructions: 130000004 cycles: 101560882 heartbeat IPC: 0.9197 cumulative IPC: 0.9115 (Simulation time: 01 hr 11 min 37 sec)
Heartbeat CPU 3 instructions: 260000000 cycles: 103927197 heartbeat IPC: 2.09 cumulative IPC: 2.126 (Simulation time: 01 hr 13 min 21 sec)
Heartbeat CPU 2 instructions: 160000002 cycles: 107358782 heartbeat IPC: 0.9137 cumulative IPC: 1.038 (Simulation time: 01 hr 15 min 39 sec)
Heartbeat CPU 3 instructions: 270000000 cycles: 108604173 heartbeat IPC: 2.138 cumulative IPC: 2.127 (Simulation time: 01 hr 16 min 32 sec)
Heartbeat CPU 1 instructions: 140000001 cycles: 112106878 heartbeat IPC: 0.9482 cumulative IPC: 0.9157 (Simulation time: 01 hr 19 min 02 sec)
Heartbeat CPU 3 instructions: 280000001 cycles: 113289491 heartbeat IPC: 2.134 cumulative IPC: 2.127 (Simulation time: 01 hr 19 min 56 sec)
Heartbeat CPU 2 instructions: 170000004 cycles: 115891872 heartbeat IPC: 1.172 cumulative IPC: 1.05 (Simulation time: 01 hr 21 min 46 sec)
Heartbeat CPU 3 instructions: 290000004 cycles: 117979146 heartbeat IPC: 2.132 cumulative IPC: 2.128 (Simulation time: 01 hr 23 min 17 sec)
Heartbeat CPU 3 instructions: 300000000 cycles: 122654879 heartbeat IPC: 2.139 cumulative IPC: 2.128 (Simulation time: 01 hr 26 min 29 sec)
Heartbeat CPU 1 instructions: 150000004 cycles: 123097059 heartbeat IPC: 0.9099 cumulative IPC: 0.9151 (Simulation time: 01 hr 26 min 49 sec)
Heartbeat CPU 2 instructions: 180000002 cycles: 124685602 heartbeat IPC: 1.137 cumulative IPC: 1.058 (Simulation time: 01 hr 27 min 58 sec)
Heartbeat CPU 3 instructions: 310000001 cycles: 127331228 heartbeat IPC: 2.138 cumulative IPC: 2.129 (Simulation time: 01 hr 30 min 01 sec)
Heartbeat CPU 0 instructions: 70000004 cycles: 128144994 heartbeat IPC: 0.1891 cumulative IPC: 0.1864 (Simulation time: 01 hr 30 min 38 sec)
Heartbeat CPU 3 instructions: 320000001 cycles: 132058154 heartbeat IPC: 2.116 cumulative IPC: 2.128 (Simulation time: 01 hr 33 min 27 sec)
Heartbeat CPU 2 instructions: 190000001 cycles: 133614607 heartbeat IPC: 1.12 cumulative IPC: 1.063 (Simulation time: 01 hr 34 min 28 sec)
Heartbeat CPU 1 instructions: 160000004 cycles: 135157335 heartbeat IPC: 0.8292 cumulative IPC: 0.906 (Simulation time: 01 hr 35 min 40 sec)
Heartbeat CPU 3 instructions: 330000001 cycles: 136753084 heartbeat IPC: 2.13 cumulative IPC: 2.128 (Simulation time: 01 hr 36 min 45 sec)
Heartbeat CPU 2 instructions: 200000002 cycles: 142457205 heartbeat IPC: 1.131 cumulative IPC: 1.068 (Simulation time: 01 hr 40 min 56 sec)
Heartbeat CPU 3 instructions: 340000000 cycles: 144879978 heartbeat IPC: 1.23 cumulative IPC: 2.069 (Simulation time: 01 hr 42 min 49 sec)
Heartbeat CPU 1 instructions: 170000000 cycles: 147322545 heartbeat IPC: 0.822 cumulative IPC: 0.8979 (Simulation time: 01 hr 44 min 40 sec)
Heartbeat CPU 2 instructions: 210000001 cycles: 149838172 heartbeat IPC: 1.355 cumulative IPC: 1.084 (Simulation time: 01 hr 46 min 27 sec)
Heartbeat CPU 3 instructions: 350000002 cycles: 150936298 heartbeat IPC: 1.651 cumulative IPC: 2.05 (Simulation time: 01 hr 47 min 16 sec)
Heartbeat CPU 3 instructions: 360000003 cycles: 156797879 heartbeat IPC: 1.706 cumulative IPC: 2.035 (Simulation time: 01 hr 51 min 31 sec)
Heartbeat CPU 1 instructions: 180000001 cycles: 157942447 heartbeat IPC: 0.9416 cumulative IPC: 0.9013 (Simulation time: 01 hr 52 min 20 sec)
Heartbeat CPU 3 instructions: 370000000 cycles: 162602920 heartbeat IPC: 1.723 cumulative IPC: 2.022 (Simulation time: 01 hr 55 min 45 sec)
Heartbeat CPU 2 instructions: 220000000 cycles: 163573305 heartbeat IPC: 0.7281 cumulative IPC: 1.05 (Simulation time: 01 hr 56 min 30 sec)
Simulation finished CPU 2 instructions: 150000002 cycles: 142886253 cumulative IPC: 1.05 (Simulation time: 01 hr 56 min 39 sec)
Heartbeat CPU 3 instructions: 380000002 cycles: 168389388 heartbeat IPC: 1.728 cumulative IPC: 2.011 (Simulation time: 01 hr 59 min 56 sec)
Heartbeat CPU 1 instructions: 190000004 cycles: 169800753 heartbeat IPC: 0.8433 cumulative IPC: 0.8967 (Simulation time: 02 hr 00 min 56 sec)
Heartbeat CPU 2 instructions: 230000000 cycles: 174651230 heartbeat IPC: 0.9027 cumulative IPC: 1.039 (Simulation time: 02 hr 03 min 54 sec)
Heartbeat CPU 2 instructions: 240000001 cycles: 191054177 heartbeat IPC: 0.6096 cumulative IPC: 0.9977 (Simulation time: 02 hr 12 min 16 sec)
Heartbeat CPU 1 instructions: 200000002 cycles: 192057103 heartbeat IPC: 0.4493 cumulative IPC: 0.8385 (Simulation time: 02 hr 12 min 43 sec)
Heartbeat CPU 3 instructions: 390000001 cycles: 194611852 heartbeat IPC: 0.3814 cumulative IPC: 1.765 (Simulation time: 02 hr 13 min 57 sec)
Simulation finished CPU 1 instructions: 150000003 cycles: 181172695 cumulative IPC: 0.8279 (Simulation time: 02 hr 17 min 49 sec)
Heartbeat CPU 3 instructions: 400000003 cycles: 202952989 heartbeat IPC: 1.199 cumulative IPC: 1.739 (Simulation time: 02 hr 18 min 18 sec)
Heartbeat CPU 2 instructions: 250000001 cycles: 203657451 heartbeat IPC: 0.7934 cumulative IPC: 0.9836 (Simulation time: 02 hr 18 min 40 sec)
Heartbeat CPU 1 instructions: 210000002 cycles: 206799240 heartbeat IPC: 0.6783 cumulative IPC: 0.8258 (Simulation time: 02 hr 20 min 24 sec)
Heartbeat CPU 3 instructions: 410000003 cycles: 209987404 heartbeat IPC: 1.422 cumulative IPC: 1.727 (Simulation time: 02 hr 22 min 11 sec)
Heartbeat CPU 2 instructions: 260000000 cycles: 213895738 heartbeat IPC: 0.9767 cumulative IPC: 0.9833 (Simulation time: 02 hr 24 min 24 sec)
Heartbeat CPU 3 instructions: 420000001 cycles: 216612620 heartbeat IPC: 1.509 cumulative IPC: 1.72 (Simulation time: 02 hr 25 min 55 sec)
Heartbeat CPU 0 instructions: 80000002 cycles: 218277343 heartbeat IPC: 0.1109 cumulative IPC: 0.152 (Simulation time: 02 hr 26 min 52 sec)
Heartbeat CPU 1 instructions: 220000000 cycles: 219248929 heartbeat IPC: 0.8032 cumulative IPC: 0.8244 (Simulation time: 02 hr 27 min 26 sec)
Heartbeat CPU 2 instructions: 270000000 cycles: 222251884 heartbeat IPC: 1.197 cumulative IPC: 0.9921 (Simulation time: 02 hr 29 min 12 sec)
Heartbeat CPU 3 instructions: 430000001 cycles: 223115252 heartbeat IPC: 1.538 cumulative IPC: 1.714 (Simulation time: 02 hr 29 min 45 sec)
Heartbeat CPU 3 instructions: 440000004 cycles: 228980088 heartbeat IPC: 1.705 cumulative IPC: 1.714 (Simulation time: 02 hr 33 min 18 sec)
Heartbeat CPU 2 instructions: 280000000 cycles: 229575897 heartbeat IPC: 1.365 cumulative IPC: 1.005 (Simulation time: 02 hr 33 min 39 sec)
Heartbeat CPU 1 instructions: 230000002 cycles: 230862090 heartbeat IPC: 0.8611 cumulative IPC: 0.8264 (Simulation time: 02 hr 34 min 26 sec)
Heartbeat CPU 3 instructions: 450000000 cycles: 234901903 heartbeat IPC: 1.689 cumulative IPC: 1.713 (Simulation time: 02 hr 36 min 44 sec)
Heartbeat CPU 2 instructions: 290000003 cycles: 238063456 heartbeat IPC: 1.178 cumulative IPC: 1.012 (Simulation time: 02 hr 38 min 38 sec)
Heartbeat CPU 3 instructions: 460000004 cycles: 241485923 heartbeat IPC: 1.519 cumulative IPC: 1.707 (Simulation time: 02 hr 40 min 30 sec)
Heartbeat CPU 1 instructions: 240000003 cycles: 242856466 heartbeat IPC: 0.8337 cumulative IPC: 0.8268 (Simulation time: 02 hr 41 min 17 sec)
Heartbeat CPU 3 instructions: 470000002 cycles: 248178484 heartbeat IPC: 1.494 cumulative IPC: 1.701 (Simulation time: 02 hr 43 min 58 sec)
Heartbeat CPU 2 instructions: 300000004 cycles: 254043635 heartbeat IPC: 0.6258 cumulative IPC: 0.9855 (Simulation time: 02 hr 47 min 11 sec)
Heartbeat CPU 1 instructions: 250000000 cycles: 254385942 heartbeat IPC: 0.8673 cumulative IPC: 0.8288 (Simulation time: 02 hr 47 min 23 sec)
Heartbeat CPU 3 instructions: 480000000 cycles: 255125685 heartbeat IPC: 1.439 cumulative IPC: 1.693 (Simulation time: 02 hr 47 min 49 sec)
Heartbeat CPU 3 instructions: 490000002 cycles: 265030193 heartbeat IPC: 1.01 cumulative IPC: 1.665 (Simulation time: 02 hr 52 min 57 sec)
Heartbeat CPU 2 instructions: 310000001 cycles: 265415438 heartbeat IPC: 0.8794 cumulative IPC: 0.9806 (Simulation time: 02 hr 53 min 10 sec)
Heartbeat CPU 1 instructions: 260000002 cycles: 267354027 heartbeat IPC: 0.7711 cumulative IPC: 0.8258 (Simulation time: 02 hr 54 min 15 sec)
Heartbeat CPU 3 instructions: 500000001 cycles: 272936111 heartbeat IPC: 1.265 cumulative IPC: 1.653 (Simulation time: 02 hr 57 min 07 sec)
Heartbeat CPU 3 instructions: 510000002 cycles: 279835167 heartbeat IPC: 1.449 cumulative IPC: 1.647 (Simulation time: 03 hr 00 min 38 sec)
Heartbeat CPU 1 instructions: 270000000 cycles: 279882076 heartbeat IPC: 0.7982 cumulative IPC: 0.8245 (Simulation time: 03 hr 00 min 39 sec)
Heartbeat CPU 2 instructions: 320000001 cycles: 281620504 heartbeat IPC: 0.6171 cumulative IPC: 0.958 (Simulation time: 03 hr 01 min 34 sec)
Heartbeat CPU 3 instructions: 520000000 cycles: 287020652 heartbeat IPC: 1.392 cumulative IPC: 1.64 (Simulation time: 03 hr 04 min 27 sec)
Heartbeat CPU 2 instructions: 330000000 cycles: 293930783 heartbeat IPC: 0.8123 cumulative IPC: 0.9514 (Simulation time: 03 hr 08 min 05 sec)
Heartbeat CPU 3 instructions: 530000003 cycles: 294230376 heartbeat IPC: 1.387 cumulative IPC: 1.634 (Simulation time: 03 hr 08 min 15 sec)
Heartbeat CPU 0 instructions: 90000001 cycles: 295068099 heartbeat IPC: 0.1302 cumulative IPC: 0.1459 (Simulation time: 03 hr 08 min 41 sec)
Heartbeat CPU 1 instructions: 280000000 cycles: 295368326 heartbeat IPC: 0.6457 cumulative IPC: 0.8144 (Simulation time: 03 hr 08 min 52 sec)
Heartbeat CPU 3 instructions: 540000000 cycles: 301567225 heartbeat IPC: 1.363 cumulative IPC: 1.627 (Simulation time: 03 hr 12 min 07 sec)
Heartbeat CPU 2 instructions: 340000000 cycles: 305633843 heartbeat IPC: 0.8545 cumulative IPC: 0.9474 (Simulation time: 03 hr 14 min 18 sec)
Heartbeat CPU 3 instructions: 550000002 cycles: 308700288 heartbeat IPC: 1.402 cumulative IPC: 1.621 (Simulation time: 03 hr 15 min 55 sec)
Heartbeat CPU 1 instructions: 290000001 cycles: 311094653 heartbeat IPC: 0.6359 cumulative IPC: 0.8047 (Simulation time: 03 hr 17 min 09 sec)
Heartbeat CPU 3 instructions: 560000002 cycles: 315989238 heartbeat IPC: 1.372 cumulative IPC: 1.615 (Simulation time: 03 hr 19 min 50 sec)
Heartbeat CPU 2 instructions: 350000003 cycles: 316990706 heartbeat IPC: 0.8805 cumulative IPC: 0.9449 (Simulation time: 03 hr 20 min 23 sec)
Heartbeat CPU 3 instructions: 570000004 cycles: 323761339 heartbeat IPC: 1.287 cumulative IPC: 1.607 (Simulation time: 03 hr 24 min 10 sec)
Heartbeat CPU 1 instructions: 300000003 cycles: 325600376 heartbeat IPC: 0.6894 cumulative IPC: 0.7992 (Simulation time: 03 hr 25 min 10 sec)
Heartbeat CPU 2 instructions: 360000001 cycles: 328728290 heartbeat IPC: 0.852 cumulative IPC: 0.9413 (Simulation time: 03 hr 26 min 55 sec)
Heartbeat CPU 3 instructions: 580000000 cycles: 331149350 heartbeat IPC: 1.354 cumulative IPC: 1.6 (Simulation time: 03 hr 28 min 12 sec)
Heartbeat CPU 3 instructions: 590000001 cycles: 337979454 heartbeat IPC: 1.464 cumulative IPC: 1.598 (Simulation time: 03 hr 31 min 57 sec)
Heartbeat CPU 2 instructions: 370000000 cycles: 339475264 heartbeat IPC: 0.9305 cumulative IPC: 0.941 (Simulation time: 03 hr 32 min 49 sec)
Heartbeat CPU 1 instructions: 310000002 cycles: 340478025 heartbeat IPC: 0.6721 cumulative IPC: 0.7933 (Simulation time: 03 hr 33 min 23 sec)
Heartbeat CPU 3 instructions: 600000000 cycles: 344663304 heartbeat IPC: 1.496 cumulative IPC: 1.595 (Simulation time: 03 hr 35 min 39 sec)
Heartbeat CPU 2 instructions: 380000003 cycles: 347589223 heartbeat IPC: 1.232 cumulative IPC: 0.9482 (Simulation time: 03 hr 37 min 21 sec)
Heartbeat CPU 3 instructions: 610000000 cycles: 351322600 heartbeat IPC: 1.502 cumulative IPC: 1.594 (Simulation time: 03 hr 39 min 35 sec)
Heartbeat CPU 1 instructions: 320000001 cycles: 354348644 heartbeat IPC: 0.7209 cumulative IPC: 0.7903 (Simulation time: 03 hr 41 min 19 sec)
Heartbeat CPU 2 instructions: 390000000 cycles: 354755363 heartbeat IPC: 1.395 cumulative IPC: 0.9578 (Simulation time: 03 hr 41 min 33 sec)
Heartbeat CPU 2 instructions: 400000000 cycles: 364115266 heartbeat IPC: 1.068 cumulative IPC: 0.9608 (Simulation time: 03 hr 46 min 19 sec)
Heartbeat CPU 1 instructions: 330000001 cycles: 369834433 heartbeat IPC: 0.6458 cumulative IPC: 0.7839 (Simulation time: 03 hr 49 min 16 sec)
Heartbeat CPU 2 instructions: 410000001 cycles: 373665008 heartbeat IPC: 1.047 cumulative IPC: 0.9632 (Simulation time: 03 hr 51 min 22 sec)
Heartbeat CPU 3 instructions: 620000003 cycles: 385660344 heartbeat IPC: 0.2912 cumulative IPC: 1.471 (Simulation time: 03 hr 57 min 09 sec)
Heartbeat CPU 1 instructions: 340000003 cycles: 386571610 heartbeat IPC: 0.5975 cumulative IPC: 0.7754 (Simulation time: 03 hr 57 min 35 sec)
Heartbeat CPU 2 instructions: 420000002 cycles: 397846245 heartbeat IPC: 0.4135 cumulative IPC: 0.9279 (Simulation time: 04 hr 02 min 34 sec)
Heartbeat CPU 1 instructions: 350000000 cycles: 405671485 heartbeat IPC: 0.5236 cumulative IPC: 0.7629 (Simulation time: 04 hr 07 min 44 sec)
Heartbeat CPU 0 instructions: 100000000 cycles: 410312372 heartbeat IPC: 0.08677 cumulative IPC: 0.1284 (Simulation time: 04 hr 10 min 44 sec)
Heartbeat CPU 2 instructions: 430000002 cycles: 411781244 heartbeat IPC: 0.7176 cumulative IPC: 0.9204 (Simulation time: 04 hr 11 min 44 sec)
Heartbeat CPU 3 instructions: 630000003 cycles: 416301880 heartbeat IPC: 0.3264 cumulative IPC: 1.382 (Simulation time: 04 hr 14 min 39 sec)
Heartbeat CPU 1 instructions: 360000000 cycles: 423280967 heartbeat IPC: 0.5679 cumulative IPC: 0.7543 (Simulation time: 04 hr 18 min 26 sec)
Heartbeat CPU 2 instructions: 440000000 cycles: 423815950 heartbeat IPC: 0.8309 cumulative IPC: 0.9177 (Simulation time: 04 hr 18 min 44 sec)
Heartbeat CPU 2 instructions: 450000001 cycles: 436982421 heartbeat IPC: 0.7595 cumulative IPC: 0.9127 (Simulation time: 04 hr 27 min 06 sec)
Heartbeat CPU 1 instructions: 370000001 cycles: 439507733 heartbeat IPC: 0.6163 cumulative IPC: 0.749 (Simulation time: 04 hr 28 min 41 sec)
Heartbeat CPU 3 instructions: 640000000 cycles: 445280994 heartbeat IPC: 0.3451 cumulative IPC: 1.311 (Simulation time: 04 hr 32 min 09 sec)
Heartbeat CPU 2 instructions: 460000002 cycles: 446361457 heartbeat IPC: 1.066 cumulative IPC: 0.9161 (Simulation time: 04 hr 32 min 50 sec)
Heartbeat CPU 1 instructions: 380000001 cycles: 453041323 heartbeat IPC: 0.7389 cumulative IPC: 0.7487 (Simulation time: 04 hr 36 min 40 sec)
Heartbeat CPU 2 instructions: 470000003 cycles: 464828854 heartbeat IPC: 0.5415 cumulative IPC: 0.9005 (Simulation time: 04 hr 42 min 33 sec)
Heartbeat CPU 1 instructions: 390000004 cycles: 468481662 heartbeat IPC: 0.6477 cumulative IPC: 0.7452 (Simulation time: 04 hr 44 min 34 sec)
Heartbeat CPU 3 instructions: 650000004 cycles: 470114494 heartbeat IPC: 0.4027 cumulative IPC: 1.261 (Simulation time: 04 hr 45 min 26 sec)
Heartbeat CPU 2 instructions: 480000000 cycles: 475456621 heartbeat IPC: 0.9409 cumulative IPC: 0.9015 (Simulation time: 04 hr 48 min 36 sec)
Heartbeat CPU 1 instructions: 400000003 cycles: 483744809 heartbeat IPC: 0.6552 cumulative IPC: 0.7422 (Simulation time: 04 hr 53 min 19 sec)
Heartbeat CPU 3 instructions: 660000001 cycles: 484828925 heartbeat IPC: 0.6796 cumulative IPC: 1.243 (Simulation time: 04 hr 53 min 58 sec)
Heartbeat CPU 2 instructions: 490000002 cycles: 485526354 heartbeat IPC: 0.9931 cumulative IPC: 0.9035 (Simulation time: 04 hr 54 min 22 sec)
Heartbeat CPU 1 instructions: 410000004 cycles: 495695635 heartbeat IPC: 0.8368 cumulative IPC: 0.7446 (Simulation time: 04 hr 59 min 44 sec)
Heartbeat CPU 2 instructions: 500000000 cycles: 505048060 heartbeat IPC: 0.5123 cumulative IPC: 0.8877 (Simulation time: 05 hr 04 min 13 sec)
Heartbeat CPU 3 instructions: 670000001 cycles: 505904290 heartbeat IPC: 0.4745 cumulative IPC: 1.209 (Simulation time: 05 hr 04 min 40 sec)
Heartbeat CPU 1 instructions: 420000000 cycles: 512295139 heartbeat IPC: 0.6024 cumulative IPC: 0.7398 (Simulation time: 05 hr 07 min 37 sec)
Heartbeat CPU 2 instructions: 510000001 cycles: 522016822 heartbeat IPC: 0.5893 cumulative IPC: 0.8776 (Simulation time: 05 hr 12 min 10 sec)
Heartbeat CPU 0 instructions: 110000004 cycles: 532308628 heartbeat IPC: 0.08197 cumulative IPC: 0.1173 (Simulation time: 05 hr 17 min 01 sec)
Heartbeat CPU 1 instructions: 430000002 cycles: 533850823 heartbeat IPC: 0.4639 cumulative IPC: 0.7282 (Simulation time: 05 hr 17 min 44 sec)
Heartbeat CPU 2 instructions: 520000000 cycles: 537106943 heartbeat IPC: 0.6627 cumulative IPC: 0.8713 (Simulation time: 05 hr 19 min 16 sec)
Heartbeat CPU 2 instructions: 530000001 cycles: 551488499 heartbeat IPC: 0.6953 cumulative IPC: 0.8665 (Simulation time: 05 hr 26 min 24 sec)
Heartbeat CPU 1 instructions: 440000003 cycles: 553350477 heartbeat IPC: 0.5128 cumulative IPC: 0.7203 (Simulation time: 05 hr 27 min 33 sec)
Heartbeat CPU 2 instructions: 540000000 cycles: 567529146 heartbeat IPC: 0.6234 cumulative IPC: 0.8594 (Simulation time: 05 hr 35 min 21 sec)
Heartbeat CPU 1 instructions: 450000000 cycles: 573457186 heartbeat IPC: 0.4973 cumulative IPC: 0.7122 (Simulation time: 05 hr 38 min 59 sec)
Heartbeat CPU 3 instructions: 680000001 cycles: 578687936 heartbeat IPC: 0.1374 cumulative IPC: 1.07 (Simulation time: 05 hr 42 min 19 sec)
Heartbeat CPU 2 instructions: 550000004 cycles: 580832675 heartbeat IPC: 0.7517 cumulative IPC: 0.8568 (Simulation time: 05 hr 43 min 39 sec)
Heartbeat CPU 1 instructions: 460000001 cycles: 588296254 heartbeat IPC: 0.6739 cumulative IPC: 0.7112 (Simulation time: 05 hr 47 min 52 sec)
Heartbeat CPU 2 instructions: 560000001 cycles: 591368109 heartbeat IPC: 0.9492 cumulative IPC: 0.8585 (Simulation time: 05 hr 49 min 48 sec)
Heartbeat CPU 3 instructions: 690000001 cycles: 592966519 heartbeat IPC: 0.7003 cumulative IPC: 1.06 (Simulation time: 05 hr 50 min 46 sec)
Heartbeat CPU 2 instructions: 570000004 cycles: 598379285 heartbeat IPC: 1.426 cumulative IPC: 0.8654 (Simulation time: 05 hr 54 min 23 sec)
Heartbeat CPU 1 instructions: 470000001 cycles: 601763243 heartbeat IPC: 0.7426 cumulative IPC: 0.7119 (Simulation time: 05 hr 56 min 25 sec)
Heartbeat CPU 3 instructions: 700000002 cycles: 603195944 heartbeat IPC: 0.9776 cumulative IPC: 1.059 (Simulation time: 05 hr 57 min 19 sec)
Heartbeat CPU 2 instructions: 580000000 cycles: 604643431 heartbeat IPC: 1.596 cumulative IPC: 0.8733 (Simulation time: 05 hr 58 min 12 sec)
Heartbeat CPU 3 instructions: 710000002 cycles: 611794068 heartbeat IPC: 1.163 cumulative IPC: 1.06 (Simulation time: 06 hr 02 min 50 sec)
Heartbeat CPU 2 instructions: 590000001 cycles: 611828315 heartbeat IPC: 1.392 cumulative IPC: 0.8796 (Simulation time: 06 hr 02 min 51 sec)
Heartbeat CPU 1 instructions: 480000004 cycles: 613048769 heartbeat IPC: 0.8861 cumulative IPC: 0.7152 (Simulation time: 06 hr 03 min 34 sec)
Heartbeat CPU 2 instructions: 600000000 cycles: 619521826 heartbeat IPC: 1.3 cumulative IPC: 0.885 (Simulation time: 06 hr 07 min 33 sec)
Heartbeat CPU 3 instructions: 720000004 cycles: 621105712 heartbeat IPC: 1.074 cumulative IPC: 1.061 (Simulation time: 06 hr 08 min 31 sec)
Heartbeat CPU 1 instructions: 490000003 cycles: 624647335 heartbeat IPC: 0.8622 cumulative IPC: 0.7181 (Simulation time: 06 hr 10 min 40 sec)
Heartbeat CPU 2 instructions: 610000000 cycles: 628053350 heartbeat IPC: 1.172 cumulative IPC: 0.889 (Simulation time: 06 hr 12 min 40 sec)
Heartbeat CPU 3 instructions: 730000000 cycles: 632005160 heartbeat IPC: 0.9175 cumulative IPC: 1.058 (Simulation time: 06 hr 14 min 52 sec)
Heartbeat CPU 1 instructions: 500000000 cycles: 635625905 heartbeat IPC: 0.9109 cumulative IPC: 0.7215 (Simulation time: 06 hr 16 min 45 sec)
Heartbeat CPU 0 instructions: 120000004 cycles: 636005760 heartbeat IPC: 0.09643 cumulative IPC: 0.1138 (Simulation time: 06 hr 16 min 57 sec)
Heartbeat CPU 2 instructions: 620000000 cycles: 642935698 heartbeat IPC: 0.6719 cumulative IPC: 0.8838 (Simulation time: 06 hr 20 min 30 sec)
Heartbeat CPU 1 instructions: 510000004 cycles: 648666679 heartbeat IPC: 0.7668 cumulative IPC: 0.7224 (Simulation time: 06 hr 23 min 21 sec)
Heartbeat CPU 3 instructions: 740000004 cycles: 650949491 heartbeat IPC: 0.5279 cumulative IPC: 1.042 (Simulation time: 06 hr 24 min 31 sec)
Heartbeat CPU 2 instructions: 630000000 cycles: 656738741 heartbeat IPC: 0.7245 cumulative IPC: 0.8804 (Simulation time: 06 hr 27 min 23 sec)
Heartbeat CPU 1 instructions: 520000000 cycles: 660260477 heartbeat IPC: 0.8625 cumulative IPC: 0.725 (Simulation time: 06 hr 29 min 16 sec)
Heartbeat CPU 2 instructions: 640000002 cycles: 671208420 heartbeat IPC: 0.6911 cumulative IPC: 0.8762 (Simulation time: 06 hr 34 min 36 sec)
Heartbeat CPU 1 instructions: 530000002 cycles: 675904723 heartbeat IPC: 0.6392 cumulative IPC: 0.7229 (Simulation time: 06 hr 36 min 51 sec)
Heartbeat CPU 2 instructions: 650000000 cycles: 684332719 heartbeat IPC: 0.7619 cumulative IPC: 0.8739 (Simulation time: 06 hr 40 min 47 sec)
Heartbeat CPU 3 instructions: 750000001 cycles: 684513212 heartbeat IPC: 0.2979 cumulative IPC: 1.004 (Simulation time: 06 hr 40 min 52 sec)
Heartbeat CPU 1 instructions: 540000000 cycles: 693051290 heartbeat IPC: 0.5832 cumulative IPC: 0.7194 (Simulation time: 06 hr 44 min 54 sec)
Heartbeat CPU 2 instructions: 660000004 cycles: 695768528 heartbeat IPC: 0.8744 cumulative IPC: 0.8739 (Simulation time: 06 hr 46 min 15 sec)
Heartbeat CPU 3 instructions: 760000000 cycles: 706830715 heartbeat IPC: 0.4481 cumulative IPC: 0.9864 (Simulation time: 06 hr 51 min 36 sec)
Heartbeat CPU 2 instructions: 670000004 cycles: 707274501 heartbeat IPC: 0.8691 cumulative IPC: 0.8738 (Simulation time: 06 hr 51 min 49 sec)
Heartbeat CPU 1 instructions: 550000000 cycles: 709230092 heartbeat IPC: 0.6181 cumulative IPC: 0.717 (Simulation time: 06 hr 52 min 44 sec)
Heartbeat CPU 2 instructions: 680000004 cycles: 719738382 heartbeat IPC: 0.8023 cumulative IPC: 0.8725 (Simulation time: 06 hr 57 min 52 sec)
Heartbeat CPU 1 instructions: 560000004 cycles: 723452651 heartbeat IPC: 0.7031 cumulative IPC: 0.7167 (Simulation time: 06 hr 59 min 45 sec)
Heartbeat CPU 2 instructions: 690000000 cycles: 727177947 heartbeat IPC: 1.344 cumulative IPC: 0.8775 (Simulation time: 07 hr 01 min 42 sec)
Heartbeat CPU 3 instructions: 770000000 cycles: 735596280 heartbeat IPC: 0.3476 cumulative IPC: 0.9606 (Simulation time: 07 hr 05 min 53 sec)
Heartbeat CPU 2 instructions: 700000000 cycles: 736444512 heartbeat IPC: 1.079 cumulative IPC: 0.8801 (Simulation time: 07 hr 06 min 19 sec)
Heartbeat CPU 1 instructions: 570000001 cycles: 737978229 heartbeat IPC: 0.6884 cumulative IPC: 0.7161 (Simulation time: 07 hr 07 min 05 sec)
Heartbeat CPU 2 instructions: 710000002 cycles: 746652889 heartbeat IPC: 0.9796 cumulative IPC: 0.8815 (Simulation time: 07 hr 11 min 28 sec)
Heartbeat CPU 1 instructions: 580000000 cycles: 751072646 heartbeat IPC: 0.7637 cumulative IPC: 0.717 (Simulation time: 07 hr 13 min 37 sec)
Heartbeat CPU 0 instructions: 130000003 cycles: 751436593 heartbeat IPC: 0.08663 cumulative IPC: 0.1095 (Simulation time: 07 hr 13 min 48 sec)
Heartbeat CPU 3 instructions: 780000001 cycles: 752921785 heartbeat IPC: 0.5772 cumulative IPC: 0.9516 (Simulation time: 07 hr 14 min 31 sec)
Heartbeat CPU 2 instructions: 720000003 cycles: 761724297 heartbeat IPC: 0.6635 cumulative IPC: 0.8771 (Simulation time: 07 hr 18 min 39 sec)
Heartbeat CPU 1 instructions: 590000003 cycles: 764904375 heartbeat IPC: 0.723 cumulative IPC: 0.7171 (Simulation time: 07 hr 20 min 09 sec)
Heartbeat CPU 3 instructions: 790000003 cycles: 768707006 heartbeat IPC: 0.6335 cumulative IPC: 0.9449 (Simulation time: 07 hr 21 min 50 sec)
Heartbeat CPU 1 instructions: 600000004 cycles: 777557345 heartbeat IPC: 0.7903 cumulative IPC: 0.7183 (Simulation time: 07 hr 26 min 02 sec)
Heartbeat CPU 2 instructions: 730000000 cycles: 779864210 heartbeat IPC: 0.5513 cumulative IPC: 0.8693 (Simulation time: 07 hr 27 min 02 sec)
Heartbeat CPU 1 instructions: 610000001 cycles: 791249491 heartbeat IPC: 0.7303 cumulative IPC: 0.7185 (Simulation time: 07 hr 32 min 34 sec)
Heartbeat CPU 2 instructions: 740000000 cycles: 791369603 heartbeat IPC: 0.8692 cumulative IPC: 0.8693 (Simulation time: 07 hr 32 min 38 sec)
Heartbeat CPU 3 instructions: 800000002 cycles: 794629174 heartbeat IPC: 0.3858 cumulative IPC: 0.9261 (Simulation time: 07 hr 34 min 08 sec)
Heartbeat CPU 2 instructions: 750000002 cycles: 807016467 heartbeat IPC: 0.6391 cumulative IPC: 0.8647 (Simulation time: 07 hr 39 min 45 sec)
Heartbeat CPU 1 instructions: 620000000 cycles: 807252047 heartbeat IPC: 0.6249 cumulative IPC: 0.7166 (Simulation time: 07 hr 39 min 53 sec)
Heartbeat CPU 3 instructions: 810000003 cycles: 820359150 heartbeat IPC: 0.3887 cumulative IPC: 0.9088 (Simulation time: 07 hr 45 min 54 sec)
Heartbeat CPU 2 instructions: 760000000 cycles: 820605016 heartbeat IPC: 0.7359 cumulative IPC: 0.8625 (Simulation time: 07 hr 46 min 01 sec)
Heartbeat CPU 1 instructions: 630000003 cycles: 821917673 heartbeat IPC: 0.6819 cumulative IPC: 0.716 (Simulation time: 07 hr 46 min 37 sec)
Heartbeat CPU 2 instructions: 770000004 cycles: 832361403 heartbeat IPC: 0.8506 cumulative IPC: 0.8624 (Simulation time: 07 hr 51 min 17 sec)
Heartbeat CPU 1 instructions: 640000004 cycles: 840191789 heartbeat IPC: 0.5472 cumulative IPC: 0.7122 (Simulation time: 07 hr 54 min 32 sec)
Heartbeat CPU 2 instructions: 780000000 cycles: 845629547 heartbeat IPC: 0.7537 cumulative IPC: 0.8606 (Simulation time: 07 hr 56 min 52 sec)
Heartbeat CPU 2 instructions: 790000000 cycles: 859976828 heartbeat IPC: 0.697 cumulative IPC: 0.8578 (Simulation time: 08 hr 02 min 54 sec)
Heartbeat CPU 1 instructions: 650000000 cycles: 860598681 heartbeat IPC: 0.49 cumulative IPC: 0.7068 (Simulation time: 08 hr 03 min 13 sec)
Heartbeat CPU 2 instructions: 800000002 cycles: 873862894 heartbeat IPC: 0.7201 cumulative IPC: 0.8556 (Simulation time: 08 hr 08 min 48 sec)
Heartbeat CPU 1 instructions: 660000002 cycles: 883418684 heartbeat IPC: 0.4382 cumulative IPC: 0.6997 (Simulation time: 08 hr 13 min 01 sec)
Heartbeat CPU 0 instructions: 140000001 cycles: 887871992 heartbeat IPC: 0.07329 cumulative IPC: 0.1038 (Simulation time: 08 hr 15 min 00 sec)
Heartbeat CPU 2 instructions: 810000001 cycles: 888202881 heartbeat IPC: 0.6974 cumulative IPC: 0.853 (Simulation time: 08 hr 15 min 08 sec)
Heartbeat CPU 3 instructions: 820000004 cycles: 895466477 heartbeat IPC: 0.1331 cumulative IPC: 0.8422 (Simulation time: 08 hr 18 min 10 sec)
Heartbeat CPU 1 instructions: 670000004 cycles: 900196556 heartbeat IPC: 0.596 cumulative IPC: 0.6977 (Simulation time: 08 hr 20 min 04 sec)
Heartbeat CPU 2 instructions: 820000000 cycles: 906765956 heartbeat IPC: 0.5387 cumulative IPC: 0.8464 (Simulation time: 08 hr 23 min 01 sec)
Heartbeat CPU 1 instructions: 680000002 cycles: 917348574 heartbeat IPC: 0.583 cumulative IPC: 0.6956 (Simulation time: 08 hr 27 min 35 sec)
Heartbeat CPU 2 instructions: 830000000 cycles: 924551751 heartbeat IPC: 0.5622 cumulative IPC: 0.8408 (Simulation time: 08 hr 30 min 37 sec)
Heartbeat CPU 1 instructions: 690000000 cycles: 930665972 heartbeat IPC: 0.7509 cumulative IPC: 0.6964 (Simulation time: 08 hr 33 min 19 sec)
Heartbeat CPU 3 instructions: 830000002 cycles: 933032338 heartbeat IPC: 0.2662 cumulative IPC: 0.8185 (Simulation time: 08 hr 34 min 21 sec)
Heartbeat CPU 2 instructions: 840000004 cycles: 940999959 heartbeat IPC: 0.608 cumulative IPC: 0.8366 (Simulation time: 08 hr 37 min 47 sec)
Heartbeat CPU 1 instructions: 700000000 cycles: 945221186 heartbeat IPC: 0.687 cumulative IPC: 0.6962 (Simulation time: 08 hr 39 min 47 sec)
Heartbeat CPU 2 instructions: 850000000 cycles: 952185393 heartbeat IPC: 0.894 cumulative IPC: 0.8373 (Simulation time: 08 hr 42 min 56 sec)
Heartbeat CPU 1 instructions: 710000003 cycles: 961758688 heartbeat IPC: 0.6047 cumulative IPC: 0.6946 (Simulation time: 08 hr 47 min 06 sec)
Heartbeat CPU 2 instructions: 860000000 cycles: 967671963 heartbeat IPC: 0.6457 cumulative IPC: 0.8342 (Simulation time: 08 hr 49 min 36 sec)
Heartbeat CPU 3 instructions: 840000004 cycles: 968367133 heartbeat IPC: 0.283 cumulative IPC: 0.7985 (Simulation time: 08 hr 49 min 54 sec)
Heartbeat CPU 1 instructions: 720000000 cycles: 975585611 heartbeat IPC: 0.7232 cumulative IPC: 0.695 (Simulation time: 08 hr 52 min 59 sec)
Heartbeat CPU 2 instructions: 870000002 cycles: 982015850 heartbeat IPC: 0.6972 cumulative IPC: 0.8321 (Simulation time: 08 hr 55 min 57 sec)
Heartbeat CPU 1 instructions: 730000003 cycles: 992231549 heartbeat IPC: 0.6007 cumulative IPC: 0.6934 (Simulation time: 09 hr 00 min 17 sec)
Heartbeat CPU 2 instructions: 880000001 cycles: 994933444 heartbeat IPC: 0.7741 cumulative IPC: 0.8314 (Simulation time: 09 hr 01 min 25 sec)
Heartbeat CPU 2 instructions: 890000000 cycles: 1009076095 heartbeat IPC: 0.7071 cumulative IPC: 0.8296 (Simulation time: 09 hr 07 min 35 sec)
Heartbeat CPU 1 instructions: 740000002 cycles: 1010556114 heartbeat IPC: 0.5457 cumulative IPC: 0.6907 (Simulation time: 09 hr 08 min 16 sec)
Heartbeat CPU 3 instructions: 850000004 cycles: 1017043166 heartbeat IPC: 0.2054 cumulative IPC: 0.7695 (Simulation time: 09 hr 11 min 07 sec)
Heartbeat CPU 0 instructions: 150000003 cycles: 1024987633 heartbeat IPC: 0.07293 cumulative IPC: 0.09959 (Simulation time: 09 hr 14 min 31 sec)
Heartbeat CPU 1 instructions: 750000001 cycles: 1027255046 heartbeat IPC: 0.5988 cumulative IPC: 0.6891 (Simulation time: 09 hr 15 min 26 sec)
Heartbeat CPU 2 instructions: 900000000 cycles: 1034071803 heartbeat IPC: 0.4001 cumulative IPC: 0.819 (Simulation time: 09 hr 18 min 09 sec)
Heartbeat CPU 1 instructions: 760000004 cycles: 1045719711 heartbeat IPC: 0.5416 cumulative IPC: 0.6865 (Simulation time: 09 hr 23 min 31 sec)
Heartbeat CPU 2 instructions: 910000003 cycles: 1046298891 heartbeat IPC: 0.8179 cumulative IPC: 0.819 (Simulation time: 09 hr 23 min 46 sec)
Heartbeat CPU 3 instructions: 860000001 cycles: 1052431306 heartbeat IPC: 0.2826 cumulative IPC: 0.7528 (Simulation time: 09 hr 26 min 43 sec)
Heartbeat CPU 2 instructions: 920000004 cycles: 1056552180 heartbeat IPC: 0.9753 cumulative IPC: 0.8205 (Simulation time: 09 hr 28 min 42 sec)
Heartbeat CPU 1 instructions: 770000003 cycles: 1059740309 heartbeat IPC: 0.7132 cumulative IPC: 0.6868 (Simulation time: 09 hr 30 min 15 sec)
Heartbeat CPU 2 instructions: 930000004 cycles: 1066045775 heartbeat IPC: 1.053 cumulative IPC: 0.8226 (Simulation time: 09 hr 33 min 09 sec)
Heartbeat CPU 3 instructions: 870000004 cycles: 1066914012 heartbeat IPC: 0.6905 cumulative IPC: 0.752 (Simulation time: 09 hr 33 min 32 sec)
Heartbeat CPU 1 instructions: 780000002 cycles: 1073312677 heartbeat IPC: 0.7368 cumulative IPC: 0.6875 (Simulation time: 09 hr 36 min 25 sec)
Heartbeat CPU 2 instructions: 940000004 cycles: 1082108523 heartbeat IPC: 0.6226 cumulative IPC: 0.8196 (Simulation time: 09 hr 39 min 50 sec)
Heartbeat CPU 3 instructions: 880000001 cycles: 1086307292 heartbeat IPC: 0.5156 cumulative IPC: 0.7477 (Simulation time: 09 hr 41 min 38 sec)
Heartbeat CPU 1 instructions: 790000002 cycles: 1086750374 heartbeat IPC: 0.7442 cumulative IPC: 0.6882 (Simulation time: 09 hr 41 min 50 sec)
Heartbeat CPU 2 instructions: 950000002 cycles: 1094249262 heartbeat IPC: 0.8237 cumulative IPC: 0.8196 (Simulation time: 09 hr 45 min 09 sec)
Heartbeat CPU 1 instructions: 800000001 cycles: 1100162632 heartbeat IPC: 0.7456 cumulative IPC: 0.6889 (Simulation time: 09 hr 47 min 43 sec)
Heartbeat CPU 3 instructions: 890000003 cycles: 1102652714 heartbeat IPC: 0.6118 cumulative IPC: 0.7456 (Simulation time: 09 hr 48 min 42 sec)
Heartbeat CPU 2 instructions: 960000000 cycles: 1107459639 heartbeat IPC: 0.757 cumulative IPC: 0.8189 (Simulation time: 09 hr 50 min 43 sec)
Heartbeat CPU 1 instructions: 810000004 cycles: 1113648030 heartbeat IPC: 0.7415 cumulative IPC: 0.6896 (Simulation time: 09 hr 53 min 17 sec)
Heartbeat CPU 2 instructions: 970000000 cycles: 1119066084 heartbeat IPC: 0.8616 cumulative IPC: 0.8193 (Simulation time: 09 hr 55 min 27 sec)
Heartbeat CPU 3 instructions: 900000003 cycles: 1125336972 heartbeat IPC: 0.4408 cumulative IPC: 0.7394 (Simulation time: 09 hr 57 min 59 sec)
Heartbeat CPU 2 instructions: 980000001 cycles: 1130123262 heartbeat IPC: 0.9044 cumulative IPC: 0.8202 (Simulation time: 10 hr 00 min 08 sec)
Heartbeat CPU 1 instructions: 820000002 cycles: 1130727844 heartbeat IPC: 0.5855 cumulative IPC: 0.688 (Simulation time: 10 hr 00 min 24 sec)
Heartbeat CPU 0 instructions: 160000002 cycles: 1136691173 heartbeat IPC: 0.08952 cumulative IPC: 0.09858 (Simulation time: 10 hr 03 min 02 sec)
Heartbeat CPU 2 instructions: 990000001 cycles: 1141437662 heartbeat IPC: 0.8838 cumulative IPC: 0.8208 (Simulation time: 10 hr 05 min 07 sec)
Heartbeat CPU 3 instructions: 910000002 cycles: 1143138727 heartbeat IPC: 0.5617 cumulative IPC: 0.7365 (Simulation time: 10 hr 05 min 50 sec)
Heartbeat CPU 1 instructions: 830000002 cycles: 1143799210 heartbeat IPC: 0.765 cumulative IPC: 0.6889 (Simulation time: 10 hr 06 min 05 sec)
Heartbeat CPU 2 instructions: 1000000001 cycles: 1150272883 heartbeat IPC: 1.132 cumulative IPC: 0.8233 (Simulation time: 10 hr 09 min 13 sec)
Heartbeat CPU 1 instructions: 840000000 cycles: 1157882644 heartbeat IPC: 0.7101 cumulative IPC: 0.6891 (Simulation time: 10 hr 12 min 29 sec)
Heartbeat CPU 3 instructions: 920000003 cycles: 1158983831 heartbeat IPC: 0.6311 cumulative IPC: 0.7351 (Simulation time: 10 hr 13 min 00 sec)
Heartbeat CPU 2 instructions: 1010000000 cycles: 1159162172 heartbeat IPC: 1.125 cumulative IPC: 0.8256 (Simulation time: 10 hr 13 min 04 sec)
Heartbeat CPU 1 instructions: 850000003 cycles: 1170914631 heartbeat IPC: 0.7673 cumulative IPC: 0.69 (Simulation time: 10 hr 18 min 02 sec)
Heartbeat CPU 3 instructions: 930000001 cycles: 1172904091 heartbeat IPC: 0.7184 cumulative IPC: 0.7349 (Simulation time: 10 hr 18 min 48 sec)
Heartbeat CPU 2 instructions: 1020000001 cycles: 1174631579 heartbeat IPC: 0.6464 cumulative IPC: 0.8232 (Simulation time: 10 hr 19 min 31 sec)
Heartbeat CPU 1 instructions: 860000002 cycles: 1183789681 heartbeat IPC: 0.7767 cumulative IPC: 0.691 (Simulation time: 10 hr 23 min 15 sec)
Heartbeat CPU 2 instructions: 1030000001 cycles: 1185285564 heartbeat IPC: 0.9386 cumulative IPC: 0.8243 (Simulation time: 10 hr 23 min 53 sec)
Heartbeat CPU 3 instructions: 940000002 cycles: 1192695757 heartbeat IPC: 0.5053 cumulative IPC: 0.731 (Simulation time: 10 hr 26 min 52 sec)
Heartbeat CPU 2 instructions: 1040000001 cycles: 1198367957 heartbeat IPC: 0.7644 cumulative IPC: 0.8236 (Simulation time: 10 hr 29 min 16 sec)
Heartbeat CPU 1 instructions: 870000003 cycles: 1200253509 heartbeat IPC: 0.6074 cumulative IPC: 0.6898 (Simulation time: 10 hr 30 min 10 sec)
Heartbeat CPU 3 instructions: 950000000 cycles: 1205775462 heartbeat IPC: 0.7645 cumulative IPC: 0.7314 (Simulation time: 10 hr 32 min 40 sec)
Heartbeat CPU 2 instructions: 1050000000 cycles: 1208750122 heartbeat IPC: 0.9632 cumulative IPC: 0.8248 (Simulation time: 10 hr 33 min 58 sec)
Heartbeat CPU 1 instructions: 880000000 cycles: 1211736413 heartbeat IPC: 0.8709 cumulative IPC: 0.6916 (Simulation time: 10 hr 35 min 09 sec)
Heartbeat CPU 2 instructions: 1060000000 cycles: 1222565765 heartbeat IPC: 0.7238 cumulative IPC: 0.8237 (Simulation time: 10 hr 39 min 36 sec)
Heartbeat CPU 1 instructions: 890000000 cycles: 1226431352 heartbeat IPC: 0.6805 cumulative IPC: 0.6914 (Simulation time: 10 hr 41 min 02 sec)
Heartbeat CPU 3 instructions: 960000000 cycles: 1227755172 heartbeat IPC: 0.455 cumulative IPC: 0.7263 (Simulation time: 10 hr 41 min 33 sec)
Heartbeat CPU 0 instructions: 170000002 cycles: 1232538275 heartbeat IPC: 0.1043 cumulative IPC: 0.09904 (Simulation time: 10 hr 43 min 53 sec)
Heartbeat CPU 2 instructions: 1070000000 cycles: 1233641060 heartbeat IPC: 0.9029 cumulative IPC: 0.8244 (Simulation time: 10 hr 44 min 21 sec)
Heartbeat CPU 3 instructions: 970000001 cycles: 1234266030 heartbeat IPC: 1.536 cumulative IPC: 0.7307 (Simulation time: 10 hr 44 min 37 sec)
Heartbeat CPU 3 instructions: 980000002 cycles: 1240140183 heartbeat IPC: 1.702 cumulative IPC: 0.7354 (Simulation time: 10 hr 47 min 16 sec)
Heartbeat CPU 1 instructions: 900000000 cycles: 1241589576 heartbeat IPC: 0.6597 cumulative IPC: 0.691 (Simulation time: 10 hr 47 min 51 sec)
Heartbeat CPU 2 instructions: 1080000000 cycles: 1242306783 heartbeat IPC: 1.154 cumulative IPC: 0.8267 (Simulation time: 10 hr 48 min 14 sec)
Heartbeat CPU 3 instructions: 990000000 cycles: 1246703356 heartbeat IPC: 1.524 cumulative IPC: 0.7396 (Simulation time: 10 hr 50 min 14 sec)
Heartbeat CPU 1 instructions: 910000002 cycles: 1255310596 heartbeat IPC: 0.7288 cumulative IPC: 0.6914 (Simulation time: 10 hr 53 min 29 sec)
Heartbeat CPU 2 instructions: 1090000000 cycles: 1259515267 heartbeat IPC: 0.5811 cumulative IPC: 0.8233 (Simulation time: 10 hr 55 min 03 sec)
Heartbeat CPU 2 instructions: 1100000001 cycles: 1270884509 heartbeat IPC: 0.8796 cumulative IPC: 0.8238 (Simulation time: 10 hr 59 min 28 sec)
Heartbeat CPU 1 instructions: 920000001 cycles: 1273127169 heartbeat IPC: 0.5613 cumulative IPC: 0.6896 (Simulation time: 11 hr 00 min 22 sec)
Heartbeat CPU 3 instructions: 1000000002 cycles: 1275923064 heartbeat IPC: 0.3422 cumulative IPC: 0.7303 (Simulation time: 11 hr 01 min 29 sec)
Heartbeat CPU 2 instructions: 1110000003 cycles: 1282076010 heartbeat IPC: 0.8935 cumulative IPC: 0.8244 (Simulation time: 11 hr 03 min 55 sec)
Heartbeat CPU 1 instructions: 930000002 cycles: 1286756145 heartbeat IPC: 0.7337 cumulative IPC: 0.6901 (Simulation time: 11 hr 05 min 56 sec)
Heartbeat CPU 2 instructions: 1120000001 cycles: 1292474773 heartbeat IPC: 0.9617 cumulative IPC: 0.8256 (Simulation time: 11 hr 08 min 16 sec)
Heartbeat CPU 1 instructions: 940000001 cycles: 1298716360 heartbeat IPC: 0.8361 cumulative IPC: 0.6914 (Simulation time: 11 hr 10 min 37 sec)
Heartbeat CPU 2 instructions: 1130000002 cycles: 1309941273 heartbeat IPC: 0.5725 cumulative IPC: 0.8221 (Simulation time: 11 hr 15 min 07 sec)
Heartbeat CPU 1 instructions: 950000001 cycles: 1314973074 heartbeat IPC: 0.6151 cumulative IPC: 0.6905 (Simulation time: 11 hr 16 min 58 sec)
Heartbeat CPU 2 instructions: 1140000001 cycles: 1324272936 heartbeat IPC: 0.6978 cumulative IPC: 0.8208 (Simulation time: 11 hr 20 min 09 sec)
Heartbeat CPU 3 instructions: 1010000002 cycles: 1329261788 heartbeat IPC: 0.1875 cumulative IPC: 0.7082 (Simulation time: 11 hr 21 min 49 sec)
Heartbeat CPU 1 instructions: 960000001 cycles: 1336993828 heartbeat IPC: 0.4541 cumulative IPC: 0.6865 (Simulation time: 11 hr 24 min 55 sec)
Heartbeat CPU 2 instructions: 1150000000 cycles: 1337901990 heartbeat IPC: 0.7337 cumulative IPC: 0.8199 (Simulation time: 11 hr 25 min 19 sec)
Heartbeat CPU 3 instructions: 1020000002 cycles: 1347282668 heartbeat IPC: 0.5549 cumulative IPC: 0.7061 (Simulation time: 11 hr 29 min 41 sec)
Heartbeat CPU 2 instructions: 1160000002 cycles: 1347321176 heartbeat IPC: 1.062 cumulative IPC: 0.8216 (Simulation time: 11 hr 29 min 42 sec)
Heartbeat CPU 0 instructions: 180000001 cycles: 1348438231 heartbeat IPC: 0.08628 cumulative IPC: 0.09792 (Simulation time: 11 hr 30 min 10 sec)
Heartbeat CPU 1 instructions: 970000004 cycles: 1350148349 heartbeat IPC: 0.7602 cumulative IPC: 0.6873 (Simulation time: 11 hr 30 min 55 sec)
Heartbeat CPU 2 instructions: 1170000001 cycles: 1356072183 heartbeat IPC: 1.143 cumulative IPC: 0.8237 (Simulation time: 11 hr 33 min 48 sec)
Heartbeat CPU 3 instructions: 1030000003 cycles: 1356996628 heartbeat IPC: 1.029 cumulative IPC: 0.7085 (Simulation time: 11 hr 34 min 10 sec)
Heartbeat CPU 1 instructions: 980000003 cycles: 1361423149 heartbeat IPC: 0.8869 cumulative IPC: 0.6889 (Simulation time: 11 hr 36 min 01 sec)
Heartbeat CPU 3 instructions: 1040000003 cycles: 1370406856 heartbeat IPC: 0.7457 cumulative IPC: 0.7088 (Simulation time: 11 hr 39 min 53 sec)
Heartbeat CPU 2 instructions: 1180000000 cycles: 1370597684 heartbeat IPC: 0.6884 cumulative IPC: 0.8222 (Simulation time: 11 hr 39 min 58 sec)
Heartbeat CPU 1 instructions: 990000000 cycles: 1373898248 heartbeat IPC: 0.8016 cumulative IPC: 0.69 (Simulation time: 11 hr 41 min 39 sec)
Heartbeat CPU 3 instructions: 1050000000 cycles: 1383814465 heartbeat IPC: 0.7458 cumulative IPC: 0.7092 (Simulation time: 11 hr 46 min 09 sec)
Heartbeat CPU 2 instructions: 1190000000 cycles: 1385059146 heartbeat IPC: 0.6915 cumulative IPC: 0.8208 (Simulation time: 11 hr 46 min 42 sec)
Heartbeat CPU 1 instructions: 1000000001 cycles: 1385762267 heartbeat IPC: 0.8429 cumulative IPC: 0.6913 (Simulation time: 11 hr 47 min 02 sec)
Heartbeat CPU 2 instructions: 1200000002 cycles: 1395756521 heartbeat IPC: 0.9348 cumulative IPC: 0.8217 (Simulation time: 11 hr 51 min 39 sec)
Heartbeat CPU 1 instructions: 1010000000 cycles: 1397742662 heartbeat IPC: 0.8347 cumulative IPC: 0.6925 (Simulation time: 11 hr 52 min 25 sec)
Heartbeat CPU 3 instructions: 1060000002 cycles: 1400125363 heartbeat IPC: 0.6131 cumulative IPC: 0.7081 (Simulation time: 11 hr 53 min 26 sec)
Heartbeat CPU 2 instructions: 1210000000 cycles: 1405601580 heartbeat IPC: 1.016 cumulative IPC: 0.8231 (Simulation time: 11 hr 55 min 46 sec)
Heartbeat CPU 1 instructions: 1020000004 cycles: 1411175298 heartbeat IPC: 0.7445 cumulative IPC: 0.693 (Simulation time: 11 hr 58 min 21 sec)
Heartbeat CPU 3 instructions: 1070000004 cycles: 1412554294 heartbeat IPC: 0.8046 cumulative IPC: 0.7089 (Simulation time: 11 hr 59 min 00 sec)
Heartbeat CPU 2 instructions: 1220000003 cycles: 1415122561 heartbeat IPC: 1.05 cumulative IPC: 0.8247 (Simulation time: 12 hr 00 min 10 sec)
Heartbeat CPU 2 instructions: 1230000001 cycles: 1424422755 heartbeat IPC: 1.075 cumulative IPC: 0.8263 (Simulation time: 12 hr 04 min 23 sec)
Heartbeat CPU 1 instructions: 1030000002 cycles: 1424575516 heartbeat IPC: 0.7463 cumulative IPC: 0.6936 (Simulation time: 12 hr 04 min 28 sec)
Heartbeat CPU 0 instructions: 190000001 cycles: 1432647282 heartbeat IPC: 0.1188 cumulative IPC: 0.09917 (Simulation time: 12 hr 07 min 59 sec)
Heartbeat CPU 3 instructions: 1080000000 cycles: 1436007915 heartbeat IPC: 0.4264 cumulative IPC: 0.7042 (Simulation time: 12 hr 09 min 13 sec)
Heartbeat CPU 1 instructions: 1040000000 cycles: 1436094667 heartbeat IPC: 0.8681 cumulative IPC: 0.695 (Simulation time: 12 hr 09 min 16 sec)
Heartbeat CPU 2 instructions: 1240000004 cycles: 1442824605 heartbeat IPC: 0.5434 cumulative IPC: 0.8227 (Simulation time: 12 hr 12 min 09 sec)
Heartbeat CPU 1 instructions: 1050000001 cycles: 1452497708 heartbeat IPC: 0.6096 cumulative IPC: 0.694 (Simulation time: 12 hr 16 min 05 sec)
Heartbeat CPU 2 instructions: 1250000000 cycles: 1455046231 heartbeat IPC: 0.8182 cumulative IPC: 0.8226 (Simulation time: 12 hr 17 min 05 sec)
Heartbeat CPU 2 instructions: 1260000000 cycles: 1466777364 heartbeat IPC: 0.8524 cumulative IPC: 0.8229 (Simulation time: 12 hr 22 min 03 sec)
Heartbeat CPU 1 instructions: 1060000002 cycles: 1467600172 heartbeat IPC: 0.6621 cumulative IPC: 0.6937 (Simulation time: 12 hr 22 min 22 sec)
Heartbeat CPU 3 instructions: 1090000003 cycles: 1468065791 heartbeat IPC: 0.3119 cumulative IPC: 0.6956 (Simulation time: 12 hr 22 min 32 sec)
Heartbeat CPU 2 instructions: 1270000003 cycles: 1478802216 heartbeat IPC: 0.8316 cumulative IPC: 0.8229 (Simulation time: 12 hr 26 min 58 sec)
Heartbeat CPU 1 instructions: 1070000002 cycles: 1481924525 heartbeat IPC: 0.6981 cumulative IPC: 0.6937 (Simulation time: 12 hr 28 min 13 sec)
Heartbeat CPU 2 instructions: 1280000001 cycles: 1488826583 heartbeat IPC: 0.9976 cumulative IPC: 0.8241 (Simulation time: 12 hr 31 min 26 sec)
Heartbeat CPU 3 instructions: 1100000002 cycles: 1490553201 heartbeat IPC: 0.4447 cumulative IPC: 0.6917 (Simulation time: 12 hr 32 min 08 sec)
Heartbeat CPU 1 instructions: 1080000001 cycles: 1495746971 heartbeat IPC: 0.7235 cumulative IPC: 0.694 (Simulation time: 12 hr 34 min 18 sec)
Heartbeat CPU 2 instructions: 1290000004 cycles: 1498922260 heartbeat IPC: 0.9905 cumulative IPC: 0.8253 (Simulation time: 12 hr 35 min 43 sec)
Heartbeat CPU 1 instructions: 1090000000 cycles: 1509026712 heartbeat IPC: 0.753 cumulative IPC: 0.6945 (Simulation time: 12 hr 39 min 57 sec)
Heartbeat CPU 2 instructions: 1300000000 cycles: 1517930294 heartbeat IPC: 0.5261 cumulative IPC: 0.8215 (Simulation time: 12 hr 43 min 30 sec)
Heartbeat CPU 3 instructions: 1110000002 cycles: 1520332094 heartbeat IPC: 0.3358 cumulative IPC: 0.6846 (Simulation time: 12 hr 44 min 29 sec)
Heartbeat CPU 1 instructions: 1100000002 cycles: 1523361282 heartbeat IPC: 0.6976 cumulative IPC: 0.6945 (Simulation time: 12 hr 45 min 40 sec)
Heartbeat CPU 2 instructions: 1310000002 cycles: 1528179939 heartbeat IPC: 0.9756 cumulative IPC: 0.8225 (Simulation time: 12 hr 47 min 45 sec)
Heartbeat CPU 1 instructions: 1110000003 cycles: 1539030207 heartbeat IPC: 0.6382 cumulative IPC: 0.694 (Simulation time: 12 hr 52 min 13 sec)
Heartbeat CPU 2 instructions: 1320000000 cycles: 1539921145 heartbeat IPC: 0.8517 cumulative IPC: 0.8227 (Simulation time: 12 hr 52 min 37 sec)
Heartbeat CPU 1 instructions: 1120000000 cycles: 1556165411 heartbeat IPC: 0.5836 cumulative IPC: 0.6927 (Simulation time: 12 hr 58 min 56 sec)
Heartbeat CPU 0 instructions: 200000001 cycles: 1557377472 heartbeat IPC: 0.08017 cumulative IPC: 0.09762 (Simulation time: 12 hr 59 min 23 sec)
Simulation finished CPU 0 instructions: 150000003 cycles: 1536503413 cumulative IPC: 0.09762 (Simulation time: 12 hr 59 min 23 sec)
Simulation complete CPU 0 instructions: 150000003 cycles: 1536503413 cumulative IPC: 0.09762 (Simulation time: 12 hr 59 min 23 sec)
Simulation complete CPU 1 instructions: 1064172965 cycles: 1536503413 cumulative IPC: 0.6926 (Simulation time: 12 hr 59 min 23 sec)
Simulation complete CPU 2 instructions: 1259766990 cycles: 1536503413 cumulative IPC: 0.8199 (Simulation time: 12 hr 59 min 23 sec)
Simulation complete CPU 3 instructions: 1036301855 cycles: 1536503413 cumulative IPC: 0.6745 (Simulation time: 12 hr 59 min 23 sec)

ChampSim completed all CPUs

=== Simulation ===
CPU 0 runs /home/das/dpc3_traces/620.omnetpp_s-874B.champsimtrace.xzCPU 1 runs /home/das/dpc3_traces/607.cactuBSSN_s-2421B.champsimtrace.xzCPU 2 runs /home/das/dpc3_traces/623.xalancbmk_s-700B.champsimtrace.xzCPU 3 runs /home/das/dpc3_traces/621.wrf_s-575B.champsimtrace.xz
Total Simulation Statistics (not including warmup)

CPU 0 cumulative IPC: 0.09762 instructions: 150000003 cycles: 1536503413
CPU 0 Branch Prediction Accuracy: 94.9% MPKI: 10.6 Average ROB Occupancy at Mispredict: 84.54
Branch type MPKI
BRANCH_DIRECT_JUMP: 0.923
BRANCH_INDIRECT: 0.128
BRANCH_CONDITIONAL: 8.42
BRANCH_DIRECT_CALL: 0.00016
BRANCH_INDIRECT_CALL: 0.734
BRANCH_RETURN: 0.399


CPU 1 cumulative IPC: 0.6926 instructions: 1064172965 cycles: 1536503413
CPU 1 Branch Prediction Accuracy: 99.85% MPKI: 0.001797 Average ROB Occupancy at Mispredict: 349.2
Branch type MPKI
BRANCH_DIRECT_JUMP: 9.4e-07
BRANCH_INDIRECT: 4.7e-06
BRANCH_CONDITIONAL: 0.00179
BRANCH_DIRECT_CALL: 0
BRANCH_INDIRECT_CALL: 0
BRANCH_RETURN: 0


CPU 2 cumulative IPC: 0.8199 instructions: 1259766990 cycles: 1536503413
CPU 2 Branch Prediction Accuracy: 97.22% MPKI: 7.941 Average ROB Occupancy at Mispredict: 42.54
Branch type MPKI
BRANCH_DIRECT_JUMP: 0.109
BRANCH_INDIRECT: 0.342
BRANCH_CONDITIONAL: 5.68
BRANCH_DIRECT_CALL: 0.000237
BRANCH_INDIRECT_CALL: 0.371
BRANCH_RETURN: 1.44


CPU 3 cumulative IPC: 0.6745 instructions: 1036301855 cycles: 1536503413
CPU 3 Branch Prediction Accuracy: 95.91% MPKI: 3.974 Average ROB Occupancy at Mispredict: 123.8
Branch type MPKI
BRANCH_DIRECT_JUMP: 0.000378
BRANCH_INDIRECT: 1.74e-05
BRANCH_CONDITIONAL: 3.7
BRANCH_DIRECT_CALL: 0.00239
BRANCH_INDIRECT_CALL: 0
BRANCH_RETURN: 0.27

LLC TOTAL        ACCESS:    4654300 HIT:    1434154 MISS:    3220146
LLC LOAD         ACCESS:    1685799 HIT:     333803 MISS:    1351996
LLC RFO          ACCESS:     257717 HIT:      72321 MISS:     185396
LLC PREFETCH     ACCESS:    1149076 HIT:     206870 MISS:     942206
LLC WRITE        ACCESS:     965629 HIT:     795253 MISS:     170376
LLC TRANSLATION  ACCESS:     596079 HIT:      25907 MISS:     570172
LLC PREFETCH REQUESTED:          0 ISSUED:          0 USEFUL:          0 USELESS:          0
LLC AVERAGE MISS LATENCY: 2187 cycles
LLC TOTAL        ACCESS:   39696084 HIT:   28714446 MISS:   10981638
LLC LOAD         ACCESS:   10287085 HIT:    5796273 MISS:    4490812
LLC RFO          ACCESS:      31708 HIT:      31708 MISS:          0
LLC PREFETCH     ACCESS:   28150290 HIT:   21759115 MISS:    6391175
LLC WRITE        ACCESS:    1065407 HIT:    1065139 MISS:        268
LLC TRANSLATION  ACCESS:     161594 HIT:      62211 MISS:      99383
LLC PREFETCH REQUESTED:          0 ISSUED:          0 USEFUL:          0 USELESS:          0
LLC AVERAGE MISS LATENCY: 2187 cycles
LLC TOTAL        ACCESS:   26138878 HIT:   23004433 MISS:    3134445
LLC LOAD         ACCESS:    1867186 HIT:    1398218 MISS:     468968
LLC RFO          ACCESS:    1543034 HIT:      83493 MISS:    1459541
LLC PREFETCH     ACCESS:   20658332 HIT:   19649496 MISS:    1008836
LLC WRITE        ACCESS:    1865270 HIT:    1775348 MISS:      89922
LLC TRANSLATION  ACCESS:     205056 HIT:      97878 MISS:     107178
LLC PREFETCH REQUESTED:          0 ISSUED:          0 USEFUL:          0 USELESS:          0
LLC AVERAGE MISS LATENCY: 2187 cycles
LLC TOTAL        ACCESS:   20304536 HIT:    9478124 MISS:   10826412
LLC LOAD         ACCESS:    3841697 HIT:    1728837 MISS:    2112860
LLC RFO          ACCESS:    1569381 HIT:     280471 MISS:    1288910
LLC PREFETCH     ACCESS:   11700546 HIT:    4311621 MISS:    7388925
LLC WRITE        ACCESS:    3183278 HIT:    3155240 MISS:      28038
LLC TRANSLATION  ACCESS:       9634 HIT:       1955 MISS:       7679
LLC PREFETCH REQUESTED:          0 ISSUED:          0 USEFUL:          0 USELESS:          0
LLC AVERAGE MISS LATENCY: 2187 cycles
cpu0_DTLB TOTAL        ACCESS:   38335805 HIT:   35033894 MISS:    3301911
cpu0_DTLB LOAD         ACCESS:   38335805 HIT:   35033894 MISS:    3301911
cpu0_DTLB RFO          ACCESS:          0 HIT:          0 MISS:          0
cpu0_DTLB PREFETCH     ACCESS:          0 HIT:          0 MISS:          0
cpu0_DTLB WRITE        ACCESS:          0 HIT:          0 MISS:          0
cpu0_DTLB TRANSLATION  ACCESS:          0 HIT:          0 MISS:          0
cpu0_DTLB PREFETCH REQUESTED:          0 ISSUED:          0 USEFUL:          0 USELESS:          0
cpu0_DTLB AVERAGE MISS LATENCY: 341.6 cycles
cpu0_DTLB TOTAL        ACCESS:          0 HIT:          0 MISS:          0
cpu0_DTLB LOAD         ACCESS:          0 HIT:          0 MISS:          0
cpu0_DTLB RFO          ACCESS:          0 HIT:          0 MISS:          0
cpu0_DTLB PREFETCH     ACCESS:          0 HIT:          0 MISS:          0
cpu0_DTLB WRITE        ACCESS:          0 HIT:          0 MISS:          0
cpu0_DTLB TRANSLATION  ACCESS:          0 HIT:          0 MISS:          0
cpu0_DTLB PREFETCH REQUESTED:          0 ISSUED:          0 USEFUL:          0 USELESS:          0
cpu0_DTLB AVERAGE MISS LATENCY: 341.6 cycles
cpu0_DTLB TOTAL        ACCESS:          0 HIT:          0 MISS:          0
cpu0_DTLB LOAD         ACCESS:          0 HIT:          0 MISS:          0
cpu0_DTLB RFO          ACCESS:          0 HIT:          0 MISS:          0
cpu0_DTLB PREFETCH     ACCESS:          0 HIT:          0 MISS:          0
cpu0_DTLB WRITE        ACCESS:          0 HIT:          0 MISS:          0
cpu0_DTLB TRANSLATION  ACCESS:          0 HIT:          0 MISS:          0
cpu0_DTLB PREFETCH REQUESTED:          0 ISSUED:          0 USEFUL:          0 USELESS:          0
cpu0_DTLB AVERAGE MISS LATENCY: 341.6 cycles
cpu0_DTLB TOTAL        ACCESS:          0 HIT:          0 MISS:          0
cpu0_DTLB LOAD         ACCESS:          0 HIT:          0 MISS:          0
cpu0_DTLB RFO          ACCESS:          0 HIT:          0 MISS:          0
cpu0_DTLB PREFETCH     ACCESS:          0 HIT:          0 MISS:          0
cpu0_DTLB WRITE        ACCESS:          0 HIT:          0 MISS:          0
cpu0_DTLB TRANSLATION  ACCESS:          0 HIT:          0 MISS:          0
cpu0_DTLB PREFETCH REQUESTED:          0 ISSUED:          0 USEFUL:          0 USELESS:          0
cpu0_DTLB AVERAGE MISS LATENCY: 341.6 cycles
cpu0_ITLB TOTAL        ACCESS:   10801272 HIT:   10528900 MISS:     272372
cpu0_ITLB LOAD         ACCESS:   10801272 HIT:   10528900 MISS:     272372
cpu0_ITLB RFO          ACCESS:          0 HIT:          0 MISS:          0
cpu0_ITLB PREFETCH     ACCESS:          0 HIT:          0 MISS:          0
cpu0_ITLB WRITE        ACCESS:          0 HIT:          0 MISS:          0
cpu0_ITLB TRANSLATION  ACCESS:          0 HIT:          0 MISS:          0
cpu0_ITLB PREFETCH REQUESTED:          0 ISSUED:          0 USEFUL:          0 USELESS:          0
cpu0_ITLB AVERAGE MISS LATENCY: 24.28 cycles
cpu0_ITLB TOTAL        ACCESS:          0 HIT:          0 MISS:          0
cpu0_ITLB LOAD         ACCESS:          0 HIT:          0 MISS:          0
cpu0_ITLB RFO          ACCESS:          0 HIT:          0 MISS:          0
cpu0_ITLB PREFETCH     ACCESS:          0 HIT:          0 MISS:          0
cpu0_ITLB WRITE        ACCESS:          0 HIT:          0 MISS:          0
cpu0_ITLB TRANSLATION  ACCESS:          0 HIT:          0 MISS:          0
cpu0_ITLB PREFETCH REQUESTED:          0 ISSUED:          0 USEFUL:          0 USELESS:          0
cpu0_ITLB AVERAGE MISS LATENCY: 24.28 cycles
cpu0_ITLB TOTAL        ACCESS:          0 HIT:          0 MISS:          0
cpu0_ITLB LOAD         ACCESS:          0 HIT:          0 MISS:          0
cpu0_ITLB RFO          ACCESS:          0 HIT:          0 MISS:          0
cpu0_ITLB PREFETCH     ACCESS:          0 HIT:          0 MISS:          0
cpu0_ITLB WRITE        ACCESS:          0 HIT:          0 MISS:          0
cpu0_ITLB TRANSLATION  ACCESS:          0 HIT:          0 MISS:          0
cpu0_ITLB PREFETCH REQUESTED:          0 ISSUED:          0 USEFUL:          0 USELESS:          0
cpu0_ITLB AVERAGE MISS LATENCY: 24.28 cycles
cpu0_ITLB TOTAL        ACCESS:          0 HIT:          0 MISS:          0
cpu0_ITLB LOAD         ACCESS:          0 HIT:          0 MISS:          0
cpu0_ITLB RFO          ACCESS:          0 HIT:          0 MISS:          0
cpu0_ITLB PREFETCH     ACCESS:          0 HIT:          0 MISS:          0
cpu0_ITLB WRITE        ACCESS:          0 HIT:          0 MISS:          0
cpu0_ITLB TRANSLATION  ACCESS:          0 HIT:          0 MISS:          0
cpu0_ITLB PREFETCH REQUESTED:          0 ISSUED:          0 USEFUL:          0 USELESS:          0
cpu0_ITLB AVERAGE MISS LATENCY: 24.28 cycles
cpu0_L1D TOTAL        ACCESS:   49864853 HIT:   44920950 MISS:    4943903
cpu0_L1D LOAD         ACCESS:   23007604 HIT:   19926317 MISS:    3081287
cpu0_L1D RFO          ACCESS:          0 HIT:          0 MISS:          0
cpu0_L1D PREFETCH     ACCESS:          0 HIT:          0 MISS:          0
cpu0_L1D WRITE        ACCESS:   25966092 HIT:   24849461 MISS:    1116631
cpu0_L1D TRANSLATION  ACCESS:     891157 HIT:     145172 MISS:     745985
cpu0_L1D PREFETCH REQUESTED:          0 ISSUED:          0 USEFUL:          0 USELESS:          0
cpu0_L1D AVERAGE MISS LATENCY: 835.8 cycles
cpu0_L1D TOTAL        ACCESS:          0 HIT:          0 MISS:          0
cpu0_L1D LOAD         ACCESS:          0 HIT:          0 MISS:          0
cpu0_L1D RFO          ACCESS:          0 HIT:          0 MISS:          0
cpu0_L1D PREFETCH     ACCESS:          0 HIT:          0 MISS:          0
cpu0_L1D WRITE        ACCESS:          0 HIT:          0 MISS:          0
cpu0_L1D TRANSLATION  ACCESS:          0 HIT:          0 MISS:          0
cpu0_L1D PREFETCH REQUESTED:          0 ISSUED:          0 USEFUL:          0 USELESS:          0
cpu0_L1D AVERAGE MISS LATENCY: 835.8 cycles
cpu0_L1D TOTAL        ACCESS:          0 HIT:          0 MISS:          0
cpu0_L1D LOAD         ACCESS:          0 HIT:          0 MISS:          0
cpu0_L1D RFO          ACCESS:          0 HIT:          0 MISS:          0
cpu0_L1D PREFETCH     ACCESS:          0 HIT:          0 MISS:          0
cpu0_L1D WRITE        ACCESS:          0 HIT:          0 MISS:          0
cpu0_L1D TRANSLATION  ACCESS:          0 HIT:          0 MISS:          0
cpu0_L1D PREFETCH REQUESTED:          0 ISSUED:          0 USEFUL:          0 USELESS:          0
cpu0_L1D AVERAGE MISS LATENCY: 835.8 cycles
cpu0_L1D TOTAL        ACCESS:          0 HIT:          0 MISS:          0
cpu0_L1D LOAD         ACCESS:          0 HIT:          0 MISS:          0
cpu0_L1D RFO          ACCESS:          0 HIT:          0 MISS:          0
cpu0_L1D PREFETCH     ACCESS:          0 HIT:          0 MISS:          0
cpu0_L1D WRITE        ACCESS:          0 HIT:          0 MISS:          0
cpu0_L1D TRANSLATION  ACCESS:          0 HIT:          0 MISS:          0
cpu0_L1D PREFETCH REQUESTED:          0 ISSUED:          0 USEFUL:          0 USELESS:          0
cpu0_L1D AVERAGE MISS LATENCY: 835.8 cycles
cpu0_L1I TOTAL        ACCESS:   12881393 HIT:   12807480 MISS:      73913
cpu0_L1I LOAD         ACCESS:   12881393 HIT:   12807480 MISS:      73913
cpu0_L1I RFO          ACCESS:          0 HIT:          0 MISS:          0
cpu0_L1I PREFETCH     ACCESS:          0 HIT:          0 MISS:          0
cpu0_L1I WRITE        ACCESS:          0 HIT:          0 MISS:          0
cpu0_L1I TRANSLATION  ACCESS:          0 HIT:          0 MISS:          0
cpu0_L1I PREFETCH REQUESTED:          0 ISSUED:          0 USEFUL:          0 USELESS:          0
cpu0_L1I AVERAGE MISS LATENCY: 193.9 cycles
cpu0_L1I TOTAL        ACCESS:          0 HIT:          0 MISS:          0
cpu0_L1I LOAD         ACCESS:          0 HIT:          0 MISS:          0
cpu0_L1I RFO          ACCESS:          0 HIT:          0 MISS:          0
cpu0_L1I PREFETCH     ACCESS:          0 HIT:          0 MISS:          0
cpu0_L1I WRITE        ACCESS:          0 HIT:          0 MISS:          0
cpu0_L1I TRANSLATION  ACCESS:          0 HIT:          0 MISS:          0
cpu0_L1I PREFETCH REQUESTED:          0 ISSUED:          0 USEFUL:          0 USELESS:          0
cpu0_L1I AVERAGE MISS LATENCY: 193.9 cycles
cpu0_L1I TOTAL        ACCESS:          0 HIT:          0 MISS:          0
cpu0_L1I LOAD         ACCESS:          0 HIT:          0 MISS:          0
cpu0_L1I RFO          ACCESS:          0 HIT:          0 MISS:          0
cpu0_L1I PREFETCH     ACCESS:          0 HIT:          0 MISS:          0
cpu0_L1I WRITE        ACCESS:          0 HIT:          0 MISS:          0
cpu0_L1I TRANSLATION  ACCESS:          0 HIT:          0 MISS:          0
cpu0_L1I PREFETCH REQUESTED:          0 ISSUED:          0 USEFUL:          0 USELESS:          0
cpu0_L1I AVERAGE MISS LATENCY: 193.9 cycles
cpu0_L1I TOTAL        ACCESS:          0 HIT:          0 MISS:          0
cpu0_L1I LOAD         ACCESS:          0 HIT:          0 MISS:          0
cpu0_L1I RFO          ACCESS:          0 HIT:          0 MISS:          0
cpu0_L1I PREFETCH     ACCESS:          0 HIT:          0 MISS:          0
cpu0_L1I WRITE        ACCESS:          0 HIT:          0 MISS:          0
cpu0_L1I TRANSLATION  ACCESS:          0 HIT:          0 MISS:          0
cpu0_L1I PREFETCH REQUESTED:          0 ISSUED:          0 USEFUL:          0 USELESS:          0
cpu0_L1I AVERAGE MISS LATENCY: 193.9 cycles
cpu0_L2C TOTAL        ACCESS:    7199108 HIT:    2968327 MISS:    4230781
cpu0_L2C LOAD         ACCESS:    2539652 HIT:     852152 MISS:    1687500
cpu0_L2C RFO          ACCESS:     365207 HIT:     107408 MISS:     257799
cpu0_L2C PREFETCH     ACCESS:    2152033 HIT:     464897 MISS:    1687136
cpu0_L2C WRITE        ACCESS:    1397022 HIT:    1394755 MISS:       2267
cpu0_L2C TRANSLATION  ACCESS:     745194 HIT:     149115 MISS:     596079
cpu0_L2C PREFETCH REQUESTED:    2152033 ISSUED:    2152033 USEFUL:       3450 USELESS:      11552
cpu0_L2C AVERAGE MISS LATENCY: 996.1 cycles
cpu0_L2C TOTAL        ACCESS:          0 HIT:          0 MISS:          0
cpu0_L2C LOAD         ACCESS:          0 HIT:          0 MISS:          0
cpu0_L2C RFO          ACCESS:          0 HIT:          0 MISS:          0
cpu0_L2C PREFETCH     ACCESS:          0 HIT:          0 MISS:          0
cpu0_L2C WRITE        ACCESS:          0 HIT:          0 MISS:          0
cpu0_L2C TRANSLATION  ACCESS:          0 HIT:          0 MISS:          0
cpu0_L2C PREFETCH REQUESTED:    2152033 ISSUED:    2152033 USEFUL:       3450 USELESS:      11552
cpu0_L2C AVERAGE MISS LATENCY: 996.1 cycles
cpu0_L2C TOTAL        ACCESS:          0 HIT:          0 MISS:          0
cpu0_L2C LOAD         ACCESS:          0 HIT:          0 MISS:          0
cpu0_L2C RFO          ACCESS:          0 HIT:          0 MISS:          0
cpu0_L2C PREFETCH     ACCESS:          0 HIT:          0 MISS:          0
cpu0_L2C WRITE        ACCESS:          0 HIT:          0 MISS:          0
cpu0_L2C TRANSLATION  ACCESS:          0 HIT:          0 MISS:          0
cpu0_L2C PREFETCH REQUESTED:    2152033 ISSUED:    2152033 USEFUL:       3450 USELESS:      11552
cpu0_L2C AVERAGE MISS LATENCY: 996.1 cycles
cpu0_L2C TOTAL        ACCESS:          0 HIT:          0 MISS:          0
cpu0_L2C LOAD         ACCESS:          0 HIT:          0 MISS:          0
cpu0_L2C RFO          ACCESS:          0 HIT:          0 MISS:          0
cpu0_L2C PREFETCH     ACCESS:          0 HIT:          0 MISS:          0
cpu0_L2C WRITE        ACCESS:          0 HIT:          0 MISS:          0
cpu0_L2C TRANSLATION  ACCESS:          0 HIT:          0 MISS:          0
cpu0_L2C PREFETCH REQUESTED:    2152033 ISSUED:    2152033 USEFUL:       3450 USELESS:      11552
cpu0_L2C AVERAGE MISS LATENCY: 996.1 cycles
cpu0_STLB TOTAL        ACCESS:    3014517 HIT:    2372103 MISS:     642414
cpu0_STLB LOAD         ACCESS:    3014517 HIT:    2372103 MISS:     642414
cpu0_STLB RFO          ACCESS:          0 HIT:          0 MISS:          0
cpu0_STLB PREFETCH     ACCESS:          0 HIT:          0 MISS:          0
cpu0_STLB WRITE        ACCESS:          0 HIT:          0 MISS:          0
cpu0_STLB TRANSLATION  ACCESS:          0 HIT:          0 MISS:          0
cpu0_STLB PREFETCH REQUESTED:          0 ISSUED:          0 USEFUL:          0 USELESS:          0
cpu0_STLB AVERAGE MISS LATENCY: 1765 cycles
cpu0_STLB TOTAL        ACCESS:          0 HIT:          0 MISS:          0
cpu0_STLB LOAD         ACCESS:          0 HIT:          0 MISS:          0
cpu0_STLB RFO          ACCESS:          0 HIT:          0 MISS:          0
cpu0_STLB PREFETCH     ACCESS:          0 HIT:          0 MISS:          0
cpu0_STLB WRITE        ACCESS:          0 HIT:          0 MISS:          0
cpu0_STLB TRANSLATION  ACCESS:          0 HIT:          0 MISS:          0
cpu0_STLB PREFETCH REQUESTED:          0 ISSUED:          0 USEFUL:          0 USELESS:          0
cpu0_STLB AVERAGE MISS LATENCY: 1765 cycles
cpu0_STLB TOTAL        ACCESS:          0 HIT:          0 MISS:          0
cpu0_STLB LOAD         ACCESS:          0 HIT:          0 MISS:          0
cpu0_STLB RFO          ACCESS:          0 HIT:          0 MISS:          0
cpu0_STLB PREFETCH     ACCESS:          0 HIT:          0 MISS:          0
cpu0_STLB WRITE        ACCESS:          0 HIT:          0 MISS:          0
cpu0_STLB TRANSLATION  ACCESS:          0 HIT:          0 MISS:          0
cpu0_STLB PREFETCH REQUESTED:          0 ISSUED:          0 USEFUL:          0 USELESS:          0
cpu0_STLB AVERAGE MISS LATENCY: 1765 cycles
cpu0_STLB TOTAL        ACCESS:          0 HIT:          0 MISS:          0
cpu0_STLB LOAD         ACCESS:          0 HIT:          0 MISS:          0
cpu0_STLB RFO          ACCESS:          0 HIT:          0 MISS:          0
cpu0_STLB PREFETCH     ACCESS:          0 HIT:          0 MISS:          0
cpu0_STLB WRITE        ACCESS:          0 HIT:          0 MISS:          0
cpu0_STLB TRANSLATION  ACCESS:          0 HIT:          0 MISS:          0
cpu0_STLB PREFETCH REQUESTED:          0 ISSUED:          0 USEFUL:          0 USELESS:          0
cpu0_STLB AVERAGE MISS LATENCY: 1765 cycles
cpu1_DTLB TOTAL        ACCESS:          0 HIT:          0 MISS:          0
cpu1_DTLB LOAD         ACCESS:          0 HIT:          0 MISS:          0
cpu1_DTLB RFO          ACCESS:          0 HIT:          0 MISS:          0
cpu1_DTLB PREFETCH     ACCESS:          0 HIT:          0 MISS:          0
cpu1_DTLB WRITE        ACCESS:          0 HIT:          0 MISS:          0
cpu1_DTLB TRANSLATION  ACCESS:          0 HIT:          0 MISS:          0
cpu1_DTLB PREFETCH REQUESTED:          0 ISSUED:          0 USEFUL:          0 USELESS:          0
cpu1_DTLB AVERAGE MISS LATENCY: 9.025 cycles
cpu1_DTLB TOTAL        ACCESS:  224316201 HIT:  130998216 MISS:   93317985
cpu1_DTLB LOAD         ACCESS:  224316201 HIT:  130998216 MISS:   93317985
cpu1_DTLB RFO          ACCESS:          0 HIT:          0 MISS:          0
cpu1_DTLB PREFETCH     ACCESS:          0 HIT:          0 MISS:          0
cpu1_DTLB WRITE        ACCESS:          0 HIT:          0 MISS:          0
cpu1_DTLB TRANSLATION  ACCESS:          0 HIT:          0 MISS:          0
cpu1_DTLB PREFETCH REQUESTED:          0 ISSUED:          0 USEFUL:          0 USELESS:          0
cpu1_DTLB AVERAGE MISS LATENCY: 9.025 cycles
cpu1_DTLB TOTAL        ACCESS:          0 HIT:          0 MISS:          0
cpu1_DTLB LOAD         ACCESS:          0 HIT:          0 MISS:          0
cpu1_DTLB RFO          ACCESS:          0 HIT:          0 MISS:          0
cpu1_DTLB PREFETCH     ACCESS:          0 HIT:          0 MISS:          0
cpu1_DTLB WRITE        ACCESS:          0 HIT:          0 MISS:          0
cpu1_DTLB TRANSLATION  ACCESS:          0 HIT:          0 MISS:          0
cpu1_DTLB PREFETCH REQUESTED:          0 ISSUED:          0 USEFUL:          0 USELESS:          0
cpu1_DTLB AVERAGE MISS LATENCY: 9.025 cycles
cpu1_DTLB TOTAL        ACCESS:          0 HIT:          0 MISS:          0
cpu1_DTLB LOAD         ACCESS:          0 HIT:          0 MISS:          0
cpu1_DTLB RFO          ACCESS:          0 HIT:          0 MISS:          0
cpu1_DTLB PREFETCH     ACCESS:          0 HIT:          0 MISS:          0
cpu1_DTLB WRITE        ACCESS:          0 HIT:          0 MISS:          0
cpu1_DTLB TRANSLATION  ACCESS:          0 HIT:          0 MISS:          0
cpu1_DTLB PREFETCH REQUESTED:          0 ISSUED:          0 USEFUL:          0 USELESS:          0
cpu1_DTLB AVERAGE MISS LATENCY: 9.025 cycles
cpu1_ITLB TOTAL        ACCESS:          0 HIT:          0 MISS:          0
cpu1_ITLB LOAD         ACCESS:          0 HIT:          0 MISS:          0
cpu1_ITLB RFO          ACCESS:          0 HIT:          0 MISS:          0
cpu1_ITLB PREFETCH     ACCESS:          0 HIT:          0 MISS:          0
cpu1_ITLB WRITE        ACCESS:          0 HIT:          0 MISS:          0
cpu1_ITLB TRANSLATION  ACCESS:          0 HIT:          0 MISS:          0
cpu1_ITLB PREFETCH REQUESTED:          0 ISSUED:          0 USEFUL:          0 USELESS:          0
cpu1_ITLB AVERAGE MISS LATENCY: -nan cycles
cpu1_ITLB TOTAL        ACCESS:  138767890 HIT:  138767890 MISS:          0
cpu1_ITLB LOAD         ACCESS:  138767890 HIT:  138767890 MISS:          0
cpu1_ITLB RFO          ACCESS:          0 HIT:          0 MISS:          0
cpu1_ITLB PREFETCH     ACCESS:          0 HIT:          0 MISS:          0
cpu1_ITLB WRITE        ACCESS:          0 HIT:          0 MISS:          0
cpu1_ITLB TRANSLATION  ACCESS:          0 HIT:          0 MISS:          0
cpu1_ITLB PREFETCH REQUESTED:          0 ISSUED:          0 USEFUL:          0 USELESS:          0
cpu1_ITLB AVERAGE MISS LATENCY: -nan cycles
cpu1_ITLB TOTAL        ACCESS:          0 HIT:          0 MISS:          0
cpu1_ITLB LOAD         ACCESS:          0 HIT:          0 MISS:          0
cpu1_ITLB RFO          ACCESS:          0 HIT:          0 MISS:          0
cpu1_ITLB PREFETCH     ACCESS:          0 HIT:          0 MISS:          0
cpu1_ITLB WRITE        ACCESS:          0 HIT:          0 MISS:          0
cpu1_ITLB TRANSLATION  ACCESS:          0 HIT:          0 MISS:          0
cpu1_ITLB PREFETCH REQUESTED:          0 ISSUED:          0 USEFUL:          0 USELESS:          0
cpu1_ITLB AVERAGE MISS LATENCY: -nan cycles
cpu1_ITLB TOTAL        ACCESS:          0 HIT:          0 MISS:          0
cpu1_ITLB LOAD         ACCESS:          0 HIT:          0 MISS:          0
cpu1_ITLB RFO          ACCESS:          0 HIT:          0 MISS:          0
cpu1_ITLB PREFETCH     ACCESS:          0 HIT:          0 MISS:          0
cpu1_ITLB WRITE        ACCESS:          0 HIT:          0 MISS:          0
cpu1_ITLB TRANSLATION  ACCESS:          0 HIT:          0 MISS:          0
cpu1_ITLB PREFETCH REQUESTED:          0 ISSUED:          0 USEFUL:          0 USELESS:          0
cpu1_ITLB AVERAGE MISS LATENCY: -nan cycles
cpu1_L1D TOTAL        ACCESS:          0 HIT:          0 MISS:          0
cpu1_L1D LOAD         ACCESS:          0 HIT:          0 MISS:          0
cpu1_L1D RFO          ACCESS:          0 HIT:          0 MISS:          0
cpu1_L1D PREFETCH     ACCESS:          0 HIT:          0 MISS:          0
cpu1_L1D WRITE        ACCESS:          0 HIT:          0 MISS:          0
cpu1_L1D TRANSLATION  ACCESS:          0 HIT:          0 MISS:          0
cpu1_L1D PREFETCH REQUESTED:          0 ISSUED:          0 USEFUL:          0 USELESS:          0
cpu1_L1D AVERAGE MISS LATENCY: 112.9 cycles
cpu1_L1D TOTAL        ACCESS:  277187872 HIT:  153592889 MISS:  123594983
cpu1_L1D LOAD         ACCESS:  155402841 HIT:   38376811 MISS:  117026030
[...]
cpu2_L1I WRITE        ACCESS:          0 HIT:          0 MISS:          0
cpu2_L1I TRANSLATION  ACCESS:          0 HIT:          0 MISS:          0
cpu2_L1I PREFETCH REQUESTED:          0 ISSUED:          0 USEFUL:          0 USELESS:          0
cpu2_L1I AVERAGE MISS LATENCY: 21.73 cycles
cpu2_L1I TOTAL        ACCESS:          0 HIT:          0 MISS:          0
cpu2_L1I LOAD         ACCESS:          0 HIT:          0 MISS:          0
cpu2_L1I RFO          ACCESS:          0 HIT:          0 MISS:          0
cpu2_L1I PREFETCH     ACCESS:          0 HIT:          0 MISS:          0
cpu2_L1I WRITE        ACCESS:          0 HIT:          0 MISS:          0
cpu2_L1I TRANSLATION  ACCESS:          0 HIT:          0 MISS:          0
cpu2_L1I PREFETCH REQUESTED:          0 ISSUED:          0 USEFUL:          0 USELESS:          0
cpu2_L1I AVERAGE MISS LATENCY: 21.73 cycles
cpu2_L2C TOTAL        ACCESS:          0 HIT:          0 MISS:          0
cpu2_L2C LOAD         ACCESS:          0 HIT:          0 MISS:          0
cpu2_L2C RFO          ACCESS:          0 HIT:          0 MISS:          0
cpu2_L2C PREFETCH     ACCESS:          0 HIT:          0 MISS:          0
cpu2_L2C WRITE        ACCESS:          0 HIT:          0 MISS:          0
cpu2_L2C TRANSLATION  ACCESS:          0 HIT:          0 MISS:          0
cpu2_L2C PREFETCH REQUESTED:   56790615 ISSUED:   56613948 USEFUL:      26907 USELESS:      25559
cpu2_L2C AVERAGE MISS LATENCY: 238.8 cycles
cpu2_L2C TOTAL        ACCESS:          0 HIT:          0 MISS:          0
cpu2_L2C LOAD         ACCESS:          0 HIT:          0 MISS:          0
cpu2_L2C RFO          ACCESS:          0 HIT:          0 MISS:          0
cpu2_L2C PREFETCH     ACCESS:          0 HIT:          0 MISS:          0
cpu2_L2C WRITE        ACCESS:          0 HIT:          0 MISS:          0
cpu2_L2C TRANSLATION  ACCESS:          0 HIT:          0 MISS:          0
cpu2_L2C PREFETCH REQUESTED:   56790615 ISSUED:   56613948 USEFUL:      26907 USELESS:      25559
cpu2_L2C AVERAGE MISS LATENCY: 238.8 cycles
cpu2_L2C TOTAL        ACCESS:   15694604 HIT:   12528178 MISS:    3166426
cpu2_L2C LOAD         ACCESS:    7781182 HIT:    7534852 MISS:     246330
cpu2_L2C RFO          ACCESS:     204195 HIT:      40439 MISS:     163756
cpu2_L2C PREFETCH     ACCESS:    7115278 HIT:    4388558 MISS:    2726720
cpu2_L2C WRITE        ACCESS:     336198 HIT:     336198 MISS:          0
cpu2_L2C TRANSLATION  ACCESS:     257751 HIT:     228131 MISS:      29620
cpu2_L2C PREFETCH REQUESTED:   56790615 ISSUED:   56613948 USEFUL:      26907 USELESS:      25559
cpu2_L2C AVERAGE MISS LATENCY: 238.8 cycles
cpu2_L2C TOTAL        ACCESS:          0 HIT:          0 MISS:          0
cpu2_L2C LOAD         ACCESS:          0 HIT:          0 MISS:          0
cpu2_L2C RFO          ACCESS:          0 HIT:          0 MISS:          0
cpu2_L2C PREFETCH     ACCESS:          0 HIT:          0 MISS:          0
cpu2_L2C WRITE        ACCESS:          0 HIT:          0 MISS:          0
cpu2_L2C TRANSLATION  ACCESS:          0 HIT:          0 MISS:          0
cpu2_L2C PREFETCH REQUESTED:   56790615 ISSUED:   56613948 USEFUL:      26907 USELESS:      25559
cpu2_L2C AVERAGE MISS LATENCY: 238.8 cycles
cpu2_STLB TOTAL        ACCESS:          0 HIT:          0 MISS:          0
cpu2_STLB LOAD         ACCESS:          0 HIT:          0 MISS:          0
cpu2_STLB RFO          ACCESS:          0 HIT:          0 MISS:          0
cpu2_STLB PREFETCH     ACCESS:          0 HIT:          0 MISS:          0
cpu2_STLB WRITE        ACCESS:          0 HIT:          0 MISS:          0
cpu2_STLB TRANSLATION  ACCESS:          0 HIT:          0 MISS:          0
cpu2_STLB PREFETCH REQUESTED:          0 ISSUED:          0 USEFUL:          0 USELESS:          0
cpu2_STLB AVERAGE MISS LATENCY: 154.7 cycles
cpu2_STLB TOTAL        ACCESS:          0 HIT:          0 MISS:          0
cpu2_STLB LOAD         ACCESS:          0 HIT:          0 MISS:          0
cpu2_STLB RFO          ACCESS:          0 HIT:          0 MISS:          0
cpu2_STLB PREFETCH     ACCESS:          0 HIT:          0 MISS:          0
cpu2_STLB WRITE        ACCESS:          0 HIT:          0 MISS:          0
cpu2_STLB TRANSLATION  ACCESS:          0 HIT:          0 MISS:          0
cpu2_STLB PREFETCH REQUESTED:          0 ISSUED:          0 USEFUL:          0 USELESS:          0
cpu2_STLB AVERAGE MISS LATENCY: 154.7 cycles
cpu2_STLB TOTAL        ACCESS:    4511690 HIT:    4242658 MISS:     269032
cpu2_STLB LOAD         ACCESS:    4511690 HIT:    4242658 MISS:     269032
cpu2_STLB RFO          ACCESS:          0 HIT:          0 MISS:          0
cpu2_STLB PREFETCH     ACCESS:          0 HIT:          0 MISS:          0
cpu2_STLB WRITE        ACCESS:          0 HIT:          0 MISS:          0
cpu2_STLB TRANSLATION  ACCESS:          0 HIT:          0 MISS:          0
cpu2_STLB PREFETCH REQUESTED:          0 ISSUED:          0 USEFUL:          0 USELESS:          0
cpu2_STLB AVERAGE MISS LATENCY: 154.7 cycles
cpu2_STLB TOTAL        ACCESS:          0 HIT:          0 MISS:          0
cpu2_STLB LOAD         ACCESS:          0 HIT:          0 MISS:          0
cpu2_STLB RFO          ACCESS:          0 HIT:          0 MISS:          0
cpu2_STLB PREFETCH     ACCESS:          0 HIT:          0 MISS:          0
cpu2_STLB WRITE        ACCESS:          0 HIT:          0 MISS:          0
cpu2_STLB TRANSLATION  ACCESS:          0 HIT:          0 MISS:          0
cpu2_STLB PREFETCH REQUESTED:          0 ISSUED:          0 USEFUL:          0 USELESS:          0
cpu2_STLB AVERAGE MISS LATENCY: 154.7 cycles
cpu3_DTLB TOTAL        ACCESS:          0 HIT:          0 MISS:          0
cpu3_DTLB LOAD         ACCESS:          0 HIT:          0 MISS:          0
cpu3_DTLB RFO          ACCESS:          0 HIT:          0 MISS:          0
cpu3_DTLB PREFETCH     ACCESS:          0 HIT:          0 MISS:          0
cpu3_DTLB WRITE        ACCESS:          0 HIT:          0 MISS:          0
cpu3_DTLB TRANSLATION  ACCESS:          0 HIT:          0 MISS:          0
cpu3_DTLB PREFETCH REQUESTED:          0 ISSUED:          0 USEFUL:          0 USELESS:          0
cpu3_DTLB AVERAGE MISS LATENCY: 15.87 cycles
cpu3_DTLB TOTAL        ACCESS:          0 HIT:          0 MISS:          0
cpu3_DTLB LOAD         ACCESS:          0 HIT:          0 MISS:          0
cpu3_DTLB RFO          ACCESS:          0 HIT:          0 MISS:          0
cpu3_DTLB PREFETCH     ACCESS:          0 HIT:          0 MISS:          0
cpu3_DTLB WRITE        ACCESS:          0 HIT:          0 MISS:          0
cpu3_DTLB TRANSLATION  ACCESS:          0 HIT:          0 MISS:          0
cpu3_DTLB PREFETCH REQUESTED:          0 ISSUED:          0 USEFUL:          0 USELESS:          0
cpu3_DTLB AVERAGE MISS LATENCY: 15.87 cycles
cpu3_DTLB TOTAL        ACCESS:          0 HIT:          0 MISS:          0
cpu3_DTLB LOAD         ACCESS:          0 HIT:          0 MISS:          0
cpu3_DTLB RFO          ACCESS:          0 HIT:          0 MISS:          0
cpu3_DTLB PREFETCH     ACCESS:          0 HIT:          0 MISS:          0
cpu3_DTLB WRITE        ACCESS:          0 HIT:          0 MISS:          0
cpu3_DTLB TRANSLATION  ACCESS:          0 HIT:          0 MISS:          0
cpu3_DTLB PREFETCH REQUESTED:          0 ISSUED:          0 USEFUL:          0 USELESS:          0
cpu3_DTLB AVERAGE MISS LATENCY: 15.87 cycles
cpu3_DTLB TOTAL        ACCESS:   17888443 HIT:   17877932 MISS:      10511
cpu3_DTLB LOAD         ACCESS:   17888443 HIT:   17877932 MISS:      10511
cpu3_DTLB RFO          ACCESS:          0 HIT:          0 MISS:          0
cpu3_DTLB PREFETCH     ACCESS:          0 HIT:          0 MISS:          0
cpu3_DTLB WRITE        ACCESS:          0 HIT:          0 MISS:          0
cpu3_DTLB TRANSLATION  ACCESS:          0 HIT:          0 MISS:          0
cpu3_DTLB PREFETCH REQUESTED:          0 ISSUED:          0 USEFUL:          0 USELESS:          0
cpu3_DTLB AVERAGE MISS LATENCY: 15.87 cycles
cpu3_ITLB TOTAL        ACCESS:          0 HIT:          0 MISS:          0
cpu3_ITLB LOAD         ACCESS:          0 HIT:          0 MISS:          0
cpu3_ITLB RFO          ACCESS:          0 HIT:          0 MISS:          0
cpu3_ITLB PREFETCH     ACCESS:          0 HIT:          0 MISS:          0
cpu3_ITLB WRITE        ACCESS:          0 HIT:          0 MISS:          0
cpu3_ITLB TRANSLATION  ACCESS:          0 HIT:          0 MISS:          0
cpu3_ITLB PREFETCH REQUESTED:          0 ISSUED:          0 USEFUL:          0 USELESS:          0
cpu3_ITLB AVERAGE MISS LATENCY: 536 cycles
cpu3_ITLB TOTAL        ACCESS:          0 HIT:          0 MISS:          0
cpu3_ITLB LOAD         ACCESS:          0 HIT:          0 MISS:          0
cpu3_ITLB RFO          ACCESS:          0 HIT:          0 MISS:          0
cpu3_ITLB PREFETCH     ACCESS:          0 HIT:          0 MISS:          0
cpu3_ITLB WRITE        ACCESS:          0 HIT:          0 MISS:          0
cpu3_ITLB TRANSLATION  ACCESS:          0 HIT:          0 MISS:          0
cpu3_ITLB PREFETCH REQUESTED:          0 ISSUED:          0 USEFUL:          0 USELESS:          0
cpu3_ITLB AVERAGE MISS LATENCY: 536 cycles
cpu3_ITLB TOTAL        ACCESS:          0 HIT:          0 MISS:          0
cpu3_ITLB LOAD         ACCESS:          0 HIT:          0 MISS:          0
cpu3_ITLB RFO          ACCESS:          0 HIT:          0 MISS:          0
cpu3_ITLB PREFETCH     ACCESS:          0 HIT:          0 MISS:          0
cpu3_ITLB WRITE        ACCESS:          0 HIT:          0 MISS:          0
cpu3_ITLB TRANSLATION  ACCESS:          0 HIT:          0 MISS:          0
cpu3_ITLB PREFETCH REQUESTED:          0 ISSUED:          0 USEFUL:          0 USELESS:          0
cpu3_ITLB AVERAGE MISS LATENCY: 536 cycles
cpu3_ITLB TOTAL        ACCESS:     497307 HIT:     497307 MISS:          0
cpu3_ITLB LOAD         ACCESS:     497307 HIT:     497307 MISS:          0
cpu3_ITLB RFO          ACCESS:          0 HIT:          0 MISS:          0
cpu3_ITLB PREFETCH     ACCESS:          0 HIT:          0 MISS:          0
cpu3_ITLB WRITE        ACCESS:          0 HIT:          0 MISS:          0
cpu3_ITLB TRANSLATION  ACCESS:          0 HIT:          0 MISS:          0
cpu3_ITLB PREFETCH REQUESTED:          0 ISSUED:          0 USEFUL:          0 USELESS:          0
cpu3_ITLB AVERAGE MISS LATENCY: 536 cycles
cpu3_L1D TOTAL        ACCESS:          0 HIT:          0 MISS:          0
cpu3_L1D LOAD         ACCESS:          0 HIT:          0 MISS:          0
cpu3_L1D RFO          ACCESS:          0 HIT:          0 MISS:          0
cpu3_L1D PREFETCH     ACCESS:          0 HIT:          0 MISS:          0
cpu3_L1D WRITE        ACCESS:          0 HIT:          0 MISS:          0
cpu3_L1D TRANSLATION  ACCESS:          0 HIT:          0 MISS:          0
cpu3_L1D PREFETCH REQUESTED:          0 ISSUED:          0 USEFUL:          0 USELESS:          0
cpu3_L1D AVERAGE MISS LATENCY: 362.4 cycles
cpu3_L1D TOTAL        ACCESS:          0 HIT:          0 MISS:          0
cpu3_L1D LOAD         ACCESS:          0 HIT:          0 MISS:          0
cpu3_L1D RFO          ACCESS:          0 HIT:          0 MISS:          0
cpu3_L1D PREFETCH     ACCESS:          0 HIT:          0 MISS:          0
cpu3_L1D WRITE        ACCESS:          0 HIT:          0 MISS:          0
cpu3_L1D TRANSLATION  ACCESS:          0 HIT:          0 MISS:          0
cpu3_L1D PREFETCH REQUESTED:          0 ISSUED:          0 USEFUL:          0 USELESS:          0
cpu3_L1D AVERAGE MISS LATENCY: 362.4 cycles
cpu3_L1D TOTAL        ACCESS:          0 HIT:          0 MISS:          0
cpu3_L1D LOAD         ACCESS:          0 HIT:          0 MISS:          0
cpu3_L1D RFO          ACCESS:          0 HIT:          0 MISS:          0
cpu3_L1D PREFETCH     ACCESS:          0 HIT:          0 MISS:          0
cpu3_L1D WRITE        ACCESS:          0 HIT:          0 MISS:          0
cpu3_L1D TRANSLATION  ACCESS:          0 HIT:          0 MISS:          0
cpu3_L1D PREFETCH REQUESTED:          0 ISSUED:          0 USEFUL:          0 USELESS:          0
cpu3_L1D AVERAGE MISS LATENCY: 362.4 cycles
cpu3_L1D TOTAL        ACCESS:   21949372 HIT:   21935813 MISS:      13559
cpu3_L1D LOAD         ACCESS:   16386807 HIT:   16383926 MISS:       2881
cpu3_L1D RFO          ACCESS:          0 HIT:          0 MISS:          0
cpu3_L1D PREFETCH     ACCESS:          0 HIT:          0 MISS:          0
cpu3_L1D WRITE        ACCESS:    5562394 HIT:    5551869 MISS:      10525
cpu3_L1D TRANSLATION  ACCESS:        171 HIT:         18 MISS:        153
cpu3_L1D PREFETCH REQUESTED:          0 ISSUED:          0 USEFUL:          0 USELESS:          0
cpu3_L1D AVERAGE MISS LATENCY: 362.4 cycles
cpu3_L1I TOTAL        ACCESS:          0 HIT:          0 MISS:          0
cpu3_L1I LOAD         ACCESS:          0 HIT:          0 MISS:          0
cpu3_L1I RFO          ACCESS:          0 HIT:          0 MISS:          0
cpu3_L1I PREFETCH     ACCESS:          0 HIT:          0 MISS:          0
cpu3_L1I WRITE        ACCESS:          0 HIT:          0 MISS:          0
cpu3_L1I TRANSLATION  ACCESS:          0 HIT:          0 MISS:          0
cpu3_L1I PREFETCH REQUESTED:          0 ISSUED:          0 USEFUL:          0 USELESS:          0
cpu3_L1I AVERAGE MISS LATENCY: 34.09 cycles
cpu3_L1I TOTAL        ACCESS:          0 HIT:          0 MISS:          0
cpu3_L1I LOAD         ACCESS:          0 HIT:          0 MISS:          0
cpu3_L1I RFO          ACCESS:          0 HIT:          0 MISS:          0
cpu3_L1I PREFETCH     ACCESS:          0 HIT:          0 MISS:          0
cpu3_L1I WRITE        ACCESS:          0 HIT:          0 MISS:          0
cpu3_L1I TRANSLATION  ACCESS:          0 HIT:          0 MISS:          0
cpu3_L1I PREFETCH REQUESTED:          0 ISSUED:          0 USEFUL:          0 USELESS:          0
cpu3_L1I AVERAGE MISS LATENCY: 34.09 cycles
cpu3_L1I TOTAL        ACCESS:          0 HIT:          0 MISS:          0
cpu3_L1I LOAD         ACCESS:          0 HIT:          0 MISS:          0
cpu3_L1I RFO          ACCESS:          0 HIT:          0 MISS:          0
cpu3_L1I PREFETCH     ACCESS:          0 HIT:          0 MISS:          0
cpu3_L1I WRITE        ACCESS:          0 HIT:          0 MISS:          0
cpu3_L1I TRANSLATION  ACCESS:          0 HIT:          0 MISS:          0
cpu3_L1I PREFETCH REQUESTED:          0 ISSUED:          0 USEFUL:          0 USELESS:          0
cpu3_L1I AVERAGE MISS LATENCY: 34.09 cycles
cpu3_L1I TOTAL        ACCESS:     551000 HIT:     549548 MISS:       1452
cpu3_L1I LOAD         ACCESS:     551000 HIT:     549548 MISS:       1452
cpu3_L1I RFO          ACCESS:          0 HIT:          0 MISS:          0
cpu3_L1I PREFETCH     ACCESS:          0 HIT:          0 MISS:          0
cpu3_L1I WRITE        ACCESS:          0 HIT:          0 MISS:          0
cpu3_L1I TRANSLATION  ACCESS:          0 HIT:          0 MISS:          0
cpu3_L1I PREFETCH REQUESTED:          0 ISSUED:          0 USEFUL:          0 USELESS:          0
cpu3_L1I AVERAGE MISS LATENCY: 34.09 cycles
cpu3_L2C TOTAL        ACCESS:          0 HIT:          0 MISS:          0
cpu3_L2C LOAD         ACCESS:          0 HIT:          0 MISS:          0
cpu3_L2C RFO          ACCESS:          0 HIT:          0 MISS:          0
cpu3_L2C PREFETCH     ACCESS:          0 HIT:          0 MISS:          0
cpu3_L2C WRITE        ACCESS:          0 HIT:          0 MISS:          0
cpu3_L2C TRANSLATION  ACCESS:          0 HIT:          0 MISS:          0
cpu3_L2C PREFETCH REQUESTED:   23429026 ISSUED:   22215622 USEFUL:    1883364 USELESS:      20071
cpu3_L2C AVERAGE MISS LATENCY: 525.9 cycles
cpu3_L2C TOTAL        ACCESS:          0 HIT:          0 MISS:          0
cpu3_L2C LOAD         ACCESS:          0 HIT:          0 MISS:          0
cpu3_L2C RFO          ACCESS:          0 HIT:          0 MISS:          0
cpu3_L2C PREFETCH     ACCESS:          0 HIT:          0 MISS:          0
cpu3_L2C WRITE        ACCESS:          0 HIT:          0 MISS:          0
cpu3_L2C TRANSLATION  ACCESS:          0 HIT:          0 MISS:          0
cpu3_L2C PREFETCH REQUESTED:   23429026 ISSUED:   22215622 USEFUL:    1883364 USELESS:      20071
cpu3_L2C AVERAGE MISS LATENCY: 525.9 cycles
cpu3_L2C TOTAL        ACCESS:          0 HIT:          0 MISS:          0
cpu3_L2C LOAD         ACCESS:          0 HIT:          0 MISS:          0
cpu3_L2C RFO          ACCESS:          0 HIT:          0 MISS:          0
cpu3_L2C PREFETCH     ACCESS:          0 HIT:          0 MISS:          0
cpu3_L2C WRITE        ACCESS:          0 HIT:          0 MISS:          0
cpu3_L2C TRANSLATION  ACCESS:          0 HIT:          0 MISS:          0
cpu3_L2C PREFETCH REQUESTED:   23429026 ISSUED:   22215622 USEFUL:    1883364 USELESS:      20071
cpu3_L2C AVERAGE MISS LATENCY: 525.9 cycles
cpu3_L2C TOTAL        ACCESS:      11075 HIT:       5337 MISS:       5738
cpu3_L2C LOAD         ACCESS:       2781 HIT:       1209 MISS:       1572
cpu3_L2C RFO          ACCESS:       2554 HIT:         68 MISS:       2486
cpu3_L2C PREFETCH     ACCESS:       2534 HIT:        950 MISS:       1584
cpu3_L2C WRITE        ACCESS:       3053 HIT:       3052 MISS:          1
cpu3_L2C TRANSLATION  ACCESS:        153 HIT:         58 MISS:         95
cpu3_L2C PREFETCH REQUESTED:   23429026 ISSUED:   22215622 USEFUL:    1883364 USELESS:      20071
cpu3_L2C AVERAGE MISS LATENCY: 525.9 cycles
cpu3_STLB TOTAL        ACCESS:          0 HIT:          0 MISS:          0
cpu3_STLB LOAD         ACCESS:          0 HIT:          0 MISS:          0
cpu3_STLB RFO          ACCESS:          0 HIT:          0 MISS:          0
cpu3_STLB PREFETCH     ACCESS:          0 HIT:          0 MISS:          0
cpu3_STLB WRITE        ACCESS:          0 HIT:          0 MISS:          0
cpu3_STLB TRANSLATION  ACCESS:          0 HIT:          0 MISS:          0
cpu3_STLB PREFETCH REQUESTED:          0 ISSUED:          0 USEFUL:          0 USELESS:          0
cpu3_STLB AVERAGE MISS LATENCY: 380.7 cycles
cpu3_STLB TOTAL        ACCESS:          0 HIT:          0 MISS:          0
cpu3_STLB LOAD         ACCESS:          0 HIT:          0 MISS:          0
cpu3_STLB RFO          ACCESS:          0 HIT:          0 MISS:          0
cpu3_STLB PREFETCH     ACCESS:          0 HIT:          0 MISS:          0
cpu3_STLB WRITE        ACCESS:          0 HIT:          0 MISS:          0
cpu3_STLB TRANSLATION  ACCESS:          0 HIT:          0 MISS:          0
cpu3_STLB PREFETCH REQUESTED:          0 ISSUED:          0 USEFUL:          0 USELESS:          0
cpu3_STLB AVERAGE MISS LATENCY: 380.7 cycles
cpu3_STLB TOTAL        ACCESS:          0 HIT:          0 MISS:          0
cpu3_STLB LOAD         ACCESS:          0 HIT:          0 MISS:          0
cpu3_STLB RFO          ACCESS:          0 HIT:          0 MISS:          0
cpu3_STLB PREFETCH     ACCESS:          0 HIT:          0 MISS:          0
cpu3_STLB WRITE        ACCESS:          0 HIT:          0 MISS:          0
cpu3_STLB TRANSLATION  ACCESS:          0 HIT:          0 MISS:          0
cpu3_STLB PREFETCH REQUESTED:          0 ISSUED:          0 USEFUL:          0 USELESS:          0
cpu3_STLB AVERAGE MISS LATENCY: 380.7 cycles
cpu3_STLB TOTAL        ACCESS:       9240 HIT:       9070 MISS:        170
cpu3_STLB LOAD         ACCESS:       9240 HIT:       9070 MISS:        170
cpu3_STLB RFO          ACCESS:          0 HIT:          0 MISS:          0
cpu3_STLB PREFETCH     ACCESS:          0 HIT:          0 MISS:          0
cpu3_STLB WRITE        ACCESS:          0 HIT:          0 MISS:          0
cpu3_STLB TRANSLATION  ACCESS:          0 HIT:          0 MISS:          0
cpu3_STLB PREFETCH REQUESTED:          0 ISSUED:          0 USEFUL:          0 USELESS:          0
cpu3_STLB AVERAGE MISS LATENCY: 380.7 cycles

DRAM Statistics

Channel 0 RQ ROW_BUFFER_HIT:    3628739
  ROW_BUFFER_MISS:   16261730
 AVG DBUS CONGESTED CYCLE: 3.988
WQ ROW_BUFFER_HIT: Channel 0 
  ROW_BUFFER_MISS:     120349
  FULL:    5900833
