WARNING: physical memory size is smaller than virtual memory size.
WARNING: option --warmup_instructions is deprecated. Use --warmup-instructions instead.
WARNING: option --simulation_instructions is deprecated. Use --simulation-instructions instead.

*** ChampSim Multicore Out-of-Order Simulator ***
Warmup Instructions: 50000000
Simulation Instructions: 150000000
Number of CPUs: 4
Page size: 4096

Initialize SIGNATURE TABLE
ST_SET: 1
ST_WAY: 256
ST_TAG_BIT: 16
ST_TAG_MASK: ffff

Initialize PATTERN TABLE
PT_SET: 512
PT_WAY: 4
SIG_DELTA_BIT: 7
C_SIG_BIT: 4
C_DELTA_BIT: 4

Initialize PREFETCH FILTER
FILTER_SET: 1024
Initialize SIGNATURE TABLE
ST_SET: 1
ST_WAY: 256
ST_TAG_BIT: 16
ST_TAG_MASK: ffff

Initialize PATTERN TABLE
PT_SET: 512
PT_WAY: 4
SIG_DELTA_BIT: 7
C_SIG_BIT: 4
C_DELTA_BIT: 4

Initialize PREFETCH FILTER
FILTER_SET: 1024
Initialize SIGNATURE TABLE
ST_SET: 1
ST_WAY: 256
ST_TAG_BIT: 16
ST_TAG_MASK: ffff

Initialize PATTERN TABLE
PT_SET: 512
PT_WAY: 4
SIG_DELTA_BIT: 7
C_SIG_BIT: 4
C_DELTA_BIT: 4

Initialize PREFETCH FILTER
FILTER_SET: 1024
Initialize SIGNATURE TABLE
ST_SET: 1
ST_WAY: 256
ST_TAG_BIT: 16
ST_TAG_MASK: ffff

Initialize PATTERN TABLE
PT_SET: 512
PT_WAY: 4
SIG_DELTA_BIT: 7
C_SIG_BIT: 4
C_DELTA_BIT: 4

Initialize PREFETCH FILTER
FILTER_SET: 1024
Off-chip DRAM Size: 4 GiB Channels: 1 Width: 64-bit Data Race: 3200 MT/s
Heartbeat CPU 3 instructions: 10000001 cycles: 2502764 heartbeat IPC: 3.996 cumulative IPC: 3.996 (Simulation time: 00 hr 02 min 53 sec)
Heartbeat CPU 1 instructions: 10000003 cycles: 2992003 heartbeat IPC: 3.342 cumulative IPC: 3.342 (Simulation time: 00 hr 03 min 24 sec)
Heartbeat CPU 2 instructions: 10000004 cycles: 3062724 heartbeat IPC: 3.265 cumulative IPC: 3.265 (Simulation time: 00 hr 03 min 28 sec)
Heartbeat CPU 0 instructions: 10000004 cycles: 4174481 heartbeat IPC: 2.396 cumulative IPC: 2.396 (Simulation time: 00 hr 04 min 50 sec)
Heartbeat CPU 3 instructions: 20000002 cycles: 5005404 heartbeat IPC: 3.996 cumulative IPC: 3.996 (Simulation time: 00 hr 05 min 46 sec)
Heartbeat CPU 2 instructions: 20000002 cycles: 5747805 heartbeat IPC: 3.724 cumulative IPC: 3.48 (Simulation time: 00 hr 06 min 36 sec)
Heartbeat CPU 1 instructions: 20000001 cycles: 5982559 heartbeat IPC: 3.344 cumulative IPC: 3.343 (Simulation time: 00 hr 06 min 52 sec)
Heartbeat CPU 3 instructions: 30000003 cycles: 7507709 heartbeat IPC: 3.996 cumulative IPC: 3.996 (Simulation time: 00 hr 08 min 47 sec)
Heartbeat CPU 0 instructions: 20000004 cycles: 8347650 heartbeat IPC: 2.396 cumulative IPC: 2.396 (Simulation time: 00 hr 09 min 50 sec)
Heartbeat CPU 2 instructions: 30000000 cycles: 8966296 heartbeat IPC: 3.107 cumulative IPC: 3.346 (Simulation time: 00 hr 10 min 40 sec)
Heartbeat CPU 1 instructions: 30000003 cycles: 8969782 heartbeat IPC: 3.348 cumulative IPC: 3.345 (Simulation time: 00 hr 10 min 40 sec)
Heartbeat CPU 3 instructions: 40000001 cycles: 10010324 heartbeat IPC: 3.996 cumulative IPC: 3.996 (Simulation time: 00 hr 11 min 56 sec)
Heartbeat CPU 1 instructions: 40000001 cycles: 11939823 heartbeat IPC: 3.367 cumulative IPC: 3.35 (Simulation time: 00 hr 14 min 16 sec)
Heartbeat CPU 2 instructions: 40000004 cycles: 12219548 heartbeat IPC: 3.074 cumulative IPC: 3.273 (Simulation time: 00 hr 14 min 36 sec)
Heartbeat CPU 3 instructions: 50000001 cycles: 12513051 heartbeat IPC: 3.996 cumulative IPC: 3.996 (Simulation time: 00 hr 14 min 59 sec)
Warmup finished CPU 3 instructions: 50000001 cycles: 12513052 cumulative IPC: 3.996 (Simulation time: 00 hr 14 min 59 sec)
Heartbeat CPU 0 instructions: 30000001 cycles: 12520433 heartbeat IPC: 2.396 cumulative IPC: 2.396 (Simulation time: 00 hr 14 min 59 sec)
Heartbeat CPU 1 instructions: 50000002 cycles: 14912138 heartbeat IPC: 3.364 cumulative IPC: 3.353 (Simulation time: 00 hr 17 min 50 sec)
Warmup finished CPU 1 instructions: 50000002 cycles: 14912139 cumulative IPC: 3.353 (Simulation time: 00 hr 17 min 50 sec)
Heartbeat CPU 3 instructions: 60000000 cycles: 15015700 heartbeat IPC: 3.996 cumulative IPC: 3.996 (Simulation time: 00 hr 17 min 58 sec)
Heartbeat CPU 2 instructions: 50000002 cycles: 15373711 heartbeat IPC: 3.17 cumulative IPC: 3.252 (Simulation time: 00 hr 18 min 23 sec)
Warmup finished CPU 2 instructions: 50000002 cycles: 15373712 cumulative IPC: 3.252 (Simulation time: 00 hr 18 min 23 sec)
Heartbeat CPU 0 instructions: 40000000 cycles: 16706500 heartbeat IPC: 2.389 cumulative IPC: 2.394 (Simulation time: 00 hr 19 min 57 sec)
Heartbeat CPU 3 instructions: 70000003 cycles: 17520594 heartbeat IPC: 3.992 cumulative IPC: 3.995 (Simulation time: 00 hr 20 min 51 sec)
Heartbeat CPU 1 instructions: 60000003 cycles: 17891922 heartbeat IPC: 3.356 cumulative IPC: 3.353 (Simulation time: 00 hr 21 min 16 sec)
Heartbeat CPU 2 instructions: 60000002 cycles: 18082163 heartbeat IPC: 3.692 cumulative IPC: 3.318 (Simulation time: 00 hr 21 min 28 sec)
Heartbeat CPU 3 instructions: 80000000 cycles: 20022810 heartbeat IPC: 3.996 cumulative IPC: 3.995 (Simulation time: 00 hr 23 min 35 sec)
Heartbeat CPU 2 instructions: 70000000 cycles: 20808848 heartbeat IPC: 3.667 cumulative IPC: 3.364 (Simulation time: 00 hr 24 min 29 sec)
Heartbeat CPU 0 instructions: 50000003 cycles: 20873000 heartbeat IPC: 2.4 cumulative IPC: 2.395 (Simulation time: 00 hr 24 min 33 sec)
Warmup finished CPU 0 instructions: 50000003 cycles: 20873001 cumulative IPC: 2.395 (Simulation time: 00 hr 24 min 33 sec)
Warmup complete CPU 0 instructions: 50000003 cycles: 20873001 cumulative IPC: 2.395 (Simulation time: 00 hr 24 min 33 sec)
Warmup complete CPU 1 instructions: 69986385 cycles: 20873001 cumulative IPC: 3.353 (Simulation time: 00 hr 24 min 33 sec)
Warmup complete CPU 2 instructions: 70220227 cycles: 20873001 cumulative IPC: 3.364 (Simulation time: 00 hr 24 min 33 sec)
Warmup complete CPU 3 instructions: 83400760 cycles: 20873001 cumulative IPC: 3.996 (Simulation time: 00 hr 24 min 33 sec)
Heartbeat CPU 1 instructions: 70000000 cycles: 20877808 heartbeat IPC: 3.349 cumulative IPC: 2.832 (Simulation time: 00 hr 24 min 34 sec)
Heartbeat CPU 3 instructions: 90000004 cycles: 23962603 heartbeat IPC: 2.538 cumulative IPC: 2.136 (Simulation time: 00 hr 26 min 42 sec)
Heartbeat CPU 1 instructions: 80000003 cycles: 25391334 heartbeat IPC: 2.216 cumulative IPC: 2.216 (Simulation time: 00 hr 27 min 42 sec)
Heartbeat CPU 2 instructions: 80000001 cycles: 28337251 heartbeat IPC: 1.328 cumulative IPC: 1.31 (Simulation time: 00 hr 29 min 45 sec)
Heartbeat CPU 3 instructions: 100000000 cycles: 28676309 heartbeat IPC: 2.121 cumulative IPC: 2.127 (Simulation time: 00 hr 30 min 00 sec)
Heartbeat CPU 1 instructions: 90000002 cycles: 30113844 heartbeat IPC: 2.118 cumulative IPC: 2.166 (Simulation time: 00 hr 30 min 56 sec)
Heartbeat CPU 3 instructions: 110000001 cycles: 33368677 heartbeat IPC: 2.131 cumulative IPC: 2.129 (Simulation time: 00 hr 33 min 03 sec)
Heartbeat CPU 2 instructions: 90000001 cycles: 34391790 heartbeat IPC: 1.652 cumulative IPC: 1.463 (Simulation time: 00 hr 33 min 46 sec)
Heartbeat CPU 1 instructions: 100000000 cycles: 35300938 heartbeat IPC: 1.928 cumulative IPC: 2.08 (Simulation time: 00 hr 34 min 20 sec)
Heartbeat CPU 3 instructions: 120000000 cycles: 37991982 heartbeat IPC: 2.163 cumulative IPC: 2.138 (Simulation time: 00 hr 36 min 06 sec)
Heartbeat CPU 0 instructions: 60000003 cycles: 38935170 heartbeat IPC: 0.5536 cumulative IPC: 0.5536 (Simulation time: 00 hr 36 min 46 sec)
Heartbeat CPU 1 instructions: 110000004 cycles: 40313494 heartbeat IPC: 1.995 cumulative IPC: 2.058 (Simulation time: 00 hr 37 min 42 sec)
Heartbeat CPU 2 instructions: 100000002 cycles: 41538629 heartbeat IPC: 1.399 cumulative IPC: 1.441 (Simulation time: 00 hr 38 min 32 sec)
Heartbeat CPU 3 instructions: 130000002 cycles: 42643855 heartbeat IPC: 2.15 cumulative IPC: 2.14 (Simulation time: 00 hr 39 min 17 sec)
Heartbeat CPU 1 instructions: 120000003 cycles: 44943260 heartbeat IPC: 2.16 cumulative IPC: 2.078 (Simulation time: 00 hr 40 min 57 sec)
Heartbeat CPU 3 instructions: 140000000 cycles: 47316593 heartbeat IPC: 2.14 cumulative IPC: 2.14 (Simulation time: 00 hr 42 min 47 sec)
Heartbeat CPU 2 instructions: 110000004 cycles: 48105023 heartbeat IPC: 1.523 cumulative IPC: 1.461 (Simulation time: 00 hr 43 min 20 sec)
Heartbeat CPU 1 instructions: 130000001 cycles: 49590928 heartbeat IPC: 2.152 cumulative IPC: 2.09 (Simulation time: 00 hr 44 min 19 sec)
Heartbeat CPU 3 instructions: 150000004 cycles: 51930339 heartbeat IPC: 2.167 cumulative IPC: 2.144 (Simulation time: 00 hr 45 min 51 sec)
Heartbeat CPU 1 instructions: 140000000 cycles: 54331046 heartbeat IPC: 2.11 cumulative IPC: 2.093 (Simulation time: 00 hr 47 min 29 sec)
Heartbeat CPU 2 instructions: 120000000 cycles: 54545336 heartbeat IPC: 1.553 cumulative IPC: 1.478 (Simulation time: 00 hr 47 min 37 sec)
Heartbeat CPU 3 instructions: 160000003 cycles: 56546725 heartbeat IPC: 2.166 cumulative IPC: 2.147 (Simulation time: 00 hr 48 min 58 sec)
Heartbeat CPU 0 instructions: 70000002 cycles: 57761694 heartbeat IPC: 0.5312 cumulative IPC: 0.5422 (Simulation time: 00 hr 49 min 50 sec)
Heartbeat CPU 1 instructions: 150000003 cycles: 59057411 heartbeat IPC: 2.116 cumulative IPC: 2.095 (Simulation time: 00 hr 50 min 47 sec)
Heartbeat CPU 2 instructions: 130000001 cycles: 60035219 heartbeat IPC: 1.822 cumulative IPC: 1.526 (Simulation time: 00 hr 51 min 27 sec)
Heartbeat CPU 3 instructions: 170000003 cycles: 61142619 heartbeat IPC: 2.176 cumulative IPC: 2.15 (Simulation time: 00 hr 52 min 14 sec)
Heartbeat CPU 1 instructions: 160000000 cycles: 63829803 heartbeat IPC: 2.095 cumulative IPC: 2.095 (Simulation time: 00 hr 54 min 16 sec)
Heartbeat CPU 2 instructions: 140000000 cycles: 65625839 heartbeat IPC: 1.789 cumulative IPC: 1.559 (Simulation time: 00 hr 55 min 30 sec)
Heartbeat CPU 3 instructions: 180000004 cycles: 65745029 heartbeat IPC: 2.173 cumulative IPC: 2.153 (Simulation time: 00 hr 55 min 35 sec)
Heartbeat CPU 1 instructions: 170000003 cycles: 68577941 heartbeat IPC: 2.106 cumulative IPC: 2.097 (Simulation time: 00 hr 57 min 27 sec)
Heartbeat CPU 3 instructions: 190000002 cycles: 70361287 heartbeat IPC: 2.166 cumulative IPC: 2.154 (Simulation time: 00 hr 58 min 44 sec)
Heartbeat CPU 2 instructions: 150000004 cycles: 73209735 heartbeat IPC: 1.319 cumulative IPC: 1.524 (Simulation time: 01 hr 00 min 46 sec)
Heartbeat CPU 1 instructions: 180000000 cycles: 73316680 heartbeat IPC: 2.11 cumulative IPC: 2.098 (Simulation time: 01 hr 00 min 50 sec)
Heartbeat CPU 3 instructions: 200000000 cycles: 74976635 heartbeat IPC: 2.167 cumulative IPC: 2.155 (Simulation time: 01 hr 02 min 00 sec)
Heartbeat CPU 0 instructions: 80000002 cycles: 76865933 heartbeat IPC: 0.5234 cumulative IPC: 0.5358 (Simulation time: 01 hr 03 min 23 sec)
Heartbeat CPU 1 instructions: 190000000 cycles: 78031940 heartbeat IPC: 2.121 cumulative IPC: 2.1 (Simulation time: 01 hr 04 min 14 sec)
Heartbeat CPU 2 instructions: 160000002 cycles: 79449640 heartbeat IPC: 1.603 cumulative IPC: 1.533 (Simulation time: 01 hr 05 min 09 sec)
Heartbeat CPU 3 instructions: 210000000 cycles: 79557593 heartbeat IPC: 2.183 cumulative IPC: 2.157 (Simulation time: 01 hr 05 min 13 sec)
Heartbeat CPU 1 instructions: 200000002 cycles: 82762777 heartbeat IPC: 2.114 cumulative IPC: 2.101 (Simulation time: 01 hr 07 min 19 sec)
Heartbeat CPU 3 instructions: 220000000 cycles: 84126318 heartbeat IPC: 2.189 cumulative IPC: 2.16 (Simulation time: 01 hr 08 min 15 sec)
Heartbeat CPU 2 instructions: 170000004 cycles: 85811269 heartbeat IPC: 1.572 cumulative IPC: 1.537 (Simulation time: 01 hr 09 min 22 sec)
Heartbeat CPU 1 instructions: 210000003 cycles: 87489857 heartbeat IPC: 2.115 cumulative IPC: 2.102 (Simulation time: 01 hr 10 min 26 sec)
Heartbeat CPU 3 instructions: 230000001 cycles: 88715270 heartbeat IPC: 2.179 cumulative IPC: 2.161 (Simulation time: 01 hr 11 min 17 sec)
Simulation finished CPU 3 instructions: 150000002 cycles: 69427724 cumulative IPC: 2.161 (Simulation time: 01 hr 12 min 20 sec)
Simulation finished CPU 1 instructions: 150000001 cycles: 71232694 cumulative IPC: 2.106 (Simulation time: 01 hr 13 min 31 sec)
Heartbeat CPU 1 instructions: 220000000 cycles: 92110371 heartbeat IPC: 2.164 cumulative IPC: 2.106 (Simulation time: 01 hr 13 min 32 sec)
Heartbeat CPU 2 instructions: 180000002 cycles: 92393186 heartbeat IPC: 1.519 cumulative IPC: 1.535 (Simulation time: 01 hr 13 min 43 sec)
Heartbeat CPU 3 instructions: 240000000 cycles: 93322289 heartbeat IPC: 2.171 cumulative IPC: 2.162 (Simulation time: 01 hr 14 min 20 sec)
Heartbeat CPU 0 instructions: 90000001 cycles: 94408960 heartbeat IPC: 0.57 cumulative IPC: 0.544 (Simulation time: 01 hr 15 min 03 sec)
Heartbeat CPU 1 instructions: 230000002 cycles: 96701476 heartbeat IPC: 2.178 cumulative IPC: 2.11 (Simulation time: 01 hr 16 min 35 sec)
Heartbeat CPU 3 instructions: 250000002 cycles: 97945019 heartbeat IPC: 2.163 cumulative IPC: 2.162 (Simulation time: 01 hr 17 min 25 sec)
Heartbeat CPU 2 instructions: 190000001 cycles: 98898712 heartbeat IPC: 1.537 cumulative IPC: 1.535 (Simulation time: 01 hr 18 min 03 sec)
Heartbeat CPU 1 instructions: 240000002 cycles: 101357605 heartbeat IPC: 2.148 cumulative IPC: 2.112 (Simulation time: 01 hr 19 min 40 sec)
Heartbeat CPU 3 instructions: 260000000 cycles: 102592517 heartbeat IPC: 2.152 cumulative IPC: 2.161 (Simulation time: 01 hr 20 min 28 sec)
Heartbeat CPU 2 instructions: 200000002 cycles: 104829169 heartbeat IPC: 1.686 cumulative IPC: 1.546 (Simulation time: 01 hr 22 min 03 sec)
Heartbeat CPU 1 instructions: 250000003 cycles: 105988360 heartbeat IPC: 2.159 cumulative IPC: 2.115 (Simulation time: 01 hr 22 min 51 sec)
Heartbeat CPU 3 instructions: 270000000 cycles: 107216153 heartbeat IPC: 2.163 cumulative IPC: 2.161 (Simulation time: 01 hr 23 min 42 sec)
Heartbeat CPU 2 instructions: 210000001 cycles: 109875897 heartbeat IPC: 1.981 cumulative IPC: 1.571 (Simulation time: 01 hr 25 min 34 sec)
Heartbeat CPU 1 instructions: 260000001 cycles: 110612252 heartbeat IPC: 2.163 cumulative IPC: 2.117 (Simulation time: 01 hr 26 min 04 sec)
Heartbeat CPU 3 instructions: 280000001 cycles: 111843931 heartbeat IPC: 2.161 cumulative IPC: 2.161 (Simulation time: 01 hr 26 min 53 sec)
Heartbeat CPU 0 instructions: 100000000 cycles: 115262899 heartbeat IPC: 0.4795 cumulative IPC: 0.5297 (Simulation time: 01 hr 29 min 01 sec)
Heartbeat CPU 1 instructions: 270000001 cycles: 115298194 heartbeat IPC: 2.134 cumulative IPC: 2.118 (Simulation time: 01 hr 29 min 03 sec)
Heartbeat CPU 3 instructions: 290000004 cycles: 116481506 heartbeat IPC: 2.156 cumulative IPC: 2.161 (Simulation time: 01 hr 29 min 47 sec)
Heartbeat CPU 2 instructions: 220000000 cycles: 117421905 heartbeat IPC: 1.325 cumulative IPC: 1.551 (Simulation time: 01 hr 30 min 24 sec)
Simulation finished CPU 2 instructions: 150000001 cycles: 96699135 cumulative IPC: 1.551 (Simulation time: 01 hr 30 min 30 sec)
Heartbeat CPU 1 instructions: 280000001 cycles: 119880885 heartbeat IPC: 2.182 cumulative IPC: 2.121 (Simulation time: 01 hr 32 min 03 sec)
Heartbeat CPU 3 instructions: 300000000 cycles: 121099699 heartbeat IPC: 2.165 cumulative IPC: 2.161 (Simulation time: 01 hr 32 min 53 sec)
Heartbeat CPU 2 instructions: 230000000 cycles: 124101124 heartbeat IPC: 1.497 cumulative IPC: 1.548 (Simulation time: 01 hr 34 min 51 sec)
Heartbeat CPU 1 instructions: 290000000 cycles: 124402380 heartbeat IPC: 2.212 cumulative IPC: 2.125 (Simulation time: 01 hr 35 min 03 sec)
Heartbeat CPU 3 instructions: 310000001 cycles: 125721148 heartbeat IPC: 2.164 cumulative IPC: 2.161 (Simulation time: 01 hr 35 min 59 sec)
Heartbeat CPU 1 instructions: 300000004 cycles: 128125605 heartbeat IPC: 2.686 cumulative IPC: 2.145 (Simulation time: 01 hr 37 min 39 sec)
Heartbeat CPU 3 instructions: 320000001 cycles: 130335214 heartbeat IPC: 2.167 cumulative IPC: 2.161 (Simulation time: 01 hr 39 min 12 sec)
Heartbeat CPU 2 instructions: 240000001 cycles: 130744269 heartbeat IPC: 1.505 cumulative IPC: 1.545 (Simulation time: 01 hr 39 min 29 sec)
Heartbeat CPU 1 instructions: 310000000 cycles: 132005051 heartbeat IPC: 2.578 cumulative IPC: 2.16 (Simulation time: 01 hr 40 min 19 sec)
Heartbeat CPU 3 instructions: 330000001 cycles: 134945916 heartbeat IPC: 2.169 cumulative IPC: 2.162 (Simulation time: 01 hr 42 min 15 sec)
Heartbeat CPU 1 instructions: 320000000 cycles: 136990766 heartbeat IPC: 2.006 cumulative IPC: 2.153 (Simulation time: 01 hr 43 min 32 sec)
Heartbeat CPU 2 instructions: 250000001 cycles: 137598181 heartbeat IPC: 1.459 cumulative IPC: 1.54 (Simulation time: 01 hr 43 min 55 sec)
Heartbeat CPU 0 instructions: 110000004 cycles: 137807165 heartbeat IPC: 0.4436 cumulative IPC: 0.5131 (Simulation time: 01 hr 44 min 03 sec)
Heartbeat CPU 3 instructions: 340000000 cycles: 140813579 heartbeat IPC: 1.704 cumulative IPC: 2.139 (Simulation time: 01 hr 45 min 59 sec)
Heartbeat CPU 1 instructions: 330000001 cycles: 142342091 heartbeat IPC: 1.869 cumulative IPC: 2.141 (Simulation time: 01 hr 47 min 00 sec)
Heartbeat CPU 2 instructions: 260000002 cycles: 144167941 heartbeat IPC: 1.522 cumulative IPC: 1.539 (Simulation time: 01 hr 48 min 15 sec)
Heartbeat CPU 3 instructions: 350000002 cycles: 146201825 heartbeat IPC: 1.856 cumulative IPC: 2.127 (Simulation time: 01 hr 49 min 39 sec)
Heartbeat CPU 1 instructions: 340000002 cycles: 147100467 heartbeat IPC: 2.102 cumulative IPC: 2.139 (Simulation time: 01 hr 50 min 18 sec)
Heartbeat CPU 2 instructions: 270000000 cycles: 149280451 heartbeat IPC: 1.956 cumulative IPC: 1.556 (Simulation time: 01 hr 52 min 00 sec)
Heartbeat CPU 1 instructions: 350000002 cycles: 150889047 heartbeat IPC: 2.64 cumulative IPC: 2.154 (Simulation time: 01 hr 53 min 17 sec)
Heartbeat CPU 3 instructions: 360000003 cycles: 151311444 heartbeat IPC: 1.957 cumulative IPC: 2.121 (Simulation time: 01 hr 53 min 37 sec)
Heartbeat CPU 2 instructions: 280000000 cycles: 154309577 heartbeat IPC: 1.988 cumulative IPC: 1.572 (Simulation time: 01 hr 55 min 59 sec)
Heartbeat CPU 1 instructions: 360000002 cycles: 154428135 heartbeat IPC: 2.826 cumulative IPC: 2.171 (Simulation time: 01 hr 56 min 04 sec)
Heartbeat CPU 3 instructions: 370000000 cycles: 156398973 heartbeat IPC: 1.966 cumulative IPC: 2.115 (Simulation time: 01 hr 57 min 35 sec)
Heartbeat CPU 1 instructions: 370000000 cycles: 158139012 heartbeat IPC: 2.695 cumulative IPC: 2.186 (Simulation time: 01 hr 58 min 53 sec)
Heartbeat CPU 0 instructions: 120000004 cycles: 159648320 heartbeat IPC: 0.4579 cumulative IPC: 0.5044 (Simulation time: 02 hr 00 min 02 sec)
Heartbeat CPU 2 instructions: 290000003 cycles: 160104142 heartbeat IPC: 1.726 cumulative IPC: 1.579 (Simulation time: 02 hr 00 min 23 sec)
Heartbeat CPU 3 instructions: 380000002 cycles: 161479328 heartbeat IPC: 1.968 cumulative IPC: 2.109 (Simulation time: 02 hr 01 min 23 sec)
Heartbeat CPU 1 instructions: 380000004 cycles: 161741889 heartbeat IPC: 2.776 cumulative IPC: 2.201 (Simulation time: 02 hr 01 min 34 sec)
Heartbeat CPU 1 instructions: 390000000 cycles: 165389354 heartbeat IPC: 2.742 cumulative IPC: 2.214 (Simulation time: 02 hr 03 min 48 sec)
Heartbeat CPU 1 instructions: 400000004 cycles: 169700734 heartbeat IPC: 2.319 cumulative IPC: 2.217 (Simulation time: 02 hr 06 min 11 sec)
Heartbeat CPU 2 instructions: 300000004 cycles: 173437344 heartbeat IPC: 0.75 cumulative IPC: 1.506 (Simulation time: 02 hr 08 min 11 sec)
Heartbeat CPU 1 instructions: 410000002 cycles: 174728900 heartbeat IPC: 1.989 cumulative IPC: 2.21 (Simulation time: 02 hr 08 min 57 sec)
Heartbeat CPU 3 instructions: 390000001 cycles: 175574608 heartbeat IPC: 0.7095 cumulative IPC: 1.982 (Simulation time: 02 hr 09 min 30 sec)
Heartbeat CPU 1 instructions: 420000004 cycles: 178469385 heartbeat IPC: 2.673 cumulative IPC: 2.221 (Simulation time: 02 hr 11 min 36 sec)
Heartbeat CPU 3 instructions: 400000003 cycles: 180188229 heartbeat IPC: 2.167 cumulative IPC: 1.987 (Simulation time: 02 hr 12 min 55 sec)
Heartbeat CPU 2 instructions: 310000001 cycles: 181914400 heartbeat IPC: 1.18 cumulative IPC: 1.489 (Simulation time: 02 hr 14 min 03 sec)
Heartbeat CPU 1 instructions: 430000000 cycles: 182179532 heartbeat IPC: 2.695 cumulative IPC: 2.232 (Simulation time: 02 hr 14 min 16 sec)
Heartbeat CPU 3 instructions: 410000000 cycles: 185116742 heartbeat IPC: 2.029 cumulative IPC: 1.989 (Simulation time: 02 hr 16 min 30 sec)
Heartbeat CPU 1 instructions: 440000000 cycles: 185801289 heartbeat IPC: 2.761 cumulative IPC: 2.243 (Simulation time: 02 hr 16 min 59 sec)
Heartbeat CPU 1 instructions: 450000003 cycles: 189403408 heartbeat IPC: 2.776 cumulative IPC: 2.255 (Simulation time: 02 hr 19 min 33 sec)
Heartbeat CPU 2 instructions: 320000001 cycles: 189533444 heartbeat IPC: 1.313 cumulative IPC: 1.481 (Simulation time: 02 hr 19 min 39 sec)
Heartbeat CPU 3 instructions: 420000001 cycles: 189789460 heartbeat IPC: 2.14 cumulative IPC: 1.993 (Simulation time: 02 hr 19 min 50 sec)
Heartbeat CPU 1 instructions: 460000003 cycles: 193025887 heartbeat IPC: 2.761 cumulative IPC: 2.266 (Simulation time: 02 hr 22 min 15 sec)
Heartbeat CPU 3 instructions: 430000004 cycles: 194493644 heartbeat IPC: 2.126 cumulative IPC: 1.996 (Simulation time: 02 hr 23 min 19 sec)
Heartbeat CPU 1 instructions: 470000002 cycles: 196625435 heartbeat IPC: 2.778 cumulative IPC: 2.276 (Simulation time: 02 hr 24 min 51 sec)
Heartbeat CPU 2 instructions: 330000000 cycles: 197210043 heartbeat IPC: 1.303 cumulative IPC: 1.473 (Simulation time: 02 hr 25 min 16 sec)
Heartbeat CPU 0 instructions: 130000002 cycles: 197340137 heartbeat IPC: 0.2653 cumulative IPC: 0.4533 (Simulation time: 02 hr 25 min 22 sec)
Heartbeat CPU 3 instructions: 440000004 cycles: 199471080 heartbeat IPC: 2.009 cumulative IPC: 1.997 (Simulation time: 02 hr 26 min 53 sec)
Heartbeat CPU 1 instructions: 480000001 cycles: 200319169 heartbeat IPC: 2.707 cumulative IPC: 2.285 (Simulation time: 02 hr 27 min 30 sec)
Heartbeat CPU 1 instructions: 490000002 cycles: 203970929 heartbeat IPC: 2.738 cumulative IPC: 2.294 (Simulation time: 02 hr 30 min 06 sec)
Heartbeat CPU 2 instructions: 340000000 cycles: 204492912 heartbeat IPC: 1.373 cumulative IPC: 1.469 (Simulation time: 02 hr 30 min 30 sec)
Heartbeat CPU 3 instructions: 450000000 cycles: 204702812 heartbeat IPC: 1.911 cumulative IPC: 1.994 (Simulation time: 02 hr 30 min 38 sec)
Heartbeat CPU 1 instructions: 500000002 cycles: 207752704 heartbeat IPC: 2.644 cumulative IPC: 2.301 (Simulation time: 02 hr 32 min 47 sec)
Heartbeat CPU 3 instructions: 460000004 cycles: 209823165 heartbeat IPC: 1.953 cumulative IPC: 1.993 (Simulation time: 02 hr 34 min 16 sec)
Heartbeat CPU 1 instructions: 510000004 cycles: 211391588 heartbeat IPC: 2.748 cumulative IPC: 2.31 (Simulation time: 02 hr 35 min 25 sec)
Heartbeat CPU 2 instructions: 350000003 cycles: 211817208 heartbeat IPC: 1.365 cumulative IPC: 1.465 (Simulation time: 02 hr 35 min 43 sec)
Heartbeat CPU 3 instructions: 470000002 cycles: 214574422 heartbeat IPC: 2.105 cumulative IPC: 1.996 (Simulation time: 02 hr 37 min 46 sec)
Heartbeat CPU 1 instructions: 520000004 cycles: 215082537 heartbeat IPC: 2.709 cumulative IPC: 2.317 (Simulation time: 02 hr 38 min 08 sec)
Heartbeat CPU 1 instructions: 530000002 cycles: 218814882 heartbeat IPC: 2.679 cumulative IPC: 2.324 (Simulation time: 02 hr 40 min 50 sec)
Heartbeat CPU 2 instructions: 360000001 cycles: 218991620 heartbeat IPC: 1.394 cumulative IPC: 1.463 (Simulation time: 02 hr 40 min 58 sec)
Heartbeat CPU 3 instructions: 480000000 cycles: 219565205 heartbeat IPC: 2.004 cumulative IPC: 1.996 (Simulation time: 02 hr 41 min 25 sec)
Heartbeat CPU 1 instructions: 540000002 cycles: 222482102 heartbeat IPC: 2.727 cumulative IPC: 2.331 (Simulation time: 02 hr 43 min 55 sec)
Heartbeat CPU 1 instructions: 550000001 cycles: 226468153 heartbeat IPC: 2.509 cumulative IPC: 2.335 (Simulation time: 02 hr 46 min 57 sec)
Heartbeat CPU 2 instructions: 370000000 cycles: 226681896 heartbeat IPC: 1.3 cumulative IPC: 1.457 (Simulation time: 02 hr 47 min 08 sec)
Heartbeat CPU 3 instructions: 490000002 cycles: 226766760 heartbeat IPC: 1.389 cumulative IPC: 1.975 (Simulation time: 02 hr 47 min 12 sec)
Heartbeat CPU 1 instructions: 560000002 cycles: 230400718 heartbeat IPC: 2.543 cumulative IPC: 2.339 (Simulation time: 02 hr 50 min 05 sec)
Heartbeat CPU 0 instructions: 140000001 cycles: 231218042 heartbeat IPC: 0.2952 cumulative IPC: 0.4279 (Simulation time: 02 hr 50 min 49 sec)
Heartbeat CPU 2 instructions: 380000001 cycles: 232537901 heartbeat IPC: 1.708 cumulative IPC: 1.464 (Simulation time: 02 hr 51 min 58 sec)
Heartbeat CPU 3 instructions: 500000000 cycles: 232917605 heartbeat IPC: 1.626 cumulative IPC: 1.965 (Simulation time: 02 hr 52 min 18 sec)
Heartbeat CPU 1 instructions: 570000001 cycles: 234272446 heartbeat IPC: 2.583 cumulative IPC: 2.343 (Simulation time: 02 hr 53 min 30 sec)
Heartbeat CPU 2 instructions: 390000000 cycles: 237730139 heartbeat IPC: 1.926 cumulative IPC: 1.475 (Simulation time: 02 hr 56 min 29 sec)
Heartbeat CPU 1 instructions: 580000004 cycles: 238104847 heartbeat IPC: 2.609 cumulative IPC: 2.348 (Simulation time: 02 hr 56 min 49 sec)
Heartbeat CPU 3 instructions: 510000002 cycles: 238718457 heartbeat IPC: 1.724 cumulative IPC: 1.958 (Simulation time: 02 hr 57 min 20 sec)
Heartbeat CPU 1 instructions: 590000000 cycles: 241834006 heartbeat IPC: 2.682 cumulative IPC: 2.353 (Simulation time: 02 hr 59 min 56 sec)
Heartbeat CPU 2 instructions: 400000000 cycles: 243288789 heartbeat IPC: 1.799 cumulative IPC: 1.483 (Simulation time: 03 hr 01 min 18 sec)
Heartbeat CPU 3 instructions: 520000000 cycles: 244575262 heartbeat IPC: 1.707 cumulative IPC: 1.952 (Simulation time: 03 hr 02 min 30 sec)
Heartbeat CPU 1 instructions: 600000002 cycles: 245615113 heartbeat IPC: 2.645 cumulative IPC: 2.358 (Simulation time: 03 hr 03 min 29 sec)
Heartbeat CPU 2 instructions: 410000001 cycles: 249408236 heartbeat IPC: 1.634 cumulative IPC: 1.487 (Simulation time: 03 hr 06 min 41 sec)
Heartbeat CPU 1 instructions: 610000000 cycles: 249488595 heartbeat IPC: 2.582 cumulative IPC: 2.362 (Simulation time: 03 hr 06 min 45 sec)
Heartbeat CPU 3 instructions: 530000003 cycles: 250324270 heartbeat IPC: 1.739 cumulative IPC: 1.946 (Simulation time: 03 hr 07 min 30 sec)
Heartbeat CPU 1 instructions: 620000002 cycles: 253244731 heartbeat IPC: 2.662 cumulative IPC: 2.367 (Simulation time: 03 hr 09 min 56 sec)
Heartbeat CPU 0 instructions: 150000003 cycles: 255288333 heartbeat IPC: 0.4154 cumulative IPC: 0.4266 (Simulation time: 03 hr 11 min 48 sec)
Heartbeat CPU 3 instructions: 540000000 cycles: 255974861 heartbeat IPC: 1.77 cumulative IPC: 1.942 (Simulation time: 03 hr 12 min 29 sec)
Heartbeat CPU 1 instructions: 630000002 cycles: 257007331 heartbeat IPC: 2.658 cumulative IPC: 2.372 (Simulation time: 03 hr 13 min 23 sec)
Heartbeat CPU 2 instructions: 420000002 cycles: 257924085 heartbeat IPC: 1.174 cumulative IPC: 1.476 (Simulation time: 03 hr 14 min 08 sec)
Heartbeat CPU 1 instructions: 640000004 cycles: 260737206 heartbeat IPC: 2.681 cumulative IPC: 2.376 (Simulation time: 03 hr 16 min 24 sec)
Heartbeat CPU 3 instructions: 550000001 cycles: 261858054 heartbeat IPC: 1.7 cumulative IPC: 1.936 (Simulation time: 03 hr 17 min 26 sec)
Heartbeat CPU 1 instructions: 650000002 cycles: 264591346 heartbeat IPC: 2.595 cumulative IPC: 2.38 (Simulation time: 03 hr 19 min 40 sec)
Heartbeat CPU 2 instructions: 430000002 cycles: 265326394 heartbeat IPC: 1.351 cumulative IPC: 1.472 (Simulation time: 03 hr 20 min 19 sec)
Heartbeat CPU 3 instructions: 560000001 cycles: 267646312 heartbeat IPC: 1.728 cumulative IPC: 1.931 (Simulation time: 03 hr 22 min 24 sec)
Heartbeat CPU 1 instructions: 660000000 cycles: 268400116 heartbeat IPC: 2.626 cumulative IPC: 2.384 (Simulation time: 03 hr 23 min 00 sec)
Heartbeat CPU 1 instructions: 670000003 cycles: 272296125 heartbeat IPC: 2.567 cumulative IPC: 2.386 (Simulation time: 03 hr 26 min 27 sec)
Heartbeat CPU 2 instructions: 440000000 cycles: 272473699 heartbeat IPC: 1.399 cumulative IPC: 1.47 (Simulation time: 03 hr 26 min 37 sec)
Heartbeat CPU 3 instructions: 570000004 cycles: 273633579 heartbeat IPC: 1.67 cumulative IPC: 1.925 (Simulation time: 03 hr 27 min 34 sec)
Heartbeat CPU 1 instructions: 680000002 cycles: 276128797 heartbeat IPC: 2.609 cumulative IPC: 2.39 (Simulation time: 03 hr 29 min 42 sec)
Heartbeat CPU 3 instructions: 580000000 cycles: 279646753 heartbeat IPC: 1.663 cumulative IPC: 1.919 (Simulation time: 03 hr 32 min 36 sec)
Heartbeat CPU 2 instructions: 450000001 cycles: 279811226 heartbeat IPC: 1.363 cumulative IPC: 1.467 (Simulation time: 03 hr 32 min 45 sec)
Heartbeat CPU 1 instructions: 690000002 cycles: 280063465 heartbeat IPC: 2.542 cumulative IPC: 2.392 (Simulation time: 03 hr 32 min 58 sec)
Heartbeat CPU 0 instructions: 160000002 cycles: 282987513 heartbeat IPC: 0.361 cumulative IPC: 0.4197 (Simulation time: 03 hr 35 min 34 sec)
Heartbeat CPU 1 instructions: 700000004 cycles: 284120482 heartbeat IPC: 2.465 cumulative IPC: 2.393 (Simulation time: 03 hr 36 min 32 sec)
Heartbeat CPU 2 instructions: 460000002 cycles: 285155486 heartbeat IPC: 1.871 cumulative IPC: 1.475 (Simulation time: 03 hr 37 min 25 sec)
Heartbeat CPU 3 instructions: 590000001 cycles: 285504929 heartbeat IPC: 1.707 cumulative IPC: 1.914 (Simulation time: 03 hr 37 min 45 sec)
Heartbeat CPU 1 instructions: 710000001 cycles: 288221502 heartbeat IPC: 2.438 cumulative IPC: 2.394 (Simulation time: 03 hr 40 min 00 sec)
Heartbeat CPU 3 instructions: 600000000 cycles: 291194984 heartbeat IPC: 1.757 cumulative IPC: 1.911 (Simulation time: 03 hr 42 min 09 sec)
Heartbeat CPU 1 instructions: 720000002 cycles: 291935945 heartbeat IPC: 2.692 cumulative IPC: 2.398 (Simulation time: 03 hr 42 min 37 sec)
Heartbeat CPU 2 instructions: 470000003 cycles: 293707350 heartbeat IPC: 1.169 cumulative IPC: 1.465 (Simulation time: 03 hr 44 min 00 sec)
Heartbeat CPU 1 instructions: 730000000 cycles: 295840964 heartbeat IPC: 2.561 cumulative IPC: 2.4 (Simulation time: 03 hr 45 min 24 sec)
Heartbeat CPU 3 instructions: 610000000 cycles: 297040770 heartbeat IPC: 1.711 cumulative IPC: 1.907 (Simulation time: 03 hr 46 min 11 sec)
Heartbeat CPU 1 instructions: 740000001 cycles: 299634457 heartbeat IPC: 2.636 cumulative IPC: 2.404 (Simulation time: 03 hr 47 min 51 sec)
Heartbeat CPU 2 instructions: 480000000 cycles: 300834471 heartbeat IPC: 1.403 cumulative IPC: 1.464 (Simulation time: 03 hr 48 min 34 sec)
Heartbeat CPU 1 instructions: 750000000 cycles: 304086930 heartbeat IPC: 2.246 cumulative IPC: 2.401 (Simulation time: 03 hr 50 min 26 sec)
Heartbeat CPU 1 instructions: 760000002 cycles: 308188677 heartbeat IPC: 2.438 cumulative IPC: 2.402 (Simulation time: 03 hr 52 min 56 sec)
Heartbeat CPU 2 instructions: 490000002 cycles: 308851742 heartbeat IPC: 1.247 cumulative IPC: 1.458 (Simulation time: 03 hr 53 min 21 sec)
Heartbeat CPU 1 instructions: 770000000 cycles: 312388304 heartbeat IPC: 2.381 cumulative IPC: 2.401 (Simulation time: 03 hr 55 min 33 sec)
Heartbeat CPU 1 instructions: 780000002 cycles: 316363853 heartbeat IPC: 2.515 cumulative IPC: 2.403 (Simulation time: 03 hr 57 min 46 sec)
Heartbeat CPU 3 instructions: 620000003 cycles: 318681341 heartbeat IPC: 0.4621 cumulative IPC: 1.802 (Simulation time: 03 hr 59 min 02 sec)
Heartbeat CPU 1 instructions: 790000000 cycles: 320387687 heartbeat IPC: 2.485 cumulative IPC: 2.404 (Simulation time: 03 hr 59 min 57 sec)
Heartbeat CPU 2 instructions: 500000000 cycles: 322433900 heartbeat IPC: 0.7363 cumulative IPC: 1.425 (Simulation time: 04 hr 00 min 59 sec)
Heartbeat CPU 0 instructions: 170000002 cycles: 322917590 heartbeat IPC: 0.2504 cumulative IPC: 0.3973 (Simulation time: 04 hr 01 min 14 sec)
Heartbeat CPU 1 instructions: 800000000 cycles: 325428777 heartbeat IPC: 1.984 cumulative IPC: 2.397 (Simulation time: 04 hr 02 min 35 sec)
Heartbeat CPU 1 instructions: 810000003 cycles: 329812721 heartbeat IPC: 2.281 cumulative IPC: 2.395 (Simulation time: 04 hr 05 min 07 sec)
Heartbeat CPU 1 instructions: 820000003 cycles: 334062380 heartbeat IPC: 2.353 cumulative IPC: 2.395 (Simulation time: 04 hr 07 min 30 sec)
Heartbeat CPU 2 instructions: 510000001 cycles: 334526213 heartbeat IPC: 0.827 cumulative IPC: 1.402 (Simulation time: 04 hr 07 min 46 sec)
Heartbeat CPU 1 instructions: 830000002 cycles: 338050438 heartbeat IPC: 2.507 cumulative IPC: 2.396 (Simulation time: 04 hr 09 min 52 sec)
Heartbeat CPU 3 instructions: 630000003 cycles: 338108172 heartbeat IPC: 0.5148 cumulative IPC: 1.723 (Simulation time: 04 hr 09 min 54 sec)
Heartbeat CPU 1 instructions: 840000000 cycles: 341883148 heartbeat IPC: 2.609 cumulative IPC: 2.399 (Simulation time: 04 hr 12 min 11 sec)
Heartbeat CPU 2 instructions: 520000000 cycles: 344607701 heartbeat IPC: 0.9919 cumulative IPC: 1.389 (Simulation time: 04 hr 13 min 50 sec)
Heartbeat CPU 1 instructions: 850000002 cycles: 345809120 heartbeat IPC: 2.547 cumulative IPC: 2.401 (Simulation time: 04 hr 14 min 33 sec)
Heartbeat CPU 1 instructions: 860000000 cycles: 349719401 heartbeat IPC: 2.557 cumulative IPC: 2.402 (Simulation time: 04 hr 16 min 56 sec)
Heartbeat CPU 3 instructions: 640000003 cycles: 351732905 heartbeat IPC: 0.734 cumulative IPC: 1.682 (Simulation time: 04 hr 18 min 11 sec)
Heartbeat CPU 2 instructions: 530000001 cycles: 353102129 heartbeat IPC: 1.177 cumulative IPC: 1.384 (Simulation time: 04 hr 19 min 06 sec)
Heartbeat CPU 1 instructions: 870000002 cycles: 353474218 heartbeat IPC: 2.663 cumulative IPC: 2.405 (Simulation time: 04 hr 19 min 20 sec)
Heartbeat CPU 1 instructions: 880000000 cycles: 357237086 heartbeat IPC: 2.658 cumulative IPC: 2.408 (Simulation time: 04 hr 21 min 44 sec)
Heartbeat CPU 1 instructions: 890000003 cycles: 360957388 heartbeat IPC: 2.688 cumulative IPC: 2.411 (Simulation time: 04 hr 24 min 03 sec)
Heartbeat CPU 2 instructions: 540000000 cycles: 361253355 heartbeat IPC: 1.227 cumulative IPC: 1.38 (Simulation time: 04 hr 24 min 15 sec)
Heartbeat CPU 3 instructions: 650000004 cycles: 364280327 heartbeat IPC: 0.797 cumulative IPC: 1.65 (Simulation time: 04 hr 26 min 05 sec)
Heartbeat CPU 1 instructions: 900000000 cycles: 364740048 heartbeat IPC: 2.644 cumulative IPC: 2.414 (Simulation time: 04 hr 26 min 24 sec)
Heartbeat CPU 1 instructions: 910000000 cycles: 368584069 heartbeat IPC: 2.601 cumulative IPC: 2.416 (Simulation time: 04 hr 28 min 53 sec)
Heartbeat CPU 2 instructions: 550000004 cycles: 368901446 heartbeat IPC: 1.308 cumulative IPC: 1.379 (Simulation time: 04 hr 29 min 05 sec)
Heartbeat CPU 3 instructions: 660000000 cycles: 371980614 heartbeat IPC: 1.299 cumulative IPC: 1.642 (Simulation time: 04 hr 31 min 01 sec)
Heartbeat CPU 1 instructions: 920000004 cycles: 372890013 heartbeat IPC: 2.322 cumulative IPC: 2.415 (Simulation time: 04 hr 31 min 33 sec)
Heartbeat CPU 1 instructions: 930000002 cycles: 377182749 heartbeat IPC: 2.33 cumulative IPC: 2.414 (Simulation time: 04 hr 34 min 11 sec)
Heartbeat CPU 2 instructions: 560000001 cycles: 377429471 heartbeat IPC: 1.173 cumulative IPC: 1.374 (Simulation time: 04 hr 34 min 19 sec)
Heartbeat CPU 1 instructions: 940000000 cycles: 381309057 heartbeat IPC: 2.423 cumulative IPC: 2.414 (Simulation time: 04 hr 36 min 39 sec)
Heartbeat CPU 3 instructions: 670000001 cycles: 383304911 heartbeat IPC: 0.8831 cumulative IPC: 1.619 (Simulation time: 04 hr 37 min 58 sec)
Heartbeat CPU 2 instructions: 570000004 cycles: 384536752 heartbeat IPC: 1.407 cumulative IPC: 1.374 (Simulation time: 04 hr 38 min 45 sec)
Heartbeat CPU 1 instructions: 950000000 cycles: 385445925 heartbeat IPC: 2.417 cumulative IPC: 2.414 (Simulation time: 04 hr 39 min 21 sec)
Heartbeat CPU 1 instructions: 960000000 cycles: 389330278 heartbeat IPC: 2.574 cumulative IPC: 2.416 (Simulation time: 04 hr 41 min 55 sec)
Heartbeat CPU 2 instructions: 580000000 cycles: 391051915 heartbeat IPC: 1.535 cumulative IPC: 1.377 (Simulation time: 04 hr 42 min 57 sec)
Heartbeat CPU 0 instructions: 180000001 cycles: 391260309 heartbeat IPC: 0.1463 cumulative IPC: 0.351 (Simulation time: 04 hr 43 min 04 sec)
Heartbeat CPU 1 instructions: 970000000 cycles: 393484080 heartbeat IPC: 2.407 cumulative IPC: 2.415 (Simulation time: 04 hr 44 min 25 sec)
Heartbeat CPU 1 instructions: 980000001 cycles: 397273684 heartbeat IPC: 2.639 cumulative IPC: 2.418 (Simulation time: 04 hr 46 min 46 sec)
Heartbeat CPU 2 instructions: 590000001 cycles: 398332425 heartbeat IPC: 1.374 cumulative IPC: 1.377 (Simulation time: 04 hr 47 min 26 sec)
Heartbeat CPU 1 instructions: 990000003 cycles: 401042937 heartbeat IPC: 2.653 cumulative IPC: 2.42 (Simulation time: 04 hr 49 min 06 sec)
Heartbeat CPU 1 instructions: 1000000002 cycles: 405005770 heartbeat IPC: 2.523 cumulative IPC: 2.421 (Simulation time: 04 hr 51 min 25 sec)
Heartbeat CPU 2 instructions: 600000000 cycles: 406233483 heartbeat IPC: 1.266 cumulative IPC: 1.375 (Simulation time: 04 hr 52 min 06 sec)
Heartbeat CPU 1 instructions: 1010000001 cycles: 409082849 heartbeat IPC: 2.453 cumulative IPC: 2.421 (Simulation time: 04 hr 53 min 51 sec)
Heartbeat CPU 3 instructions: 680000004 cycles: 410980175 heartbeat IPC: 0.3613 cumulative IPC: 1.529 (Simulation time: 04 hr 55 min 11 sec)
Heartbeat CPU 1 instructions: 1020000003 cycles: 412814737 heartbeat IPC: 2.68 cumulative IPC: 2.424 (Simulation time: 04 hr 56 min 36 sec)
Heartbeat CPU 2 instructions: 610000000 cycles: 414251804 heartbeat IPC: 1.247 cumulative IPC: 1.372 (Simulation time: 04 hr 57 min 38 sec)
Heartbeat CPU 3 instructions: 690000001 cycles: 416373794 heartbeat IPC: 1.854 cumulative IPC: 1.534 (Simulation time: 04 hr 59 min 05 sec)
Heartbeat CPU 1 instructions: 1030000001 cycles: 416556254 heartbeat IPC: 2.673 cumulative IPC: 2.426 (Simulation time: 04 hr 59 min 13 sec)
Heartbeat CPU 1 instructions: 1040000001 cycles: 420215070 heartbeat IPC: 2.733 cumulative IPC: 2.429 (Simulation time: 05 hr 01 min 38 sec)
Heartbeat CPU 3 instructions: 700000003 cycles: 421491316 heartbeat IPC: 1.954 cumulative IPC: 1.539 (Simulation time: 05 hr 02 min 30 sec)
Heartbeat CPU 2 instructions: 620000000 cycles: 423685884 heartbeat IPC: 1.06 cumulative IPC: 1.365 (Simulation time: 05 hr 04 min 11 sec)
Heartbeat CPU 1 instructions: 1050000001 cycles: 423915036 heartbeat IPC: 2.703 cumulative IPC: 2.432 (Simulation time: 05 hr 04 min 21 sec)
Heartbeat CPU 3 instructions: 710000000 cycles: 425380768 heartbeat IPC: 2.571 cumulative IPC: 1.549 (Simulation time: 05 hr 05 min 28 sec)
Heartbeat CPU 1 instructions: 1060000001 cycles: 427611447 heartbeat IPC: 2.705 cumulative IPC: 2.434 (Simulation time: 05 hr 07 min 09 sec)
Heartbeat CPU 3 instructions: 720000003 cycles: 429127544 heartbeat IPC: 2.669 cumulative IPC: 1.559 (Simulation time: 05 hr 08 min 11 sec)
Heartbeat CPU 2 instructions: 630000002 cycles: 430981489 heartbeat IPC: 1.371 cumulative IPC: 1.365 (Simulation time: 05 hr 09 min 32 sec)
Heartbeat CPU 1 instructions: 1070000001 cycles: 431270983 heartbeat IPC: 2.733 cumulative IPC: 2.437 (Simulation time: 05 hr 09 min 44 sec)
Heartbeat CPU 3 instructions: 730000003 cycles: 433105852 heartbeat IPC: 2.514 cumulative IPC: 1.569 (Simulation time: 05 hr 11 min 08 sec)
Heartbeat CPU 0 instructions: 190000003 cycles: 434353684 heartbeat IPC: 0.2321 cumulative IPC: 0.3386 (Simulation time: 05 hr 12 min 09 sec)
Heartbeat CPU 1 instructions: 1080000003 cycles: 434916617 heartbeat IPC: 2.743 cumulative IPC: 2.439 (Simulation time: 05 hr 12 min 34 sec)
Heartbeat CPU 1 instructions: 1090000004 cycles: 438809418 heartbeat IPC: 2.569 cumulative IPC: 2.441 (Simulation time: 05 hr 15 min 02 sec)
Heartbeat CPU 2 instructions: 640000002 cycles: 438897354 heartbeat IPC: 1.263 cumulative IPC: 1.363 (Simulation time: 05 hr 15 min 05 sec)
Heartbeat CPU 3 instructions: 740000003 cycles: 439993503 heartbeat IPC: 1.452 cumulative IPC: 1.567 (Simulation time: 05 hr 15 min 48 sec)
Heartbeat CPU 1 instructions: 1100000003 cycles: 442589717 heartbeat IPC: 2.645 cumulative IPC: 2.442 (Simulation time: 05 hr 17 min 32 sec)
Heartbeat CPU 1 instructions: 1110000003 cycles: 446783045 heartbeat IPC: 2.385 cumulative IPC: 2.442 (Simulation time: 05 hr 20 min 02 sec)
Heartbeat CPU 2 instructions: 650000000 cycles: 447724735 heartbeat IPC: 1.133 cumulative IPC: 1.358 (Simulation time: 05 hr 20 min 33 sec)
Heartbeat CPU 1 instructions: 1120000002 cycles: 451084713 heartbeat IPC: 2.325 cumulative IPC: 2.441 (Simulation time: 05 hr 22 min 40 sec)
Heartbeat CPU 1 instructions: 1130000002 cycles: 454988694 heartbeat IPC: 2.561 cumulative IPC: 2.442 (Simulation time: 05 hr 25 min 05 sec)
Heartbeat CPU 3 instructions: 750000003 cycles: 454991368 heartbeat IPC: 0.6668 cumulative IPC: 1.536 (Simulation time: 05 hr 25 min 05 sec)
Heartbeat CPU 2 instructions: 660000000 cycles: 456634356 heartbeat IPC: 1.122 cumulative IPC: 1.353 (Simulation time: 05 hr 26 min 05 sec)
Heartbeat CPU 1 instructions: 1140000000 cycles: 458901287 heartbeat IPC: 2.556 cumulative IPC: 2.443 (Simulation time: 05 hr 27 min 29 sec)
Heartbeat CPU 1 instructions: 1150000003 cycles: 462940283 heartbeat IPC: 2.476 cumulative IPC: 2.443 (Simulation time: 05 hr 30 min 01 sec)
Heartbeat CPU 2 instructions: 670000000 cycles: 464973691 heartbeat IPC: 1.199 cumulative IPC: 1.351 (Simulation time: 05 hr 31 min 14 sec)
Heartbeat CPU 3 instructions: 760000000 cycles: 465463492 heartbeat IPC: 0.9549 cumulative IPC: 1.522 (Simulation time: 05 hr 31 min 32 sec)
Heartbeat CPU 1 instructions: 1160000000 cycles: 466838799 heartbeat IPC: 2.565 cumulative IPC: 2.444 (Simulation time: 05 hr 32 min 20 sec)
Heartbeat CPU 1 instructions: 1170000002 cycles: 471093216 heartbeat IPC: 2.35 cumulative IPC: 2.443 (Simulation time: 05 hr 34 min 54 sec)
Heartbeat CPU 2 instructions: 680000004 cycles: 473921072 heartbeat IPC: 1.118 cumulative IPC: 1.346 (Simulation time: 05 hr 37 min 00 sec)
Heartbeat CPU 1 instructions: 1180000004 cycles: 475329812 heartbeat IPC: 2.36 cumulative IPC: 2.443 (Simulation time: 05 hr 38 min 14 sec)
Heartbeat CPU 3 instructions: 770000002 cycles: 477474152 heartbeat IPC: 0.8326 cumulative IPC: 1.504 (Simulation time: 05 hr 40 min 30 sec)
Heartbeat CPU 1 instructions: 1190000001 cycles: 478975144 heartbeat IPC: 2.743 cumulative IPC: 2.445 (Simulation time: 05 hr 41 min 59 sec)
Heartbeat CPU 2 instructions: 690000000 cycles: 479231780 heartbeat IPC: 1.883 cumulative IPC: 1.352 (Simulation time: 05 hr 42 min 13 sec)
Heartbeat CPU 3 instructions: 780000003 cycles: 482554890 heartbeat IPC: 1.968 cumulative IPC: 1.509 (Simulation time: 05 hr 45 min 19 sec)
Heartbeat CPU 1 instructions: 1200000001 cycles: 482659725 heartbeat IPC: 2.714 cumulative IPC: 2.447 (Simulation time: 05 hr 45 min 25 sec)
Heartbeat CPU 2 instructions: 700000000 cycles: 485562291 heartbeat IPC: 1.58 cumulative IPC: 1.355 (Simulation time: 05 hr 48 min 03 sec)
Heartbeat CPU 1 instructions: 1210000000 cycles: 486336304 heartbeat IPC: 2.72 cumulative IPC: 2.449 (Simulation time: 05 hr 48 min 41 sec)
Heartbeat CPU 0 instructions: 200000001 cycles: 489429811 heartbeat IPC: 0.1816 cumulative IPC: 0.3201 (Simulation time: 05 hr 50 min 44 sec)
Simulation finished CPU 0 instructions: 150000003 cycles: 468556812 cumulative IPC: 0.3201 (Simulation time: 05 hr 50 min 44 sec)
Simulation complete CPU 0 instructions: 150000003 cycles: 468556812 cumulative IPC: 0.3201 (Simulation time: 05 hr 50 min 44 sec)
Simulation complete CPU 1 instructions: 1148296393 cycles: 468556812 cumulative IPC: 2.451 (Simulation time: 05 hr 50 min 44 sec)
Simulation complete CPU 2 instructions: 634682772 cycles: 468556812 cumulative IPC: 1.355 (Simulation time: 05 hr 50 min 44 sec)
Simulation complete CPU 3 instructions: 706269811 cycles: 468556812 cumulative IPC: 1.507 (Simulation time: 05 hr 50 min 44 sec)

ChampSim completed all CPUs

=== Simulation ===
CPU 0 runs /home/das/dpc3_traces/620.omnetpp_s-874B.champsimtrace.xzCPU 1 runs /home/das/dpc3_traces/644.nab_s-5853B.champsimtrace.xzCPU 2 runs /home/das/dpc3_traces/623.xalancbmk_s-700B.champsimtrace.xzCPU 3 runs /home/das/dpc3_traces/621.wrf_s-575B.champsimtrace.xz
Total Simulation Statistics (not including warmup)

CPU 0 cumulative IPC: 0.3201 instructions: 150000003 cycles: 468556812
CPU 0 Branch Prediction Accuracy: 94.9% MPKI: 10.6 Average ROB Occupancy at Mispredict: 80.1
Branch type MPKI
BRANCH_DIRECT_JUMP: 0.923
BRANCH_INDIRECT: 0.128
BRANCH_CONDITIONAL: 8.42
BRANCH_DIRECT_CALL: 0.00016
BRANCH_INDIRECT_CALL: 0.734
BRANCH_RETURN: 0.399


CPU 1 cumulative IPC: 2.451 instructions: 1148296393 cycles: 468556812
CPU 1 Branch Prediction Accuracy: 87.9% MPKI: 11.72 Average ROB Occupancy at Mispredict: 192.7
Branch type MPKI
BRANCH_DIRECT_JUMP: 0.000117
BRANCH_INDIRECT: 0
BRANCH_CONDITIONAL: 6.19
BRANCH_DIRECT_CALL: 8.71e-07
BRANCH_INDIRECT_CALL: 0
BRANCH_RETURN: 5.53


CPU 2 cumulative IPC: 1.355 instructions: 634682772 cycles: 468556812
CPU 2 Branch Prediction Accuracy: 97.39% MPKI: 7.583 Average ROB Occupancy at Mispredict: 41.7
Branch type MPKI
BRANCH_DIRECT_JUMP: 0.104
BRANCH_INDIRECT: 0.325
BRANCH_CONDITIONAL: 5.44
BRANCH_DIRECT_CALL: 0.000345
BRANCH_INDIRECT_CALL: 0.353
BRANCH_RETURN: 1.36


CPU 3 cumulative IPC: 1.507 instructions: 706269811 cycles: 468556812
CPU 3 Branch Prediction Accuracy: 95.47% MPKI: 5.328 Average ROB Occupancy at Mispredict: 107.2
Branch type MPKI
BRANCH_DIRECT_JUMP: 0.000462
BRANCH_INDIRECT: 2.41e-05
BRANCH_CONDITIONAL: 4.93
BRANCH_DIRECT_CALL: 0.0026
BRANCH_INDIRECT_CALL: 0
BRANCH_RETURN: 0.396

LLC TOTAL        ACCESS:    5029527 HIT:    2404848 MISS:    2624679
LLC LOAD         ACCESS:    1679836 HIT:     634294 MISS:    1045542
LLC RFO          ACCESS:     256712 HIT:     165957 MISS:      90755
LLC PREFETCH     ACCESS:    1528876 HIT:     563627 MISS:     965249
LLC WRITE        ACCESS:     967421 HIT:     952192 MISS:      15229
LLC TRANSLATION  ACCESS:     596682 HIT:      88778 MISS:     507904
LLC PREFETCH REQUESTED:          0 ISSUED:          0 USEFUL:          0 USELESS:          0
LLC AVERAGE MISS LATENCY: 842.4 cycles
LLC TOTAL        ACCESS:     762985 HIT:     468279 MISS:     294706
LLC LOAD         ACCESS:     158284 HIT:     120580 MISS:      37704
LLC RFO          ACCESS:        584 HIT:        252 MISS:        332
LLC PREFETCH     ACCESS:     592622 HIT:     346807 MISS:     245815
LLC WRITE        ACCESS:       7859 HIT:        598 MISS:       7261
LLC TRANSLATION  ACCESS:       3636 HIT:         42 MISS:       3594
LLC PREFETCH REQUESTED:          0 ISSUED:          0 USEFUL:          0 USELESS:          0
LLC AVERAGE MISS LATENCY: 842.4 cycles
LLC TOTAL        ACCESS:   14263252 HIT:   12920129 MISS:    1343123
LLC LOAD         ACCESS:    1645612 HIT:    1491391 MISS:     154221
LLC RFO          ACCESS:     849745 HIT:      71328 MISS:     778417
LLC PREFETCH     ACCESS:   10630657 HIT:   10278507 MISS:     352150
LLC WRITE        ACCESS:    1015707 HIT:     997016 MISS:      18691
LLC TRANSLATION  ACCESS:     121531 HIT:      81887 MISS:      39644
LLC PREFETCH REQUESTED:          0 ISSUED:          0 USEFUL:          0 USELESS:          0
LLC AVERAGE MISS LATENCY: 842.4 cycles
LLC TOTAL        ACCESS:   10295869 HIT:    6378320 MISS:    3917549
LLC LOAD         ACCESS:    1545514 HIT:     980377 MISS:     565137
LLC RFO          ACCESS:     786417 HIT:     249831 MISS:     536586
LLC PREFETCH     ACCESS:    6525714 HIT:    3729453 MISS:    2796261
LLC WRITE        ACCESS:    1433802 HIT:    1417214 MISS:      16588
LLC TRANSLATION  ACCESS:       4422 HIT:       1445 MISS:       2977
LLC PREFETCH REQUESTED:          0 ISSUED:          0 USEFUL:          0 USELESS:          0
LLC AVERAGE MISS LATENCY: 842.4 cycles
cpu0_DTLB TOTAL        ACCESS:   38235640 HIT:   34943910 MISS:    3291730
cpu0_DTLB LOAD         ACCESS:   38235640 HIT:   34943910 MISS:    3291730
cpu0_DTLB RFO          ACCESS:          0 HIT:          0 MISS:          0
cpu0_DTLB PREFETCH     ACCESS:          0 HIT:          0 MISS:          0
cpu0_DTLB WRITE        ACCESS:          0 HIT:          0 MISS:          0
cpu0_DTLB TRANSLATION  ACCESS:          0 HIT:          0 MISS:          0
cpu0_DTLB PREFETCH REQUESTED:          0 ISSUED:          0 USEFUL:          0 USELESS:          0
cpu0_DTLB AVERAGE MISS LATENCY: 100.1 cycles
cpu0_DTLB TOTAL        ACCESS:          0 HIT:          0 MISS:          0
cpu0_DTLB LOAD         ACCESS:          0 HIT:          0 MISS:          0
cpu0_DTLB RFO          ACCESS:          0 HIT:          0 MISS:          0
cpu0_DTLB PREFETCH     ACCESS:          0 HIT:          0 MISS:          0
cpu0_DTLB WRITE        ACCESS:          0 HIT:          0 MISS:          0
cpu0_DTLB TRANSLATION  ACCESS:          0 HIT:          0 MISS:          0
cpu0_DTLB PREFETCH REQUESTED:          0 ISSUED:          0 USEFUL:          0 USELESS:          0
cpu0_DTLB AVERAGE MISS LATENCY: 100.1 cycles
cpu0_DTLB TOTAL        ACCESS:          0 HIT:          0 MISS:          0
cpu0_DTLB LOAD         ACCESS:          0 HIT:          0 MISS:          0
cpu0_DTLB RFO          ACCESS:          0 HIT:          0 MISS:          0
cpu0_DTLB PREFETCH     ACCESS:          0 HIT:          0 MISS:          0
cpu0_DTLB WRITE        ACCESS:          0 HIT:          0 MISS:          0
cpu0_DTLB TRANSLATION  ACCESS:          0 HIT:          0 MISS:          0
cpu0_DTLB PREFETCH REQUESTED:          0 ISSUED:          0 USEFUL:          0 USELESS:          0
cpu0_DTLB AVERAGE MISS LATENCY: 100.1 cycles
cpu0_DTLB TOTAL        ACCESS:          0 HIT:          0 MISS:          0
cpu0_DTLB LOAD         ACCESS:          0 HIT:          0 MISS:          0
cpu0_DTLB RFO          ACCESS:          0 HIT:          0 MISS:          0
cpu0_DTLB PREFETCH     ACCESS:          0 HIT:          0 MISS:          0
cpu0_DTLB WRITE        ACCESS:          0 HIT:          0 MISS:          0
cpu0_DTLB TRANSLATION  ACCESS:          0 HIT:          0 MISS:          0
cpu0_DTLB PREFETCH REQUESTED:          0 ISSUED:          0 USEFUL:          0 USELESS:          0
cpu0_DTLB AVERAGE MISS LATENCY: 100.1 cycles
cpu0_ITLB TOTAL        ACCESS:   10787072 HIT:   10514927 MISS:     272145
cpu0_ITLB LOAD         ACCESS:   10787072 HIT:   10514927 MISS:     272145
cpu0_ITLB RFO          ACCESS:          0 HIT:          0 MISS:          0
cpu0_ITLB PREFETCH     ACCESS:          0 HIT:          0 MISS:          0
cpu0_ITLB WRITE        ACCESS:          0 HIT:          0 MISS:          0
cpu0_ITLB TRANSLATION  ACCESS:          0 HIT:          0 MISS:          0
cpu0_ITLB PREFETCH REQUESTED:          0 ISSUED:          0 USEFUL:          0 USELESS:          0
cpu0_ITLB AVERAGE MISS LATENCY: 8.149 cycles
cpu0_ITLB TOTAL        ACCESS:          0 HIT:          0 MISS:          0
cpu0_ITLB LOAD         ACCESS:          0 HIT:          0 MISS:          0
cpu0_ITLB RFO          ACCESS:          0 HIT:          0 MISS:          0
cpu0_ITLB PREFETCH     ACCESS:          0 HIT:          0 MISS:          0
cpu0_ITLB WRITE        ACCESS:          0 HIT:          0 MISS:          0
cpu0_ITLB TRANSLATION  ACCESS:          0 HIT:          0 MISS:          0
cpu0_ITLB PREFETCH REQUESTED:          0 ISSUED:          0 USEFUL:          0 USELESS:          0
cpu0_ITLB AVERAGE MISS LATENCY: 8.149 cycles
cpu0_ITLB TOTAL        ACCESS:          0 HIT:          0 MISS:          0
cpu0_ITLB LOAD         ACCESS:          0 HIT:          0 MISS:          0
cpu0_ITLB RFO          ACCESS:          0 HIT:          0 MISS:          0
cpu0_ITLB PREFETCH     ACCESS:          0 HIT:          0 MISS:          0
cpu0_ITLB WRITE        ACCESS:          0 HIT:          0 MISS:          0
cpu0_ITLB TRANSLATION  ACCESS:          0 HIT:          0 MISS:          0
cpu0_ITLB PREFETCH REQUESTED:          0 ISSUED:          0 USEFUL:          0 USELESS:          0
cpu0_ITLB AVERAGE MISS LATENCY: 8.149 cycles
cpu0_ITLB TOTAL        ACCESS:          0 HIT:          0 MISS:          0
cpu0_ITLB LOAD         ACCESS:          0 HIT:          0 MISS:          0
cpu0_ITLB RFO          ACCESS:          0 HIT:          0 MISS:          0
cpu0_ITLB PREFETCH     ACCESS:          0 HIT:          0 MISS:          0
cpu0_ITLB WRITE        ACCESS:          0 HIT:          0 MISS:          0
cpu0_ITLB TRANSLATION  ACCESS:          0 HIT:          0 MISS:          0
cpu0_ITLB PREFETCH REQUESTED:          0 ISSUED:          0 USEFUL:          0 USELESS:          0
cpu0_ITLB AVERAGE MISS LATENCY: 8.149 cycles
cpu0_L1D TOTAL        ACCESS:   49759598 HIT:   44964153 MISS:    4795445
cpu0_L1D LOAD         ACCESS:   22886474 HIT:   19875643 MISS:    3010831
cpu0_L1D RFO          ACCESS:          0 HIT:          0 MISS:          0
cpu0_L1D PREFETCH     ACCESS:          0 HIT:          0 MISS:          0
cpu0_L1D WRITE        ACCESS:   25981945 HIT:   24943358 MISS:    1038587
cpu0_L1D TRANSLATION  ACCESS:     891179 HIT:     145152 MISS:     746027
cpu0_L1D PREFETCH REQUESTED:          0 ISSUED:          0 USEFUL:          0 USELESS:          0
cpu0_L1D AVERAGE MISS LATENCY: 222 cycles
cpu0_L1D TOTAL        ACCESS:          0 HIT:          0 MISS:          0
cpu0_L1D LOAD         ACCESS:          0 HIT:          0 MISS:          0
cpu0_L1D RFO          ACCESS:          0 HIT:          0 MISS:          0
cpu0_L1D PREFETCH     ACCESS:          0 HIT:          0 MISS:          0
cpu0_L1D WRITE        ACCESS:          0 HIT:          0 MISS:          0
cpu0_L1D TRANSLATION  ACCESS:          0 HIT:          0 MISS:          0
cpu0_L1D PREFETCH REQUESTED:          0 ISSUED:          0 USEFUL:          0 USELESS:          0
cpu0_L1D AVERAGE MISS LATENCY: 222 cycles
cpu0_L1D TOTAL        ACCESS:          0 HIT:          0 MISS:          0
cpu0_L1D LOAD         ACCESS:          0 HIT:          0 MISS:          0
cpu0_L1D RFO          ACCESS:          0 HIT:          0 MISS:          0
cpu0_L1D PREFETCH     ACCESS:          0 HIT:          0 MISS:          0
cpu0_L1D WRITE        ACCESS:          0 HIT:          0 MISS:          0
cpu0_L1D TRANSLATION  ACCESS:          0 HIT:          0 MISS:          0
cpu0_L1D PREFETCH REQUESTED:          0 ISSUED:          0 USEFUL:          0 USELESS:          0
cpu0_L1D AVERAGE MISS LATENCY: 222 cycles
cpu0_L1D TOTAL        ACCESS:          0 HIT:          0 MISS:          0
cpu0_L1D LOAD         ACCESS:          0 HIT:          0 MISS:          0
cpu0_L1D RFO          ACCESS:          0 HIT:          0 MISS:          0
cpu0_L1D PREFETCH     ACCESS:          0 HIT:          0 MISS:          0
cpu0_L1D WRITE        ACCESS:          0 HIT:          0 MISS:          0
cpu0_L1D TRANSLATION  ACCESS:          0 HIT:          0 MISS:          0
cpu0_L1D PREFETCH REQUESTED:          0 ISSUED:          0 USEFUL:          0 USELESS:          0
cpu0_L1D AVERAGE MISS LATENCY: 222 cycles
cpu0_L1I TOTAL        ACCESS:   12866367 HIT:   12792405 MISS:      73962
cpu0_L1I LOAD         ACCESS:   12866367 HIT:   12792405 MISS:      73962
cpu0_L1I RFO          ACCESS:          0 HIT:          0 MISS:          0
cpu0_L1I PREFETCH     ACCESS:          0 HIT:          0 MISS:          0
cpu0_L1I WRITE        ACCESS:          0 HIT:          0 MISS:          0
cpu0_L1I TRANSLATION  ACCESS:          0 HIT:          0 MISS:          0
cpu0_L1I PREFETCH REQUESTED:          0 ISSUED:          0 USEFUL:          0 USELESS:          0
cpu0_L1I AVERAGE MISS LATENCY: 32.38 cycles
cpu0_L1I TOTAL        ACCESS:          0 HIT:          0 MISS:          0
cpu0_L1I LOAD         ACCESS:          0 HIT:          0 MISS:          0
cpu0_L1I RFO          ACCESS:          0 HIT:          0 MISS:          0
cpu0_L1I PREFETCH     ACCESS:          0 HIT:          0 MISS:          0
cpu0_L1I WRITE        ACCESS:          0 HIT:          0 MISS:          0
cpu0_L1I TRANSLATION  ACCESS:          0 HIT:          0 MISS:          0
cpu0_L1I PREFETCH REQUESTED:          0 ISSUED:          0 USEFUL:          0 USELESS:          0
cpu0_L1I AVERAGE MISS LATENCY: 32.38 cycles
cpu0_L1I TOTAL        ACCESS:          0 HIT:          0 MISS:          0
cpu0_L1I LOAD         ACCESS:          0 HIT:          0 MISS:          0
cpu0_L1I RFO          ACCESS:          0 HIT:          0 MISS:          0
cpu0_L1I PREFETCH     ACCESS:          0 HIT:          0 MISS:          0
cpu0_L1I WRITE        ACCESS:          0 HIT:          0 MISS:          0
cpu0_L1I TRANSLATION  ACCESS:          0 HIT:          0 MISS:          0
cpu0_L1I PREFETCH REQUESTED:          0 ISSUED:          0 USEFUL:          0 USELESS:          0
cpu0_L1I AVERAGE MISS LATENCY: 32.38 cycles
cpu0_L1I TOTAL        ACCESS:          0 HIT:          0 MISS:          0
cpu0_L1I LOAD         ACCESS:          0 HIT:          0 MISS:          0
cpu0_L1I RFO          ACCESS:          0 HIT:          0 MISS:          0
cpu0_L1I PREFETCH     ACCESS:          0 HIT:          0 MISS:          0
cpu0_L1I WRITE        ACCESS:          0 HIT:          0 MISS:          0
cpu0_L1I TRANSLATION  ACCESS:          0 HIT:          0 MISS:          0
cpu0_L1I PREFETCH REQUESTED:          0 ISSUED:          0 USEFUL:          0 USELESS:          0
cpu0_L1I AVERAGE MISS LATENCY: 32.38 cycles
cpu0_L2C TOTAL        ACCESS:    7855655 HIT:    3194575 MISS:    4661080
cpu0_L2C LOAD         ACCESS:    2539811 HIT:     856791 MISS:    1683020
cpu0_L2C RFO          ACCESS:     365193 HIT:     108388 MISS:     256805
cpu0_L2C PREFETCH     ACCESS:    2803944 HIT:     681397 MISS:    2122547
cpu0_L2C WRITE        ACCESS:    1401476 HIT:    1399450 MISS:       2026
cpu0_L2C TRANSLATION  ACCESS:     745231 HIT:     148549 MISS:     596682
cpu0_L2C PREFETCH REQUESTED:    2803959 ISSUED:    2803944 USEFUL:       7641 USELESS:      15037
cpu0_L2C AVERAGE MISS LATENCY: 227.6 cycles
cpu0_L2C TOTAL        ACCESS:          0 HIT:          0 MISS:          0
cpu0_L2C LOAD         ACCESS:          0 HIT:          0 MISS:          0
cpu0_L2C RFO          ACCESS:          0 HIT:          0 MISS:          0
cpu0_L2C PREFETCH     ACCESS:          0 HIT:          0 MISS:          0
cpu0_L2C WRITE        ACCESS:          0 HIT:          0 MISS:          0
cpu0_L2C TRANSLATION  ACCESS:          0 HIT:          0 MISS:          0
cpu0_L2C PREFETCH REQUESTED:    2803959 ISSUED:    2803944 USEFUL:       7641 USELESS:      15037
cpu0_L2C AVERAGE MISS LATENCY: 227.6 cycles
cpu0_L2C TOTAL        ACCESS:          0 HIT:          0 MISS:          0
cpu0_L2C LOAD         ACCESS:          0 HIT:          0 MISS:          0
cpu0_L2C RFO          ACCESS:          0 HIT:          0 MISS:          0
cpu0_L2C PREFETCH     ACCESS:          0 HIT:          0 MISS:          0
cpu0_L2C WRITE        ACCESS:          0 HIT:          0 MISS:          0
cpu0_L2C TRANSLATION  ACCESS:          0 HIT:          0 MISS:          0
cpu0_L2C PREFETCH REQUESTED:    2803959 ISSUED:    2803944 USEFUL:       7641 USELESS:      15037
cpu0_L2C AVERAGE MISS LATENCY: 227.6 cycles
cpu0_L2C TOTAL        ACCESS:          0 HIT:          0 MISS:          0
cpu0_L2C LOAD         ACCESS:          0 HIT:          0 MISS:          0
cpu0_L2C RFO          ACCESS:          0 HIT:          0 MISS:          0
cpu0_L2C PREFETCH     ACCESS:          0 HIT:          0 MISS:          0
cpu0_L2C WRITE        ACCESS:          0 HIT:          0 MISS:          0
cpu0_L2C TRANSLATION  ACCESS:          0 HIT:          0 MISS:          0
cpu0_L2C PREFETCH REQUESTED:    2803959 ISSUED:    2803944 USEFUL:       7641 USELESS:      15037
cpu0_L2C AVERAGE MISS LATENCY: 227.6 cycles
cpu0_STLB TOTAL        ACCESS:    3013169 HIT:    2370748 MISS:     642421
cpu0_STLB LOAD         ACCESS:    3013169 HIT:    2370748 MISS:     642421
cpu0_STLB RFO          ACCESS:          0 HIT:          0 MISS:          0
cpu0_STLB PREFETCH     ACCESS:          0 HIT:          0 MISS:          0
cpu0_STLB WRITE        ACCESS:          0 HIT:          0 MISS:          0
cpu0_STLB TRANSLATION  ACCESS:          0 HIT:          0 MISS:          0
cpu0_STLB PREFETCH REQUESTED:          0 ISSUED:          0 USEFUL:          0 USELESS:          0
cpu0_STLB AVERAGE MISS LATENCY: 493.5 cycles
cpu0_STLB TOTAL        ACCESS:          0 HIT:          0 MISS:          0
cpu0_STLB LOAD         ACCESS:          0 HIT:          0 MISS:          0
cpu0_STLB RFO          ACCESS:          0 HIT:          0 MISS:          0
cpu0_STLB PREFETCH     ACCESS:          0 HIT:          0 MISS:          0
cpu0_STLB WRITE        ACCESS:          0 HIT:          0 MISS:          0
cpu0_STLB TRANSLATION  ACCESS:          0 HIT:          0 MISS:          0
cpu0_STLB PREFETCH REQUESTED:          0 ISSUED:          0 USEFUL:          0 USELESS:          0
cpu0_STLB AVERAGE MISS LATENCY: 493.5 cycles
cpu0_STLB TOTAL        ACCESS:          0 HIT:          0 MISS:          0
cpu0_STLB LOAD         ACCESS:          0 HIT:          0 MISS:          0
cpu0_STLB RFO          ACCESS:          0 HIT:          0 MISS:          0
cpu0_STLB PREFETCH     ACCESS:          0 HIT:          0 MISS:          0
cpu0_STLB WRITE        ACCESS:          0 HIT:          0 MISS:          0
cpu0_STLB TRANSLATION  ACCESS:          0 HIT:          0 MISS:          0
cpu0_STLB PREFETCH REQUESTED:          0 ISSUED:          0 USEFUL:          0 USELESS:          0
cpu0_STLB AVERAGE MISS LATENCY: 493.5 cycles
cpu0_STLB TOTAL        ACCESS:          0 HIT:          0 MISS:          0
cpu0_STLB LOAD         ACCESS:          0 HIT:          0 MISS:          0
cpu0_STLB RFO          ACCESS:          0 HIT:          0 MISS:          0
cpu0_STLB PREFETCH     ACCESS:          0 HIT:          0 MISS:          0
cpu0_STLB WRITE        ACCESS:          0 HIT:          0 MISS:          0
cpu0_STLB TRANSLATION  ACCESS:          0 HIT:          0 MISS:          0
cpu0_STLB PREFETCH REQUESTED:          0 ISSUED:          0 USEFUL:          0 USELESS:          0
cpu0_STLB AVERAGE MISS LATENCY: 493.5 cycles
cpu1_DTLB TOTAL        ACCESS:          0 HIT:          0 MISS:          0
cpu1_DTLB LOAD         ACCESS:          0 HIT:          0 MISS:          0
cpu1_DTLB RFO          ACCESS:          0 HIT:          0 MISS:          0
cpu1_DTLB PREFETCH     ACCESS:          0 HIT:          0 MISS:          0
cpu1_DTLB WRITE        ACCESS:          0 HIT:          0 MISS:          0
cpu1_DTLB TRANSLATION  ACCESS:          0 HIT:          0 MISS:          0
cpu1_DTLB PREFETCH REQUESTED:          0 ISSUED:          0 USEFUL:          0 USELESS:          0
cpu1_DTLB AVERAGE MISS LATENCY: 10.16 cycles
cpu1_DTLB TOTAL        ACCESS:  202852878 HIT:  200738867 MISS:    2114011
cpu1_DTLB LOAD         ACCESS:  202852878 HIT:  200738867 MISS:    2114011
cpu1_DTLB RFO          ACCESS:          0 HIT:          0 MISS:          0
cpu1_DTLB PREFETCH     ACCESS:          0 HIT:          0 MISS:          0
cpu1_DTLB WRITE        ACCESS:          0 HIT:          0 MISS:          0
cpu1_DTLB TRANSLATION  ACCESS:          0 HIT:          0 MISS:          0
cpu1_DTLB PREFETCH REQUESTED:          0 ISSUED:          0 USEFUL:          0 USELESS:          0
cpu1_DTLB AVERAGE MISS LATENCY: 10.16 cycles
cpu1_DTLB TOTAL        ACCESS:          0 HIT:          0 MISS:          0
cpu1_DTLB LOAD         ACCESS:          0 HIT:          0 MISS:          0
cpu1_DTLB RFO          ACCESS:          0 HIT:          0 MISS:          0
cpu1_DTLB PREFETCH     ACCESS:          0 HIT:          0 MISS:          0
cpu1_DTLB WRITE        ACCESS:          0 HIT:          0 MISS:          0
cpu1_DTLB TRANSLATION  ACCESS:          0 HIT:          0 MISS:          0
cpu1_DTLB PREFETCH REQUESTED:          0 ISSUED:          0 USEFUL:          0 USELESS:          0
cpu1_DTLB AVERAGE MISS LATENCY: 10.16 cycles
cpu1_DTLB TOTAL        ACCESS:          0 HIT:          0 MISS:          0
cpu1_DTLB LOAD         ACCESS:          0 HIT:          0 MISS:          0
cpu1_DTLB RFO          ACCESS:          0 HIT:          0 MISS:          0
cpu1_DTLB PREFETCH     ACCESS:          0 HIT:          0 MISS:          0
cpu1_DTLB WRITE        ACCESS:          0 HIT:          0 MISS:          0
cpu1_DTLB TRANSLATION  ACCESS:          0 HIT:          0 MISS:          0
cpu1_DTLB PREFETCH REQUESTED:          0 ISSUED:          0 USEFUL:          0 USELESS:          0
cpu1_DTLB AVERAGE MISS LATENCY: 10.16 cycles
cpu1_ITLB TOTAL        ACCESS:          0 HIT:          0 MISS:          0
cpu1_ITLB LOAD         ACCESS:          0 HIT:          0 MISS:          0
cpu1_ITLB RFO          ACCESS:          0 HIT:          0 MISS:          0
cpu1_ITLB PREFETCH     ACCESS:          0 HIT:          0 MISS:          0
cpu1_ITLB WRITE        ACCESS:          0 HIT:          0 MISS:          0
cpu1_ITLB TRANSLATION  ACCESS:          0 HIT:          0 MISS:          0
cpu1_ITLB PREFETCH REQUESTED:          0 ISSUED:          0 USEFUL:          0 USELESS:          0
cpu1_ITLB AVERAGE MISS LATENCY: -nan cycles
cpu1_ITLB TOTAL        ACCESS:      10205 HIT:      10205 MISS:          0
cpu1_ITLB LOAD         ACCESS:      10205 HIT:      10205 MISS:          0
cpu1_ITLB RFO          ACCESS:          0 HIT:          0 MISS:          0
cpu1_ITLB PREFETCH     ACCESS:          0 HIT:          0 MISS:          0
cpu1_ITLB WRITE        ACCESS:          0 HIT:          0 MISS:          0
cpu1_ITLB TRANSLATION  ACCESS:          0 HIT:          0 MISS:          0
cpu1_ITLB PREFETCH REQUESTED:          0 ISSUED:          0 USEFUL:          0 USELESS:          0
cpu1_ITLB AVERAGE MISS LATENCY: -nan cycles
cpu1_ITLB TOTAL        ACCESS:          0 HIT:          0 MISS:          0
cpu1_ITLB LOAD         ACCESS:          0 HIT:          0 MISS:          0
cpu1_ITLB RFO          ACCESS:          0 HIT:          0 MISS:          0
cpu1_ITLB PREFETCH     ACCESS:          0 HIT:          0 MISS:          0
cpu1_ITLB WRITE        ACCESS:          0 HIT:          0 MISS:          0
cpu1_ITLB TRANSLATION  ACCESS:          0 HIT:          0 MISS:          0
cpu1_ITLB PREFETCH REQUESTED:          0 ISSUED:          0 USEFUL:          0 USELESS:          0
cpu1_ITLB AVERAGE MISS LATENCY: -nan cycles
cpu1_ITLB TOTAL        ACCESS:          0 HIT:          0 MISS:          0
cpu1_ITLB LOAD         ACCESS:          0 HIT:          0 MISS:          0
cpu1_ITLB RFO          ACCESS:          0 HIT:          0 MISS:          0
cpu1_ITLB PREFETCH     ACCESS:          0 HIT:          0 MISS:          0
cpu1_ITLB WRITE        ACCESS:          0 HIT:          0 MISS:          0
cpu1_ITLB TRANSLATION  ACCESS:          0 HIT:          0 MISS:          0
cpu1_ITLB PREFETCH REQUESTED:          0 ISSUED:          0 USEFUL:          0 USELESS:          0
cpu1_ITLB AVERAGE MISS LATENCY: -nan cycles
cpu1_L1D TOTAL        ACCESS:          0 HIT:          0 MISS:          0
cpu1_L1D LOAD         ACCESS:          0 HIT:          0 MISS:          0
cpu1_L1D RFO          ACCESS:          0 HIT:          0 MISS:          0
cpu1_L1D PREFETCH     ACCESS:          0 HIT:          0 MISS:          0
cpu1_L1D WRITE        ACCESS:          0 HIT:          0 MISS:          0
cpu1_L1D TRANSLATION  ACCESS:          0 HIT:          0 MISS:          0
cpu1_L1D PREFETCH REQUESTED:          0 ISSUED:          0 USEFUL:          0 USELESS:          0
cpu1_L1D AVERAGE MISS LATENCY: 20.22 cycles
cpu1_L1D TOTAL        ACCESS:  271017912 HIT:  266399099 MISS:    4618813
cpu1_L1D LOAD         ACCESS:  147182031 HIT:  142628538 MISS:    4553493
cpu1_L1D RFO          ACCESS:          0 HIT:          0 MISS:          0
cpu1_L1D PREFETCH     ACCESS:          0 HIT:          0 MISS:          0
cpu1_L1D WRITE        ACCESS:  123826866 HIT:  123770295 MISS:      56571
cpu1_L1D TRANSLATION  ACCESS:       9015 HIT:        266 MISS:       8749
cpu1_L1D PREFETCH REQUESTED:          0 ISSUED:          0 USEFUL:          0 USELESS:          0
cpu1_L1D AVERAGE MISS LATENCY: 20.22 cycles
cpu1_L1D TOTAL        ACCESS:          0 HIT:          0 MISS:          0
cpu1_L1D LOAD         ACCESS:          0 HIT:          0 MISS:          0
cpu1_L1D RFO          ACCESS:          0 HIT:          0 MISS:          0
cpu1_L1D PREFETCH     ACCESS:          0 HIT:          0 MISS:          0
cpu1_L1D WRITE        ACCESS:          0 HIT:          0 MISS:          0
cpu1_L1D TRANSLATION  ACCESS:          0 HIT:          0 MISS:          0
cpu1_L1D PREFETCH REQUESTED:          0 ISSUED:          0 USEFUL:          0 USELESS:          0
cpu1_L1D AVERAGE MISS LATENCY: 20.22 cycles
cpu1_L1D TOTAL        ACCESS:          0 HIT:          0 MISS:          0
cpu1_L1D LOAD         ACCESS:          0 HIT:          0 MISS:          0
cpu1_L1D RFO          ACCESS:          0 HIT:          0 MISS:          0
cpu1_L1D PREFETCH     ACCESS:          0 HIT:          0 MISS:          0
cpu1_L1D WRITE        ACCESS:          0 HIT:          0 MISS:          0
cpu1_L1D TRANSLATION  ACCESS:          0 HIT:          0 MISS:          0
cpu1_L1D PREFETCH REQUESTED:          0 ISSUED:          0 USEFUL:          0 USELESS:          0
cpu1_L1D AVERAGE MISS LATENCY: 20.22 cycles
cpu1_L1I TOTAL        ACCESS:          0 HIT:          0 MISS:          0
cpu1_L1I LOAD         ACCESS:          0 HIT:          0 MISS:          0
cpu1_L1I RFO          ACCESS:          0 HIT:          0 MISS:          0
cpu1_L1I PREFETCH     ACCESS:          0 HIT:          0 MISS:          0
cpu1_L1I WRITE        ACCESS:          0 HIT:          0 MISS:          0
cpu1_L1I TRANSLATION  ACCESS:          0 HIT:          0 MISS:          0
cpu1_L1I PREFETCH REQUESTED:          0 ISSUED:          0 USEFUL:          0 USELESS:          0
cpu1_L1I AVERAGE MISS LATENCY: 580.5 cycles
cpu1_L1I TOTAL        ACCESS:      12812 HIT:      12810 MISS:          2
cpu1_L1I LOAD         ACCESS:      12812 HIT:      12810 MISS:          2
cpu1_L1I RFO          ACCESS:          0 HIT:          0 MISS:          0
cpu1_L1I PREFETCH     ACCESS:          0 HIT:          0 MISS:          0
cpu1_L1I WRITE        ACCESS:          0 HIT:          0 MISS:          0
cpu1_L1I TRANSLATION  ACCESS:          0 HIT:          0 MISS:          0
cpu1_L1I PREFETCH REQUESTED:          0 ISSUED:          0 USEFUL:          0 USELESS:          0
cpu1_L1I AVERAGE MISS LATENCY: 580.5 cycles
cpu1_L1I TOTAL        ACCESS:          0 HIT:          0 MISS:          0
cpu1_L1I LOAD         ACCESS:          0 HIT:          0 MISS:          0
cpu1_L1I RFO          ACCESS:          0 HIT:          0 MISS:          0
cpu1_L1I PREFETCH     ACCESS:          0 HIT:          0 MISS:          0
cpu1_L1I WRITE        ACCESS:          0 HIT:          0 MISS:          0
cpu1_L1I TRANSLATION  ACCESS:          0 HIT:          0 MISS:          0
cpu1_L1I PREFETCH REQUESTED:          0 ISSUED:          0 USEFUL:          0 USELESS:          0
cpu1_L1I AVERAGE MISS LATENCY: 580.5 cycles
cpu1_L1I TOTAL        ACCESS:          0 HIT:          0 MISS:          0
cpu1_L1I LOAD         ACCESS:          0 HIT:          0 MISS:          0
cpu1_L1I RFO          ACCESS:          0 HIT:          0 MISS:          0
cpu1_L1I PREFETCH     ACCESS:          0 HIT:          0 MISS:          0
cpu1_L1I WRITE        ACCESS:          0 HIT:          0 MISS:          0
cpu1_L1I TRANSLATION  ACCESS:          0 HIT:          0 MISS:          0
cpu1_L1I PREFETCH REQUESTED:          0 ISSUED:          0 USEFUL:          0 USELESS:          0
cpu1_L1I AVERAGE MISS LATENCY: 580.5 cycles
cpu1_L2C TOTAL        ACCESS:          0 HIT:          0 MISS:          0
cpu1_L2C LOAD         ACCESS:          0 HIT:          0 MISS:          0
cpu1_L2C RFO          ACCESS:          0 HIT:          0 MISS:          0
cpu1_L2C PREFETCH     ACCESS:          0 HIT:          0 MISS:          0
cpu1_L2C WRITE        ACCESS:          0 HIT:          0 MISS:          0
cpu1_L2C TRANSLATION  ACCESS:          0 HIT:          0 MISS:          0
cpu1_L2C PREFETCH REQUESTED:    9758554 ISSUED:    9758501 USEFUL:      69940 USELESS:       1775
cpu1_L2C AVERAGE MISS LATENCY: 82.28 cycles
cpu1_L2C TOTAL        ACCESS:   15894188 HIT:   15095380 MISS:     798808
cpu1_L2C LOAD         ACCESS:    4544601 HIT:    4383399 MISS:     161202
cpu1_L2C RFO          ACCESS:      14735 HIT:      14151 MISS:        584
cpu1_L2C PREFETCH     ACCESS:    9758501 HIT:    9125128 MISS:     633373
cpu1_L2C WRITE        ACCESS:    1567602 HIT:    1567589 MISS:         13
cpu1_L2C TRANSLATION  ACCESS:       8749 HIT:       5113 MISS:       3636
cpu1_L2C PREFETCH REQUESTED:    9758554 ISSUED:    9758501 USEFUL:      69940 USELESS:       1775
cpu1_L2C AVERAGE MISS LATENCY: 82.28 cycles
cpu1_L2C TOTAL        ACCESS:          0 HIT:          0 MISS:          0
cpu1_L2C LOAD         ACCESS:          0 HIT:          0 MISS:          0
cpu1_L2C RFO          ACCESS:          0 HIT:          0 MISS:          0
cpu1_L2C PREFETCH     ACCESS:          0 HIT:          0 MISS:          0
cpu1_L2C WRITE        ACCESS:          0 HIT:          0 MISS:          0
cpu1_L2C TRANSLATION  ACCESS:          0 HIT:          0 MISS:          0
cpu1_L2C PREFETCH REQUESTED:    9758554 ISSUED:    9758501 USEFUL:      69940 USELESS:       1775
cpu1_L2C AVERAGE MISS LATENCY: 82.28 cycles
cpu1_L2C TOTAL        ACCESS:          0 HIT:          0 MISS:          0
cpu1_L2C LOAD         ACCESS:          0 HIT:          0 MISS:          0
cpu1_L2C RFO          ACCESS:          0 HIT:          0 MISS:          0
cpu1_L2C PREFETCH     ACCESS:          0 HIT:          0 MISS:          0
cpu1_L2C WRITE        ACCESS:          0 HIT:          0 MISS:          0
cpu1_L2C TRANSLATION  ACCESS:          0 HIT:          0 MISS:          0
cpu1_L2C PREFETCH REQUESTED:    9758554 ISSUED:    9758501 USEFUL:      69940 USELESS:       1775
cpu1_L2C AVERAGE MISS LATENCY: 82.28 cycles
cpu1_STLB TOTAL        ACCESS:          0 HIT:          0 MISS:          0
cpu1_STLB LOAD         ACCESS:          0 HIT:          0 MISS:          0
cpu1_STLB RFO          ACCESS:          0 HIT:          0 MISS:          0
cpu1_STLB PREFETCH     ACCESS:          0 HIT:          0 MISS:          0
cpu1_STLB WRITE        ACCESS:          0 HIT:          0 MISS:          0
cpu1_STLB TRANSLATION  ACCESS:          0 HIT:          0 MISS:          0
cpu1_STLB PREFETCH REQUESTED:          0 ISSUED:          0 USEFUL:          0 USELESS:          0
cpu1_STLB AVERAGE MISS LATENCY: 707 cycles
cpu1_STLB TOTAL        ACCESS:    2029065 HIT:    2020292 MISS:       8773
cpu1_STLB LOAD         ACCESS:    2029065 HIT:    2020292 MISS:       8773
cpu1_STLB RFO          ACCESS:          0 HIT:          0 MISS:          0
cpu1_STLB PREFETCH     ACCESS:          0 HIT:          0 MISS:          0
cpu1_STLB WRITE        ACCESS:          0 HIT:          0 MISS:          0
cpu1_STLB TRANSLATION  ACCESS:          0 HIT:          0 MISS:          0
cpu1_STLB PREFETCH REQUESTED:          0 ISSUED:          0 USEFUL:          0 USELESS:          0
cpu1_STLB AVERAGE MISS LATENCY: 707 cycles
cpu1_STLB TOTAL        ACCESS:          0 HIT:          0 MISS:          0
cpu1_STLB LOAD         ACCESS:          0 HIT:          0 MISS:          0
cpu1_STLB RFO          ACCESS:          0 HIT:          0 MISS:          0
cpu1_STLB PREFETCH     ACCESS:          0 HIT:          0 MISS:          0
cpu1_STLB WRITE        ACCESS:          0 HIT:          0 MISS:          0
cpu1_STLB TRANSLATION  ACCESS:          0 HIT:          0 MISS:          0
cpu1_STLB PREFETCH REQUESTED:          0 ISSUED:          0 USEFUL:          0 USELESS:          0
cpu1_STLB AVERAGE MISS LATENCY: 707 cycles
cpu1_STLB TOTAL        ACCESS:          0 HIT:          0 MISS:          0
cpu1_STLB LOAD         ACCESS:          0 HIT:          0 MISS:          0
cpu1_STLB RFO          ACCESS:          0 HIT:          0 MISS:          0
cpu1_STLB PREFETCH     ACCESS:          0 HIT:          0 MISS:          0
cpu1_STLB WRITE        ACCESS:          0 HIT:          0 MISS:          0
cpu1_STLB TRANSLATION  ACCESS:          0 HIT:          0 MISS:          0
cpu1_STLB PREFETCH REQUESTED:          0 ISSUED:          0 USEFUL:          0 USELESS:          0
cpu1_STLB AVERAGE MISS LATENCY: 707 cycles
cpu2_DTLB TOTAL        ACCESS:          0 HIT:          0 MISS:          0
cpu2_DTLB LOAD         ACCESS:          0 HIT:          0 MISS:          0
cpu2_DTLB RFO          ACCESS:          0 HIT:          0 MISS:          0
cpu2_DTLB PREFETCH     ACCESS:          0 HIT:          0 MISS:          0
cpu2_DTLB WRITE        ACCESS:          0 HIT:          0 MISS:          0
cpu2_DTLB TRANSLATION  ACCESS:          0 HIT:          0 MISS:          0
cpu2_DTLB PREFETCH REQUESTED:          0 ISSUED:          0 USEFUL:          0 USELESS:          0
cpu2_DTLB AVERAGE MISS LATENCY: 7.267 cycles
cpu2_DTLB TOTAL        ACCESS:          0 HIT:          0 MISS:          0
cpu2_DTLB LOAD         ACCESS:          0 HIT:          0 MISS:          0
cpu2_DTLB RFO          ACCESS:          0 HIT:          0 MISS:          0
cpu2_DTLB PREFETCH     ACCESS:          0 HIT:          0 MISS:          0
cpu2_DTLB WRITE        ACCESS:          0 HIT:          0 MISS:          0
cpu2_DTLB TRANSLATION  ACCESS:          0 HIT:          0 MISS:          0
cpu2_DTLB PREFETCH REQUESTED:          0 ISSUED:          0 USEFUL:          0 USELESS:          0
cpu2_DTLB AVERAGE MISS LATENCY: 7.267 cycles
cpu2_DTLB TOTAL        ACCESS:  125592797 HIT:  103155916 MISS:   22436881
cpu2_DTLB LOAD         ACCESS:  125592797 HIT:  103155916 MISS:   22436881
cpu2_DTLB RFO          ACCESS:          0 HIT:          0 MISS:          0
cpu2_DTLB PREFETCH     ACCESS:          0 HIT:          0 MISS:          0
cpu2_DTLB WRITE        ACCESS:          0 HIT:          0 MISS:          0
cpu2_DTLB TRANSLATION  ACCESS:          0 HIT:          0 MISS:          0
cpu2_DTLB PREFETCH REQUESTED:          0 ISSUED:          0 USEFUL:          0 USELESS:          0
cpu2_DTLB AVERAGE MISS LATENCY: 7.267 cycles
cpu2_DTLB TOTAL        ACCESS:          0 HIT:          0 MISS:          0
cpu2_DTLB LOAD         ACCESS:          0 HIT:          0 MISS:          0
cpu2_DTLB RFO          ACCESS:          0 HIT:          0 MISS:          0
cpu2_DTLB PREFETCH     ACCESS:          0 HIT:          0 MISS:          0
cpu2_DTLB WRITE        ACCESS:          0 HIT:          0 MISS:          0
cpu2_DTLB TRANSLATION  ACCESS:          0 HIT:          0 MISS:          0
cpu2_DTLB PREFETCH REQUESTED:          0 ISSUED:          0 USEFUL:          0 USELESS:          0
cpu2_DTLB AVERAGE MISS LATENCY: 7.267 cycles
cpu2_ITLB TOTAL        ACCESS:          0 HIT:          0 MISS:          0
cpu2_ITLB LOAD         ACCESS:          0 HIT:          0 MISS:          0
cpu2_ITLB RFO          ACCESS:          0 HIT:          0 MISS:          0
cpu2_ITLB PREFETCH     ACCESS:          0 HIT:          0 MISS:          0
cpu2_ITLB WRITE        ACCESS:          0 HIT:          0 MISS:          0
cpu2_ITLB TRANSLATION  ACCESS:          0 HIT:          0 MISS:          0
cpu2_ITLB PREFETCH REQUESTED:          0 ISSUED:          0 USEFUL:          0 USELESS:          0
cpu2_ITLB AVERAGE MISS LATENCY: 5.532 cycles
cpu2_ITLB TOTAL        ACCESS:          0 HIT:          0 MISS:          0
cpu2_ITLB LOAD         ACCESS:          0 HIT:          0 MISS:          0
cpu2_ITLB RFO          ACCESS:          0 HIT:          0 MISS:          0
cpu2_ITLB PREFETCH     ACCESS:          0 HIT:          0 MISS:          0
cpu2_ITLB WRITE        ACCESS:          0 HIT:          0 MISS:          0
cpu2_ITLB TRANSLATION  ACCESS:          0 HIT:          0 MISS:          0
cpu2_ITLB PREFETCH REQUESTED:          0 ISSUED:          0 USEFUL:          0 USELESS:          0
cpu2_ITLB AVERAGE MISS LATENCY: 5.532 cycles
cpu2_ITLB TOTAL        ACCESS:   19271770 HIT:   18835974 MISS:     435796
cpu2_ITLB LOAD         ACCESS:   19271770 HIT:   18835974 MISS:     435796
cpu2_ITLB RFO          ACCESS:          0 HIT:          0 MISS:          0
cpu2_ITLB PREFETCH     ACCESS:          0 HIT:          0 MISS:          0
cpu2_ITLB WRITE        ACCESS:          0 HIT:          0 MISS:          0
cpu2_ITLB TRANSLATION  ACCESS:          0 HIT:          0 MISS:          0
[...]
cpu2_L1I WRITE        ACCESS:          0 HIT:          0 MISS:          0
cpu2_L1I TRANSLATION  ACCESS:          0 HIT:          0 MISS:          0
cpu2_L1I PREFETCH REQUESTED:          0 ISSUED:          0 USEFUL:          0 USELESS:          0
cpu2_L1I AVERAGE MISS LATENCY: 10.81 cycles
cpu2_L1I TOTAL        ACCESS:          0 HIT:          0 MISS:          0
cpu2_L1I LOAD         ACCESS:          0 HIT:          0 MISS:          0
cpu2_L1I RFO          ACCESS:          0 HIT:          0 MISS:          0
cpu2_L1I PREFETCH     ACCESS:          0 HIT:          0 MISS:          0
cpu2_L1I WRITE        ACCESS:          0 HIT:          0 MISS:          0
cpu2_L1I TRANSLATION  ACCESS:          0 HIT:          0 MISS:          0
cpu2_L1I PREFETCH REQUESTED:          0 ISSUED:          0 USEFUL:          0 USELESS:          0
cpu2_L1I AVERAGE MISS LATENCY: 10.81 cycles
cpu2_L2C TOTAL        ACCESS:          0 HIT:          0 MISS:          0
cpu2_L2C LOAD         ACCESS:          0 HIT:          0 MISS:          0
cpu2_L2C RFO          ACCESS:          0 HIT:          0 MISS:          0
cpu2_L2C PREFETCH     ACCESS:          0 HIT:          0 MISS:          0
cpu2_L2C WRITE        ACCESS:          0 HIT:          0 MISS:          0
cpu2_L2C TRANSLATION  ACCESS:          0 HIT:          0 MISS:          0
cpu2_L2C PREFETCH REQUESTED:   33550322 ISSUED:   33013683 USEFUL:      33705 USELESS:      11513
cpu2_L2C AVERAGE MISS LATENCY: 99.28 cycles
cpu2_L2C TOTAL        ACCESS:          0 HIT:          0 MISS:          0
cpu2_L2C LOAD         ACCESS:          0 HIT:          0 MISS:          0
cpu2_L2C RFO          ACCESS:          0 HIT:          0 MISS:          0
cpu2_L2C PREFETCH     ACCESS:          0 HIT:          0 MISS:          0
cpu2_L2C WRITE        ACCESS:          0 HIT:          0 MISS:          0
cpu2_L2C TRANSLATION  ACCESS:          0 HIT:          0 MISS:          0
cpu2_L2C PREFETCH REQUESTED:   33550322 ISSUED:   33013683 USEFUL:      33705 USELESS:      11513
cpu2_L2C AVERAGE MISS LATENCY: 99.28 cycles
cpu2_L2C TOTAL        ACCESS:   16778184 HIT:   13127231 MISS:    3650953
cpu2_L2C LOAD         ACCESS:    7780777 HIT:    7358740 MISS:     422037
cpu2_L2C RFO          ACCESS:     204326 HIT:      40816 MISS:     163510
cpu2_L2C PREFETCH     ACCESS:    8199487 HIT:    5168920 MISS:    3030567
cpu2_L2C WRITE        ACCESS:     336596 HIT:     336562 MISS:         34
cpu2_L2C TRANSLATION  ACCESS:     256998 HIT:     222193 MISS:      34805
cpu2_L2C PREFETCH REQUESTED:   33550322 ISSUED:   33013683 USEFUL:      33705 USELESS:      11513
cpu2_L2C AVERAGE MISS LATENCY: 99.28 cycles
cpu2_L2C TOTAL        ACCESS:          0 HIT:          0 MISS:          0
cpu2_L2C LOAD         ACCESS:          0 HIT:          0 MISS:          0
cpu2_L2C RFO          ACCESS:          0 HIT:          0 MISS:          0
cpu2_L2C PREFETCH     ACCESS:          0 HIT:          0 MISS:          0
cpu2_L2C WRITE        ACCESS:          0 HIT:          0 MISS:          0
cpu2_L2C TRANSLATION  ACCESS:          0 HIT:          0 MISS:          0
cpu2_L2C PREFETCH REQUESTED:   33550322 ISSUED:   33013683 USEFUL:      33705 USELESS:      11513
cpu2_L2C AVERAGE MISS LATENCY: 99.28 cycles
cpu2_STLB TOTAL        ACCESS:          0 HIT:          0 MISS:          0
cpu2_STLB LOAD         ACCESS:          0 HIT:          0 MISS:          0
cpu2_STLB RFO          ACCESS:          0 HIT:          0 MISS:          0
cpu2_STLB PREFETCH     ACCESS:          0 HIT:          0 MISS:          0
cpu2_STLB WRITE        ACCESS:          0 HIT:          0 MISS:          0
cpu2_STLB TRANSLATION  ACCESS:          0 HIT:          0 MISS:          0
cpu2_STLB PREFETCH REQUESTED:          0 ISSUED:          0 USEFUL:          0 USELESS:          0
cpu2_STLB AVERAGE MISS LATENCY: 65.53 cycles
cpu2_STLB TOTAL        ACCESS:          0 HIT:          0 MISS:          0
cpu2_STLB LOAD         ACCESS:          0 HIT:          0 MISS:          0
cpu2_STLB RFO          ACCESS:          0 HIT:          0 MISS:          0
cpu2_STLB PREFETCH     ACCESS:          0 HIT:          0 MISS:          0
cpu2_STLB WRITE        ACCESS:          0 HIT:          0 MISS:          0
cpu2_STLB TRANSLATION  ACCESS:          0 HIT:          0 MISS:          0
cpu2_STLB PREFETCH REQUESTED:          0 ISSUED:          0 USEFUL:          0 USELESS:          0
cpu2_STLB AVERAGE MISS LATENCY: 65.53 cycles
cpu2_STLB TOTAL        ACCESS:    4508903 HIT:    4240029 MISS:     268874
cpu2_STLB LOAD         ACCESS:    4508903 HIT:    4240029 MISS:     268874
cpu2_STLB RFO          ACCESS:          0 HIT:          0 MISS:          0
cpu2_STLB PREFETCH     ACCESS:          0 HIT:          0 MISS:          0
cpu2_STLB WRITE        ACCESS:          0 HIT:          0 MISS:          0
cpu2_STLB TRANSLATION  ACCESS:          0 HIT:          0 MISS:          0
cpu2_STLB PREFETCH REQUESTED:          0 ISSUED:          0 USEFUL:          0 USELESS:          0
cpu2_STLB AVERAGE MISS LATENCY: 65.53 cycles
cpu2_STLB TOTAL        ACCESS:          0 HIT:          0 MISS:          0
cpu2_STLB LOAD         ACCESS:          0 HIT:          0 MISS:          0
cpu2_STLB RFO          ACCESS:          0 HIT:          0 MISS:          0
cpu2_STLB PREFETCH     ACCESS:          0 HIT:          0 MISS:          0
cpu2_STLB WRITE        ACCESS:          0 HIT:          0 MISS:          0
cpu2_STLB TRANSLATION  ACCESS:          0 HIT:          0 MISS:          0
cpu2_STLB PREFETCH REQUESTED:          0 ISSUED:          0 USEFUL:          0 USELESS:          0
cpu2_STLB AVERAGE MISS LATENCY: 65.53 cycles
cpu3_DTLB TOTAL        ACCESS:          0 HIT:          0 MISS:          0
cpu3_DTLB LOAD         ACCESS:          0 HIT:          0 MISS:          0
cpu3_DTLB RFO          ACCESS:          0 HIT:          0 MISS:          0
cpu3_DTLB PREFETCH     ACCESS:          0 HIT:          0 MISS:          0
cpu3_DTLB WRITE        ACCESS:          0 HIT:          0 MISS:          0
cpu3_DTLB TRANSLATION  ACCESS:          0 HIT:          0 MISS:          0
cpu3_DTLB PREFETCH REQUESTED:          0 ISSUED:          0 USEFUL:          0 USELESS:          0
cpu3_DTLB AVERAGE MISS LATENCY: 9.002 cycles
cpu3_DTLB TOTAL        ACCESS:          0 HIT:          0 MISS:          0
cpu3_DTLB LOAD         ACCESS:          0 HIT:          0 MISS:          0
cpu3_DTLB RFO          ACCESS:          0 HIT:          0 MISS:          0
cpu3_DTLB PREFETCH     ACCESS:          0 HIT:          0 MISS:          0
cpu3_DTLB WRITE        ACCESS:          0 HIT:          0 MISS:          0
cpu3_DTLB TRANSLATION  ACCESS:          0 HIT:          0 MISS:          0
cpu3_DTLB PREFETCH REQUESTED:          0 ISSUED:          0 USEFUL:          0 USELESS:          0
cpu3_DTLB AVERAGE MISS LATENCY: 9.002 cycles
cpu3_DTLB TOTAL        ACCESS:          0 HIT:          0 MISS:          0
cpu3_DTLB LOAD         ACCESS:          0 HIT:          0 MISS:          0
cpu3_DTLB RFO          ACCESS:          0 HIT:          0 MISS:          0
cpu3_DTLB PREFETCH     ACCESS:          0 HIT:          0 MISS:          0
cpu3_DTLB WRITE        ACCESS:          0 HIT:          0 MISS:          0
cpu3_DTLB TRANSLATION  ACCESS:          0 HIT:          0 MISS:          0
cpu3_DTLB PREFETCH REQUESTED:          0 ISSUED:          0 USEFUL:          0 USELESS:          0
cpu3_DTLB AVERAGE MISS LATENCY: 9.002 cycles
cpu3_DTLB TOTAL        ACCESS:   17887615 HIT:   17877148 MISS:      10467
cpu3_DTLB LOAD         ACCESS:   17887615 HIT:   17877148 MISS:      10467
cpu3_DTLB RFO          ACCESS:          0 HIT:          0 MISS:          0
cpu3_DTLB PREFETCH     ACCESS:          0 HIT:          0 MISS:          0
cpu3_DTLB WRITE        ACCESS:          0 HIT:          0 MISS:          0
cpu3_DTLB TRANSLATION  ACCESS:          0 HIT:          0 MISS:          0
cpu3_DTLB PREFETCH REQUESTED:          0 ISSUED:          0 USEFUL:          0 USELESS:          0
cpu3_DTLB AVERAGE MISS LATENCY: 9.002 cycles
cpu3_ITLB TOTAL        ACCESS:          0 HIT:          0 MISS:          0
cpu3_ITLB LOAD         ACCESS:          0 HIT:          0 MISS:          0
cpu3_ITLB RFO          ACCESS:          0 HIT:          0 MISS:          0
cpu3_ITLB PREFETCH     ACCESS:          0 HIT:          0 MISS:          0
cpu3_ITLB WRITE        ACCESS:          0 HIT:          0 MISS:          0
cpu3_ITLB TRANSLATION  ACCESS:          0 HIT:          0 MISS:          0
cpu3_ITLB PREFETCH REQUESTED:          0 ISSUED:          0 USEFUL:          0 USELESS:          0
cpu3_ITLB AVERAGE MISS LATENCY: 302.3 cycles
cpu3_ITLB TOTAL        ACCESS:          0 HIT:          0 MISS:          0
cpu3_ITLB LOAD         ACCESS:          0 HIT:          0 MISS:          0
cpu3_ITLB RFO          ACCESS:          0 HIT:          0 MISS:          0
cpu3_ITLB PREFETCH     ACCESS:          0 HIT:          0 MISS:          0
cpu3_ITLB WRITE        ACCESS:          0 HIT:          0 MISS:          0
cpu3_ITLB TRANSLATION  ACCESS:          0 HIT:          0 MISS:          0
cpu3_ITLB PREFETCH REQUESTED:          0 ISSUED:          0 USEFUL:          0 USELESS:          0
cpu3_ITLB AVERAGE MISS LATENCY: 302.3 cycles
cpu3_ITLB TOTAL        ACCESS:          0 HIT:          0 MISS:          0
cpu3_ITLB LOAD         ACCESS:          0 HIT:          0 MISS:          0
cpu3_ITLB RFO          ACCESS:          0 HIT:          0 MISS:          0
cpu3_ITLB PREFETCH     ACCESS:          0 HIT:          0 MISS:          0
cpu3_ITLB WRITE        ACCESS:          0 HIT:          0 MISS:          0
cpu3_ITLB TRANSLATION  ACCESS:          0 HIT:          0 MISS:          0
cpu3_ITLB PREFETCH REQUESTED:          0 ISSUED:          0 USEFUL:          0 USELESS:          0
cpu3_ITLB AVERAGE MISS LATENCY: 302.3 cycles
cpu3_ITLB TOTAL        ACCESS:     497330 HIT:     497330 MISS:          0
cpu3_ITLB LOAD         ACCESS:     497330 HIT:     497330 MISS:          0
cpu3_ITLB RFO          ACCESS:          0 HIT:          0 MISS:          0
cpu3_ITLB PREFETCH     ACCESS:          0 HIT:          0 MISS:          0
cpu3_ITLB WRITE        ACCESS:          0 HIT:          0 MISS:          0
cpu3_ITLB TRANSLATION  ACCESS:          0 HIT:          0 MISS:          0
cpu3_ITLB PREFETCH REQUESTED:          0 ISSUED:          0 USEFUL:          0 USELESS:          0
cpu3_ITLB AVERAGE MISS LATENCY: 302.3 cycles
cpu3_L1D TOTAL        ACCESS:          0 HIT:          0 MISS:          0
cpu3_L1D LOAD         ACCESS:          0 HIT:          0 MISS:          0
cpu3_L1D RFO          ACCESS:          0 HIT:          0 MISS:          0
cpu3_L1D PREFETCH     ACCESS:          0 HIT:          0 MISS:          0
cpu3_L1D WRITE        ACCESS:          0 HIT:          0 MISS:          0
cpu3_L1D TRANSLATION  ACCESS:          0 HIT:          0 MISS:          0
cpu3_L1D PREFETCH REQUESTED:          0 ISSUED:          0 USEFUL:          0 USELESS:          0
cpu3_L1D AVERAGE MISS LATENCY: 153.3 cycles
cpu3_L1D TOTAL        ACCESS:          0 HIT:          0 MISS:          0
cpu3_L1D LOAD         ACCESS:          0 HIT:          0 MISS:          0
cpu3_L1D RFO          ACCESS:          0 HIT:          0 MISS:          0
cpu3_L1D PREFETCH     ACCESS:          0 HIT:          0 MISS:          0
cpu3_L1D WRITE        ACCESS:          0 HIT:          0 MISS:          0
cpu3_L1D TRANSLATION  ACCESS:          0 HIT:          0 MISS:          0
cpu3_L1D PREFETCH REQUESTED:          0 ISSUED:          0 USEFUL:          0 USELESS:          0
cpu3_L1D AVERAGE MISS LATENCY: 153.3 cycles
cpu3_L1D TOTAL        ACCESS:          0 HIT:          0 MISS:          0
cpu3_L1D LOAD         ACCESS:          0 HIT:          0 MISS:          0
cpu3_L1D RFO          ACCESS:          0 HIT:          0 MISS:          0
cpu3_L1D PREFETCH     ACCESS:          0 HIT:          0 MISS:          0
cpu3_L1D WRITE        ACCESS:          0 HIT:          0 MISS:          0
cpu3_L1D TRANSLATION  ACCESS:          0 HIT:          0 MISS:          0
cpu3_L1D PREFETCH REQUESTED:          0 ISSUED:          0 USEFUL:          0 USELESS:          0
cpu3_L1D AVERAGE MISS LATENCY: 153.3 cycles
cpu3_L1D TOTAL        ACCESS:   21948793 HIT:   21939207 MISS:       9586
cpu3_L1D LOAD         ACCESS:   16386247 HIT:   16383568 MISS:       2679
cpu3_L1D RFO          ACCESS:          0 HIT:          0 MISS:          0
cpu3_L1D PREFETCH     ACCESS:          0 HIT:          0 MISS:          0
cpu3_L1D WRITE        ACCESS:    5562375 HIT:    5555621 MISS:       6754
cpu3_L1D TRANSLATION  ACCESS:        171 HIT:         18 MISS:        153
cpu3_L1D PREFETCH REQUESTED:          0 ISSUED:          0 USEFUL:          0 USELESS:          0
cpu3_L1D AVERAGE MISS LATENCY: 153.3 cycles
cpu3_L1I TOTAL        ACCESS:          0 HIT:          0 MISS:          0
cpu3_L1I LOAD         ACCESS:          0 HIT:          0 MISS:          0
cpu3_L1I RFO          ACCESS:          0 HIT:          0 MISS:          0
cpu3_L1I PREFETCH     ACCESS:          0 HIT:          0 MISS:          0
cpu3_L1I WRITE        ACCESS:          0 HIT:          0 MISS:          0
cpu3_L1I TRANSLATION  ACCESS:          0 HIT:          0 MISS:          0
cpu3_L1I PREFETCH REQUESTED:          0 ISSUED:          0 USEFUL:          0 USELESS:          0
cpu3_L1I AVERAGE MISS LATENCY: 12.09 cycles
cpu3_L1I TOTAL        ACCESS:          0 HIT:          0 MISS:          0
cpu3_L1I LOAD         ACCESS:          0 HIT:          0 MISS:          0
cpu3_L1I RFO          ACCESS:          0 HIT:          0 MISS:          0
cpu3_L1I PREFETCH     ACCESS:          0 HIT:          0 MISS:          0
cpu3_L1I WRITE        ACCESS:          0 HIT:          0 MISS:          0
cpu3_L1I TRANSLATION  ACCESS:          0 HIT:          0 MISS:          0
cpu3_L1I PREFETCH REQUESTED:          0 ISSUED:          0 USEFUL:          0 USELESS:          0
cpu3_L1I AVERAGE MISS LATENCY: 12.09 cycles
cpu3_L1I TOTAL        ACCESS:          0 HIT:          0 MISS:          0
cpu3_L1I LOAD         ACCESS:          0 HIT:          0 MISS:          0
cpu3_L1I RFO          ACCESS:          0 HIT:          0 MISS:          0
cpu3_L1I PREFETCH     ACCESS:          0 HIT:          0 MISS:          0
cpu3_L1I WRITE        ACCESS:          0 HIT:          0 MISS:          0
cpu3_L1I TRANSLATION  ACCESS:          0 HIT:          0 MISS:          0
cpu3_L1I PREFETCH REQUESTED:          0 ISSUED:          0 USEFUL:          0 USELESS:          0
cpu3_L1I AVERAGE MISS LATENCY: 12.09 cycles
cpu3_L1I TOTAL        ACCESS:     550943 HIT:     549491 MISS:       1452
cpu3_L1I LOAD         ACCESS:     550943 HIT:     549491 MISS:       1452
cpu3_L1I RFO          ACCESS:          0 HIT:          0 MISS:          0
cpu3_L1I PREFETCH     ACCESS:          0 HIT:          0 MISS:          0
cpu3_L1I WRITE        ACCESS:          0 HIT:          0 MISS:          0
cpu3_L1I TRANSLATION  ACCESS:          0 HIT:          0 MISS:          0
cpu3_L1I PREFETCH REQUESTED:          0 ISSUED:          0 USEFUL:          0 USELESS:          0
cpu3_L1I AVERAGE MISS LATENCY: 12.09 cycles
cpu3_L2C TOTAL        ACCESS:          0 HIT:          0 MISS:          0
cpu3_L2C LOAD         ACCESS:          0 HIT:          0 MISS:          0
cpu3_L2C RFO          ACCESS:          0 HIT:          0 MISS:          0
cpu3_L2C PREFETCH     ACCESS:          0 HIT:          0 MISS:          0
cpu3_L2C WRITE        ACCESS:          0 HIT:          0 MISS:          0
cpu3_L2C TRANSLATION  ACCESS:          0 HIT:          0 MISS:          0
cpu3_L2C PREFETCH REQUESTED:   15298773 ISSUED:   13899678 USEFUL:     830236 USELESS:       9777
cpu3_L2C AVERAGE MISS LATENCY: 208.3 cycles
cpu3_L2C TOTAL        ACCESS:          0 HIT:          0 MISS:          0
cpu3_L2C LOAD         ACCESS:          0 HIT:          0 MISS:          0
cpu3_L2C RFO          ACCESS:          0 HIT:          0 MISS:          0
cpu3_L2C PREFETCH     ACCESS:          0 HIT:          0 MISS:          0
cpu3_L2C WRITE        ACCESS:          0 HIT:          0 MISS:          0
cpu3_L2C TRANSLATION  ACCESS:          0 HIT:          0 MISS:          0
cpu3_L2C PREFETCH REQUESTED:   15298773 ISSUED:   13899678 USEFUL:     830236 USELESS:       9777
cpu3_L2C AVERAGE MISS LATENCY: 208.3 cycles
cpu3_L2C TOTAL        ACCESS:          0 HIT:          0 MISS:          0
cpu3_L2C LOAD         ACCESS:          0 HIT:          0 MISS:          0
cpu3_L2C RFO          ACCESS:          0 HIT:          0 MISS:          0
cpu3_L2C PREFETCH     ACCESS:          0 HIT:          0 MISS:          0
cpu3_L2C WRITE        ACCESS:          0 HIT:          0 MISS:          0
cpu3_L2C TRANSLATION  ACCESS:          0 HIT:          0 MISS:          0
cpu3_L2C PREFETCH REQUESTED:   15298773 ISSUED:   13899678 USEFUL:     830236 USELESS:       9777
cpu3_L2C AVERAGE MISS LATENCY: 208.3 cycles
cpu3_L2C TOTAL        ACCESS:      11582 HIT:       5596 MISS:       5986
cpu3_L2C LOAD         ACCESS:       2780 HIT:       1248 MISS:       1532
cpu3_L2C RFO          ACCESS:       2558 HIT:         74 MISS:       2484
cpu3_L2C PREFETCH     ACCESS:       3037 HIT:       1162 MISS:       1875
cpu3_L2C WRITE        ACCESS:       3054 HIT:       3054 MISS:          0
cpu3_L2C TRANSLATION  ACCESS:        153 HIT:         58 MISS:         95
cpu3_L2C PREFETCH REQUESTED:   15298773 ISSUED:   13899678 USEFUL:     830236 USELESS:       9777
cpu3_L2C AVERAGE MISS LATENCY: 208.3 cycles
cpu3_STLB TOTAL        ACCESS:          0 HIT:          0 MISS:          0
cpu3_STLB LOAD         ACCESS:          0 HIT:          0 MISS:          0
cpu3_STLB RFO          ACCESS:          0 HIT:          0 MISS:          0
cpu3_STLB PREFETCH     ACCESS:          0 HIT:          0 MISS:          0
cpu3_STLB WRITE        ACCESS:          0 HIT:          0 MISS:          0
cpu3_STLB TRANSLATION  ACCESS:          0 HIT:          0 MISS:          0
cpu3_STLB PREFETCH REQUESTED:          0 ISSUED:          0 USEFUL:          0 USELESS:          0
cpu3_STLB AVERAGE MISS LATENCY: 325.5 cycles
cpu3_STLB TOTAL        ACCESS:          0 HIT:          0 MISS:          0
cpu3_STLB LOAD         ACCESS:          0 HIT:          0 MISS:          0
cpu3_STLB RFO          ACCESS:          0 HIT:          0 MISS:          0
cpu3_STLB PREFETCH     ACCESS:          0 HIT:          0 MISS:          0
cpu3_STLB WRITE        ACCESS:          0 HIT:          0 MISS:          0
cpu3_STLB TRANSLATION  ACCESS:          0 HIT:          0 MISS:          0
cpu3_STLB PREFETCH REQUESTED:          0 ISSUED:          0 USEFUL:          0 USELESS:          0
cpu3_STLB AVERAGE MISS LATENCY: 325.5 cycles
cpu3_STLB TOTAL        ACCESS:          0 HIT:          0 MISS:          0
cpu3_STLB LOAD         ACCESS:          0 HIT:          0 MISS:          0
cpu3_STLB RFO          ACCESS:          0 HIT:          0 MISS:          0
cpu3_STLB PREFETCH     ACCESS:          0 HIT:          0 MISS:          0
cpu3_STLB WRITE        ACCESS:          0 HIT:          0 MISS:          0
cpu3_STLB TRANSLATION  ACCESS:          0 HIT:          0 MISS:          0
cpu3_STLB PREFETCH REQUESTED:          0 ISSUED:          0 USEFUL:          0 USELESS:          0
cpu3_STLB AVERAGE MISS LATENCY: 325.5 cycles
cpu3_STLB TOTAL        ACCESS:       9228 HIT:       9058 MISS:        170
cpu3_STLB LOAD         ACCESS:       9228 HIT:       9058 MISS:        170
cpu3_STLB RFO          ACCESS:          0 HIT:          0 MISS:          0
cpu3_STLB PREFETCH     ACCESS:          0 HIT:          0 MISS:          0
cpu3_STLB WRITE        ACCESS:          0 HIT:          0 MISS:          0
cpu3_STLB TRANSLATION  ACCESS:          0 HIT:          0 MISS:          0
cpu3_STLB PREFETCH REQUESTED:          0 ISSUED:          0 USEFUL:          0 USELESS:          0
cpu3_STLB AVERAGE MISS LATENCY: 325.5 cycles

DRAM Statistics

Channel 0 RQ ROW_BUFFER_HIT:     956404
  ROW_BUFFER_MISS:    4906185
 AVG DBUS CONGESTED CYCLE: 3.978
WQ ROW_BUFFER_HIT: Channel 0 
  ROW_BUFFER_MISS:      47752
  FULL:    2428648
