WARNING: physical memory size is smaller than virtual memory size.
WARNING: option --warmup_instructions is deprecated. Use --warmup-instructions instead.
WARNING: option --simulation_instructions is deprecated. Use --simulation-instructions instead.

*** ChampSim Multicore Out-of-Order Simulator ***
Warmup Instructions: 50000000
Simulation Instructions: 150000000
Number of CPUs: 4
Page size: 4096

Initialize SIGNATURE TABLE
ST_SET: 1
ST_WAY: 256
ST_TAG_BIT: 16
ST_TAG_MASK: ffff

Initialize PATTERN TABLE
PT_SET: 512
PT_WAY: 4
SIG_DELTA_BIT: 7
C_SIG_BIT: 4
C_DELTA_BIT: 4

Initialize PREFETCH FILTER
FILTER_SET: 1024
Initialize SIGNATURE TABLE
ST_SET: 1
ST_WAY: 256
ST_TAG_BIT: 16
ST_TAG_MASK: ffff

Initialize PATTERN TABLE
PT_SET: 512
PT_WAY: 4
SIG_DELTA_BIT: 7
C_SIG_BIT: 4
C_DELTA_BIT: 4

Initialize PREFETCH FILTER
FILTER_SET: 1024
Initialize SIGNATURE TABLE
ST_SET: 1
ST_WAY: 256
ST_TAG_BIT: 16
ST_TAG_MASK: ffff

Initialize PATTERN TABLE
PT_SET: 512
PT_WAY: 4
SIG_DELTA_BIT: 7
C_SIG_BIT: 4
C_DELTA_BIT: 4

Initialize PREFETCH FILTER
FILTER_SET: 1024
Initialize SIGNATURE TABLE
ST_SET: 1
ST_WAY: 256
ST_TAG_BIT: 16
ST_TAG_MASK: ffff

Initialize PATTERN TABLE
PT_SET: 512
PT_WAY: 4
SIG_DELTA_BIT: 7
C_SIG_BIT: 4
C_DELTA_BIT: 4

Initialize PREFETCH FILTER
FILTER_SET: 1024
Off-chip DRAM Size: 4 GiB Channels: 1 Width: 64-bit Data Race: 3200 MT/s
Heartbeat CPU 2 instructions: 10000001 cycles: 2507026 heartbeat IPC: 3.989 cumulative IPC: 3.989 (Simulation time: 00 hr 02 min 57 sec)
Heartbeat CPU 3 instructions: 10000000 cycles: 3099776 heartbeat IPC: 3.226 cumulative IPC: 3.226 (Simulation time: 00 hr 03 min 37 sec)
Heartbeat CPU 1 instructions: 10000003 cycles: 3681284 heartbeat IPC: 2.716 cumulative IPC: 2.716 (Simulation time: 00 hr 04 min 19 sec)
Heartbeat CPU 0 instructions: 10000004 cycles: 4174778 heartbeat IPC: 2.395 cumulative IPC: 2.395 (Simulation time: 00 hr 04 min 58 sec)
Heartbeat CPU 2 instructions: 20000003 cycles: 5016665 heartbeat IPC: 3.985 cumulative IPC: 3.987 (Simulation time: 00 hr 05 min 58 sec)
Heartbeat CPU 3 instructions: 20000003 cycles: 6206234 heartbeat IPC: 3.219 cumulative IPC: 3.223 (Simulation time: 00 hr 07 min 24 sec)
Heartbeat CPU 1 instructions: 20000000 cycles: 7364116 heartbeat IPC: 2.715 cumulative IPC: 2.716 (Simulation time: 00 hr 08 min 53 sec)
Heartbeat CPU 2 instructions: 30000003 cycles: 7521038 heartbeat IPC: 3.993 cumulative IPC: 3.989 (Simulation time: 00 hr 09 min 03 sec)
Heartbeat CPU 0 instructions: 20000003 cycles: 8347627 heartbeat IPC: 2.396 cumulative IPC: 2.396 (Simulation time: 00 hr 10 min 03 sec)
Heartbeat CPU 3 instructions: 30000004 cycles: 9304903 heartbeat IPC: 3.227 cumulative IPC: 3.224 (Simulation time: 00 hr 11 min 19 sec)
Heartbeat CPU 2 instructions: 40000003 cycles: 10031597 heartbeat IPC: 3.983 cumulative IPC: 3.987 (Simulation time: 00 hr 12 min 12 sec)
Heartbeat CPU 1 instructions: 30000004 cycles: 11045369 heartbeat IPC: 2.716 cumulative IPC: 2.716 (Simulation time: 00 hr 13 min 25 sec)
Heartbeat CPU 3 instructions: 40000004 cycles: 12402054 heartbeat IPC: 3.229 cumulative IPC: 3.225 (Simulation time: 00 hr 15 min 05 sec)
Heartbeat CPU 0 instructions: 30000001 cycles: 12521913 heartbeat IPC: 2.396 cumulative IPC: 2.396 (Simulation time: 00 hr 15 min 15 sec)
Heartbeat CPU 2 instructions: 50000003 cycles: 12555268 heartbeat IPC: 3.962 cumulative IPC: 3.982 (Simulation time: 00 hr 15 min 17 sec)
Warmup finished CPU 2 instructions: 50000003 cycles: 12555269 cumulative IPC: 3.982 (Simulation time: 00 hr 15 min 17 sec)
Heartbeat CPU 1 instructions: 40000004 cycles: 14727860 heartbeat IPC: 2.716 cumulative IPC: 2.716 (Simulation time: 00 hr 17 min 54 sec)
Heartbeat CPU 2 instructions: 60000003 cycles: 15063149 heartbeat IPC: 3.987 cumulative IPC: 3.983 (Simulation time: 00 hr 18 min 19 sec)
Heartbeat CPU 3 instructions: 50000003 cycles: 15488763 heartbeat IPC: 3.24 cumulative IPC: 3.228 (Simulation time: 00 hr 18 min 49 sec)
Warmup finished CPU 3 instructions: 50000003 cycles: 15488764 cumulative IPC: 3.228 (Simulation time: 00 hr 18 min 49 sec)
Heartbeat CPU 0 instructions: 40000000 cycles: 16709585 heartbeat IPC: 2.388 cumulative IPC: 2.394 (Simulation time: 00 hr 20 min 16 sec)
Heartbeat CPU 2 instructions: 70000003 cycles: 17570118 heartbeat IPC: 3.989 cumulative IPC: 3.984 (Simulation time: 00 hr 21 min 14 sec)
Heartbeat CPU 1 instructions: 50000002 cycles: 18409212 heartbeat IPC: 2.716 cumulative IPC: 2.716 (Simulation time: 00 hr 22 min 10 sec)
Warmup finished CPU 1 instructions: 50000002 cycles: 18409213 cumulative IPC: 2.716 (Simulation time: 00 hr 22 min 10 sec)
Heartbeat CPU 3 instructions: 60000002 cycles: 18587663 heartbeat IPC: 3.227 cumulative IPC: 3.228 (Simulation time: 00 hr 22 min 21 sec)
Heartbeat CPU 2 instructions: 80000002 cycles: 20077994 heartbeat IPC: 3.987 cumulative IPC: 3.984 (Simulation time: 00 hr 24 min 00 sec)
Heartbeat CPU 0 instructions: 50000003 cycles: 20874809 heartbeat IPC: 2.401 cumulative IPC: 2.395 (Simulation time: 00 hr 24 min 54 sec)
Warmup finished CPU 0 instructions: 50000003 cycles: 20874810 cumulative IPC: 2.395 (Simulation time: 00 hr 24 min 54 sec)
Warmup complete CPU 0 instructions: 50000003 cycles: 20874810 cumulative IPC: 2.395 (Simulation time: 00 hr 24 min 54 sec)
Warmup complete CPU 1 instructions: 56453907 cycles: 20874810 cumulative IPC: 2.704 (Simulation time: 00 hr 24 min 54 sec)
Warmup complete CPU 2 instructions: 83187262 cycles: 20874810 cumulative IPC: 3.985 (Simulation time: 00 hr 24 min 54 sec)
Warmup complete CPU 3 instructions: 67392687 cycles: 20874810 cumulative IPC: 3.228 (Simulation time: 00 hr 24 min 54 sec)
Heartbeat CPU 2 instructions: 90000001 cycles: 23531076 heartbeat IPC: 2.896 cumulative IPC: 2.565 (Simulation time: 00 hr 26 min 29 sec)
Heartbeat CPU 1 instructions: 60000004 cycles: 24901085 heartbeat IPC: 1.54 cumulative IPC: 0.8807 (Simulation time: 00 hr 27 min 17 sec)
Heartbeat CPU 2 instructions: 100000002 cycles: 27134451 heartbeat IPC: 2.775 cumulative IPC: 2.686 (Simulation time: 00 hr 28 min 34 sec)
Heartbeat CPU 2 instructions: 110000001 cycles: 31103602 heartbeat IPC: 2.519 cumulative IPC: 2.621 (Simulation time: 00 hr 30 min 50 sec)
Heartbeat CPU 3 instructions: 70000000 cycles: 33973894 heartbeat IPC: 0.6499 cumulative IPC: 0.199 (Simulation time: 00 hr 32 min 28 sec)
Heartbeat CPU 2 instructions: 120000002 cycles: 34692179 heartbeat IPC: 2.787 cumulative IPC: 2.664 (Simulation time: 00 hr 32 min 51 sec)
Heartbeat CPU 1 instructions: 70000000 cycles: 35927536 heartbeat IPC: 0.9069 cumulative IPC: 0.8999 (Simulation time: 00 hr 33 min 32 sec)
Heartbeat CPU 2 instructions: 130000003 cycles: 38240917 heartbeat IPC: 2.818 cumulative IPC: 2.696 (Simulation time: 00 hr 34 min 49 sec)
Heartbeat CPU 2 instructions: 140000003 cycles: 41925116 heartbeat IPC: 2.714 cumulative IPC: 2.699 (Simulation time: 00 hr 37 min 00 sec)
Heartbeat CPU 2 instructions: 150000002 cycles: 45735304 heartbeat IPC: 2.625 cumulative IPC: 2.688 (Simulation time: 00 hr 39 min 09 sec)
Heartbeat CPU 1 instructions: 80000003 cycles: 46973643 heartbeat IPC: 0.9053 cumulative IPC: 0.9022 (Simulation time: 00 hr 39 min 54 sec)
Heartbeat CPU 2 instructions: 160000001 cycles: 49185760 heartbeat IPC: 2.898 cumulative IPC: 2.713 (Simulation time: 00 hr 41 min 16 sec)
Heartbeat CPU 2 instructions: 170000003 cycles: 52761649 heartbeat IPC: 2.797 cumulative IPC: 2.723 (Simulation time: 00 hr 43 min 31 sec)
Heartbeat CPU 2 instructions: 180000003 cycles: 56760811 heartbeat IPC: 2.501 cumulative IPC: 2.698 (Simulation time: 00 hr 45 min 42 sec)
Heartbeat CPU 1 instructions: 90000002 cycles: 58105449 heartbeat IPC: 0.8983 cumulative IPC: 0.901 (Simulation time: 00 hr 46 min 29 sec)
Heartbeat CPU 2 instructions: 190000001 cycles: 60452191 heartbeat IPC: 2.709 cumulative IPC: 2.699 (Simulation time: 00 hr 47 min 47 sec)
Heartbeat CPU 2 instructions: 200000004 cycles: 64172616 heartbeat IPC: 2.688 cumulative IPC: 2.698 (Simulation time: 00 hr 49 min 55 sec)
Heartbeat CPU 2 instructions: 210000004 cycles: 67803861 heartbeat IPC: 2.754 cumulative IPC: 2.702 (Simulation time: 00 hr 51 min 56 sec)
Heartbeat CPU 1 instructions: 100000000 cycles: 68999273 heartbeat IPC: 0.918 cumulative IPC: 0.9049 (Simulation time: 00 hr 52 min 40 sec)
Heartbeat CPU 0 instructions: 60000003 cycles: 70605187 heartbeat IPC: 0.2011 cumulative IPC: 0.2011 (Simulation time: 00 hr 53 min 40 sec)
Heartbeat CPU 2 instructions: 220000001 cycles: 71619043 heartbeat IPC: 2.621 cumulative IPC: 2.696 (Simulation time: 00 hr 54 min 14 sec)
Heartbeat CPU 2 instructions: 230000000 cycles: 75188941 heartbeat IPC: 2.801 cumulative IPC: 2.703 (Simulation time: 00 hr 56 min 14 sec)
Simulation finished CPU 2 instructions: 150000000 cycles: 55436709 cumulative IPC: 2.706 (Simulation time: 00 hr 56 min 57 sec)
Heartbeat CPU 2 instructions: 240000002 cycles: 78971625 heartbeat IPC: 2.644 cumulative IPC: 2.699 (Simulation time: 00 hr 58 min 30 sec)
Heartbeat CPU 1 instructions: 110000003 cycles: 80070317 heartbeat IPC: 0.9033 cumulative IPC: 0.9046 (Simulation time: 00 hr 59 min 08 sec)
Heartbeat CPU 2 instructions: 250000004 cycles: 82683817 heartbeat IPC: 2.694 cumulative IPC: 2.699 (Simulation time: 01 hr 00 min 41 sec)
Heartbeat CPU 3 instructions: 80000000 cycles: 86225930 heartbeat IPC: 0.1914 cumulative IPC: 0.1929 (Simulation time: 01 hr 02 min 44 sec)
Heartbeat CPU 2 instructions: 260000002 cycles: 86248885 heartbeat IPC: 2.805 cumulative IPC: 2.705 (Simulation time: 01 hr 02 min 45 sec)
Heartbeat CPU 2 instructions: 270000004 cycles: 90036317 heartbeat IPC: 2.64 cumulative IPC: 2.701 (Simulation time: 01 hr 04 min 54 sec)
Heartbeat CPU 1 instructions: 120000004 cycles: 91063185 heartbeat IPC: 0.9097 cumulative IPC: 0.9054 (Simulation time: 01 hr 05 min 29 sec)
Heartbeat CPU 2 instructions: 280000004 cycles: 93632802 heartbeat IPC: 2.78 cumulative IPC: 2.705 (Simulation time: 01 hr 06 min 54 sec)
Heartbeat CPU 2 instructions: 290000003 cycles: 97174748 heartbeat IPC: 2.823 cumulative IPC: 2.711 (Simulation time: 01 hr 08 min 52 sec)
Heartbeat CPU 2 instructions: 300000000 cycles: 100761032 heartbeat IPC: 2.788 cumulative IPC: 2.714 (Simulation time: 01 hr 10 min 51 sec)
Heartbeat CPU 1 instructions: 130000000 cycles: 101992005 heartbeat IPC: 0.915 cumulative IPC: 0.9067 (Simulation time: 01 hr 11 min 33 sec)
Heartbeat CPU 2 instructions: 310000004 cycles: 104290045 heartbeat IPC: 2.834 cumulative IPC: 2.719 (Simulation time: 01 hr 12 min 50 sec)
Heartbeat CPU 2 instructions: 320000001 cycles: 107781207 heartbeat IPC: 2.864 cumulative IPC: 2.725 (Simulation time: 01 hr 14 min 46 sec)
Heartbeat CPU 2 instructions: 330000001 cycles: 111283037 heartbeat IPC: 2.856 cumulative IPC: 2.73 (Simulation time: 01 hr 16 min 43 sec)
Heartbeat CPU 1 instructions: 140000002 cycles: 112764757 heartbeat IPC: 0.9283 cumulative IPC: 0.9092 (Simulation time: 01 hr 17 min 34 sec)
Heartbeat CPU 2 instructions: 340000001 cycles: 114913598 heartbeat IPC: 2.754 cumulative IPC: 2.731 (Simulation time: 01 hr 18 min 47 sec)
Heartbeat CPU 0 instructions: 70000002 cycles: 118218319 heartbeat IPC: 0.21 cumulative IPC: 0.2055 (Simulation time: 01 hr 20 min 38 sec)
Heartbeat CPU 2 instructions: 350000001 cycles: 118478107 heartbeat IPC: 2.805 cumulative IPC: 2.734 (Simulation time: 01 hr 20 min 47 sec)
Heartbeat CPU 2 instructions: 360000001 cycles: 122053105 heartbeat IPC: 2.797 cumulative IPC: 2.736 (Simulation time: 01 hr 22 min 47 sec)
Heartbeat CPU 1 instructions: 150000004 cycles: 124084410 heartbeat IPC: 0.8834 cumulative IPC: 0.9064 (Simulation time: 01 hr 23 min 53 sec)
Heartbeat CPU 2 instructions: 370000001 cycles: 125645723 heartbeat IPC: 2.783 cumulative IPC: 2.738 (Simulation time: 01 hr 24 min 45 sec)
Heartbeat CPU 2 instructions: 380000003 cycles: 129541777 heartbeat IPC: 2.567 cumulative IPC: 2.731 (Simulation time: 01 hr 26 min 57 sec)
Heartbeat CPU 2 instructions: 390000000 cycles: 133213289 heartbeat IPC: 2.724 cumulative IPC: 2.731 (Simulation time: 01 hr 28 min 57 sec)
Heartbeat CPU 1 instructions: 160000004 cycles: 135454718 heartbeat IPC: 0.8795 cumulative IPC: 0.9037 (Simulation time: 01 hr 30 min 13 sec)
Heartbeat CPU 3 instructions: 90000004 cycles: 136506904 heartbeat IPC: 0.1989 cumulative IPC: 0.1955 (Simulation time: 01 hr 30 min 47 sec)
Heartbeat CPU 2 instructions: 400000002 cycles: 136707403 heartbeat IPC: 2.862 cumulative IPC: 2.735 (Simulation time: 01 hr 30 min 54 sec)
Heartbeat CPU 2 instructions: 410000004 cycles: 140384163 heartbeat IPC: 2.72 cumulative IPC: 2.735 (Simulation time: 01 hr 32 min 58 sec)
Heartbeat CPU 2 instructions: 420000001 cycles: 143914886 heartbeat IPC: 2.832 cumulative IPC: 2.737 (Simulation time: 01 hr 34 min 59 sec)
Heartbeat CPU 1 instructions: 170000000 cycles: 146615462 heartbeat IPC: 0.896 cumulative IPC: 0.903 (Simulation time: 01 hr 36 min 30 sec)
Heartbeat CPU 2 instructions: 430000003 cycles: 147974284 heartbeat IPC: 2.463 cumulative IPC: 2.729 (Simulation time: 01 hr 37 min 13 sec)
Heartbeat CPU 2 instructions: 440000000 cycles: 151744434 heartbeat IPC: 2.652 cumulative IPC: 2.726 (Simulation time: 01 hr 39 min 18 sec)
Heartbeat CPU 2 instructions: 450000001 cycles: 156735081 heartbeat IPC: 2.004 cumulative IPC: 2.7 (Simulation time: 01 hr 42 min 00 sec)
Heartbeat CPU 1 instructions: 180000001 cycles: 158032750 heartbeat IPC: 0.8759 cumulative IPC: 0.9008 (Simulation time: 01 hr 42 min 42 sec)
Heartbeat CPU 2 instructions: 460000000 cycles: 160233322 heartbeat IPC: 2.859 cumulative IPC: 2.704 (Simulation time: 01 hr 43 min 59 sec)
Heartbeat CPU 2 instructions: 470000002 cycles: 163760680 heartbeat IPC: 2.835 cumulative IPC: 2.707 (Simulation time: 01 hr 45 min 58 sec)
Heartbeat CPU 2 instructions: 480000001 cycles: 167406668 heartbeat IPC: 2.743 cumulative IPC: 2.708 (Simulation time: 01 hr 48 min 01 sec)
Heartbeat CPU 1 instructions: 190000004 cycles: 169009672 heartbeat IPC: 0.911 cumulative IPC: 0.9015 (Simulation time: 01 hr 48 min 55 sec)
Heartbeat CPU 0 instructions: 80000002 cycles: 169283844 heartbeat IPC: 0.1958 cumulative IPC: 0.2021 (Simulation time: 01 hr 49 min 05 sec)
Heartbeat CPU 1 instructions: 200000002 cycles: 185931312 heartbeat IPC: 0.591 cumulative IPC: 0.8697 (Simulation time: 01 hr 56 min 21 sec)
Heartbeat CPU 2 instructions: 490000000 cycles: 192302556 heartbeat IPC: 0.4017 cumulative IPC: 2.373 (Simulation time: 01 hr 59 min 17 sec)
Heartbeat CPU 3 instructions: 100000000 cycles: 194136522 heartbeat IPC: 0.1735 cumulative IPC: 0.1882 (Simulation time: 02 hr 00 min 14 sec)
Simulation finished CPU 1 instructions: 150000000 cycles: 174718365 cumulative IPC: 0.8585 (Simulation time: 02 hr 01 min 02 sec)
Heartbeat CPU 2 instructions: 500000002 cycles: 197815440 heartbeat IPC: 1.814 cumulative IPC: 2.356 (Simulation time: 02 hr 02 min 10 sec)
Heartbeat CPU 1 instructions: 210000003 cycles: 200195003 heartbeat IPC: 0.7011 cumulative IPC: 0.8563 (Simulation time: 02 hr 03 min 28 sec)
Heartbeat CPU 2 instructions: 510000001 cycles: 203632969 heartbeat IPC: 1.719 cumulative IPC: 2.335 (Simulation time: 02 hr 05 min 19 sec)
Heartbeat CPU 2 instructions: 520000003 cycles: 209433254 heartbeat IPC: 1.724 cumulative IPC: 2.317 (Simulation time: 02 hr 08 min 24 sec)
Heartbeat CPU 1 instructions: 220000000 cycles: 212428285 heartbeat IPC: 0.8174 cumulative IPC: 0.8538 (Simulation time: 02 hr 10 min 01 sec)
Heartbeat CPU 2 instructions: 530000000 cycles: 214876998 heartbeat IPC: 1.837 cumulative IPC: 2.303 (Simulation time: 02 hr 11 min 20 sec)
Heartbeat CPU 2 instructions: 540000004 cycles: 220662948 heartbeat IPC: 1.728 cumulative IPC: 2.286 (Simulation time: 02 hr 14 min 33 sec)
Heartbeat CPU 1 instructions: 230000002 cycles: 224525396 heartbeat IPC: 0.8266 cumulative IPC: 0.8522 (Simulation time: 02 hr 16 min 38 sec)
Heartbeat CPU 2 instructions: 550000001 cycles: 226266335 heartbeat IPC: 1.785 cumulative IPC: 2.273 (Simulation time: 02 hr 17 min 37 sec)
Heartbeat CPU 2 instructions: 560000000 cycles: 234023375 heartbeat IPC: 1.289 cumulative IPC: 2.237 (Simulation time: 02 hr 21 min 34 sec)
Heartbeat CPU 1 instructions: 240000003 cycles: 239063070 heartbeat IPC: 0.6879 cumulative IPC: 0.8412 (Simulation time: 02 hr 23 min 39 sec)
Heartbeat CPU 0 instructions: 90000001 cycles: 254991631 heartbeat IPC: 0.1167 cumulative IPC: 0.1709 (Simulation time: 02 hr 30 min 53 sec)
Heartbeat CPU 1 instructions: 250000003 cycles: 255451467 heartbeat IPC: 0.6102 cumulative IPC: 0.8251 (Simulation time: 02 hr 31 min 07 sec)
Heartbeat CPU 2 instructions: 570000001 cycles: 257596410 heartbeat IPC: 0.4242 cumulative IPC: 2.056 (Simulation time: 02 hr 32 min 16 sec)
Heartbeat CPU 3 instructions: 110000000 cycles: 260747328 heartbeat IPC: 0.1501 cumulative IPC: 0.1776 (Simulation time: 02 hr 33 min 53 sec)
Heartbeat CPU 2 instructions: 580000001 cycles: 263350646 heartbeat IPC: 1.738 cumulative IPC: 2.049 (Simulation time: 02 hr 35 min 16 sec)
Heartbeat CPU 1 instructions: 260000004 cycles: 267963658 heartbeat IPC: 0.7992 cumulative IPC: 0.8238 (Simulation time: 02 hr 37 min 46 sec)
Heartbeat CPU 2 instructions: 590000002 cycles: 268701059 heartbeat IPC: 1.869 cumulative IPC: 2.045 (Simulation time: 02 hr 38 min 10 sec)
Heartbeat CPU 2 instructions: 600000004 cycles: 273951644 heartbeat IPC: 1.905 cumulative IPC: 2.042 (Simulation time: 02 hr 40 min 56 sec)
Heartbeat CPU 2 instructions: 610000000 cycles: 279643989 heartbeat IPC: 1.757 cumulative IPC: 2.036 (Simulation time: 02 hr 44 min 28 sec)
Heartbeat CPU 1 instructions: 270000003 cycles: 280390313 heartbeat IPC: 0.8047 cumulative IPC: 0.8229 (Simulation time: 02 hr 44 min 54 sec)
Heartbeat CPU 2 instructions: 620000002 cycles: 285509818 heartbeat IPC: 1.705 cumulative IPC: 2.029 (Simulation time: 02 hr 48 min 09 sec)
Heartbeat CPU 2 instructions: 630000004 cycles: 290849594 heartbeat IPC: 1.873 cumulative IPC: 2.025 (Simulation time: 02 hr 51 min 21 sec)
Heartbeat CPU 1 instructions: 280000000 cycles: 292577765 heartbeat IPC: 0.8205 cumulative IPC: 0.8228 (Simulation time: 02 hr 52 min 28 sec)
Heartbeat CPU 1 instructions: 290000001 cycles: 309419720 heartbeat IPC: 0.5938 cumulative IPC: 0.8094 (Simulation time: 03 hr 00 min 57 sec)
Heartbeat CPU 2 instructions: 640000002 cycles: 316271806 heartbeat IPC: 0.3934 cumulative IPC: 1.885 (Simulation time: 03 hr 04 min 57 sec)
Heartbeat CPU 2 instructions: 650000004 cycles: 321792590 heartbeat IPC: 1.811 cumulative IPC: 1.884 (Simulation time: 03 hr 08 min 17 sec)
Heartbeat CPU 1 instructions: 300000001 cycles: 323514137 heartbeat IPC: 0.7095 cumulative IPC: 0.8047 (Simulation time: 03 hr 09 min 21 sec)
Heartbeat CPU 3 instructions: 120000003 cycles: 325889970 heartbeat IPC: 0.1535 cumulative IPC: 0.1725 (Simulation time: 03 hr 10 min 42 sec)
Heartbeat CPU 2 instructions: 660000003 cycles: 327357964 heartbeat IPC: 1.797 cumulative IPC: 1.882 (Simulation time: 03 hr 11 min 48 sec)
Heartbeat CPU 0 instructions: 100000000 cycles: 332577453 heartbeat IPC: 0.1289 cumulative IPC: 0.1604 (Simulation time: 03 hr 15 min 21 sec)
Heartbeat CPU 2 instructions: 670000002 cycles: 333130850 heartbeat IPC: 1.732 cumulative IPC: 1.879 (Simulation time: 03 hr 15 min 44 sec)
Heartbeat CPU 1 instructions: 310000000 cycles: 335828021 heartbeat IPC: 0.8121 cumulative IPC: 0.805 (Simulation time: 03 hr 17 min 24 sec)
Heartbeat CPU 2 instructions: 680000004 cycles: 338527035 heartbeat IPC: 1.853 cumulative IPC: 1.879 (Simulation time: 03 hr 19 min 05 sec)
Heartbeat CPU 2 instructions: 690000000 cycles: 344265817 heartbeat IPC: 1.743 cumulative IPC: 1.876 (Simulation time: 03 hr 22 min 48 sec)
Heartbeat CPU 1 instructions: 320000004 cycles: 347829003 heartbeat IPC: 0.8333 cumulative IPC: 0.8061 (Simulation time: 03 hr 25 min 06 sec)
Heartbeat CPU 2 instructions: 700000000 cycles: 349791063 heartbeat IPC: 1.81 cumulative IPC: 1.875 (Simulation time: 03 hr 26 min 29 sec)
Heartbeat CPU 1 instructions: 330000001 cycles: 361783436 heartbeat IPC: 0.7166 cumulative IPC: 0.8024 (Simulation time: 03 hr 33 min 08 sec)
Heartbeat CPU 2 instructions: 710000002 cycles: 372441456 heartbeat IPC: 0.4415 cumulative IPC: 1.783 (Simulation time: 03 hr 38 min 38 sec)
Heartbeat CPU 1 instructions: 340000003 cycles: 380587129 heartbeat IPC: 0.5318 cumulative IPC: 0.7883 (Simulation time: 03 hr 42 min 40 sec)
Heartbeat CPU 2 instructions: 720000000 cycles: 383287286 heartbeat IPC: 0.922 cumulative IPC: 1.757 (Simulation time: 03 hr 44 min 09 sec)
Heartbeat CPU 2 instructions: 730000001 cycles: 388937138 heartbeat IPC: 1.77 cumulative IPC: 1.757 (Simulation time: 03 hr 46 min 59 sec)
Heartbeat CPU 1 instructions: 350000002 cycles: 393288033 heartbeat IPC: 0.7873 cumulative IPC: 0.7882 (Simulation time: 03 hr 49 min 05 sec)
Heartbeat CPU 3 instructions: 130000000 cycles: 393390735 heartbeat IPC: 0.1481 cumulative IPC: 0.1681 (Simulation time: 03 hr 49 min 08 sec)
Heartbeat CPU 2 instructions: 740000001 cycles: 394127519 heartbeat IPC: 1.927 cumulative IPC: 1.76 (Simulation time: 03 hr 49 min 30 sec)
Heartbeat CPU 2 instructions: 750000000 cycles: 399812675 heartbeat IPC: 1.759 cumulative IPC: 1.76 (Simulation time: 03 hr 52 min 21 sec)
Heartbeat CPU 2 instructions: 760000000 cycles: 405403059 heartbeat IPC: 1.789 cumulative IPC: 1.76 (Simulation time: 03 hr 55 min 11 sec)
Heartbeat CPU 1 instructions: 360000000 cycles: 405673643 heartbeat IPC: 0.8074 cumulative IPC: 0.7888 (Simulation time: 03 hr 55 min 18 sec)
Heartbeat CPU 0 instructions: 110000004 cycles: 410309099 heartbeat IPC: 0.1286 cumulative IPC: 0.1541 (Simulation time: 03 hr 57 min 36 sec)
Heartbeat CPU 2 instructions: 770000004 cycles: 410801053 heartbeat IPC: 1.853 cumulative IPC: 1.761 (Simulation time: 03 hr 57 min 51 sec)
Heartbeat CPU 2 instructions: 780000003 cycles: 416398279 heartbeat IPC: 1.787 cumulative IPC: 1.762 (Simulation time: 04 hr 00 min 38 sec)
Heartbeat CPU 1 instructions: 370000001 cycles: 418046656 heartbeat IPC: 0.8082 cumulative IPC: 0.7894 (Simulation time: 04 hr 01 min 25 sec)
Heartbeat CPU 1 instructions: 380000001 cycles: 434694426 heartbeat IPC: 0.6007 cumulative IPC: 0.7819 (Simulation time: 04 hr 08 min 12 sec)
Heartbeat CPU 2 instructions: 790000003 cycles: 442315907 heartbeat IPC: 0.3858 cumulative IPC: 1.677 (Simulation time: 04 hr 11 min 34 sec)
Heartbeat CPU 2 instructions: 800000003 cycles: 448034306 heartbeat IPC: 1.749 cumulative IPC: 1.678 (Simulation time: 04 hr 14 min 22 sec)
Heartbeat CPU 1 instructions: 390000004 cycles: 448706321 heartbeat IPC: 0.7137 cumulative IPC: 0.7796 (Simulation time: 04 hr 14 min 40 sec)
Heartbeat CPU 2 instructions: 810000002 cycles: 453517430 heartbeat IPC: 1.824 cumulative IPC: 1.68 (Simulation time: 04 hr 17 min 01 sec)
Heartbeat CPU 2 instructions: 820000004 cycles: 458900809 heartbeat IPC: 1.858 cumulative IPC: 1.682 (Simulation time: 04 hr 19 min 43 sec)
Heartbeat CPU 3 instructions: 140000002 cycles: 461033441 heartbeat IPC: 0.1478 cumulative IPC: 0.165 (Simulation time: 04 hr 20 min 43 sec)
Heartbeat CPU 1 instructions: 400000003 cycles: 461068853 heartbeat IPC: 0.8089 cumulative IPC: 0.7804 (Simulation time: 04 hr 20 min 44 sec)
Heartbeat CPU 2 instructions: 830000001 cycles: 464539679 heartbeat IPC: 1.773 cumulative IPC: 1.683 (Simulation time: 04 hr 22 min 28 sec)
Heartbeat CPU 2 instructions: 840000000 cycles: 470024500 heartbeat IPC: 1.823 cumulative IPC: 1.685 (Simulation time: 04 hr 25 min 12 sec)
Heartbeat CPU 1 instructions: 410000004 cycles: 473236368 heartbeat IPC: 0.8219 cumulative IPC: 0.7816 (Simulation time: 04 hr 26 min 48 sec)
Heartbeat CPU 2 instructions: 850000002 cycles: 475588004 heartbeat IPC: 1.797 cumulative IPC: 1.686 (Simulation time: 04 hr 27 min 57 sec)
Heartbeat CPU 1 instructions: 420000000 cycles: 487590072 heartbeat IPC: 0.6967 cumulative IPC: 0.7789 (Simulation time: 04 hr 33 min 08 sec)
Heartbeat CPU 0 instructions: 120000004 cycles: 496481664 heartbeat IPC: 0.116 cumulative IPC: 0.1472 (Simulation time: 04 hr 36 min 46 sec)
Heartbeat CPU 2 instructions: 860000004 cycles: 501202934 heartbeat IPC: 0.3904 cumulative IPC: 1.617 (Simulation time: 04 hr 38 min 48 sec)
Heartbeat CPU 1 instructions: 430000002 cycles: 504391222 heartbeat IPC: 0.5952 cumulative IPC: 0.7726 (Simulation time: 04 hr 40 min 24 sec)
Heartbeat CPU 2 instructions: 870000001 cycles: 506780170 heartbeat IPC: 1.793 cumulative IPC: 1.619 (Simulation time: 04 hr 41 min 35 sec)
Heartbeat CPU 2 instructions: 880000000 cycles: 512207251 heartbeat IPC: 1.843 cumulative IPC: 1.622 (Simulation time: 04 hr 44 min 19 sec)
Heartbeat CPU 1 instructions: 440000003 cycles: 516937887 heartbeat IPC: 0.797 cumulative IPC: 0.7732 (Simulation time: 04 hr 46 min 41 sec)
Heartbeat CPU 2 instructions: 890000000 cycles: 517624220 heartbeat IPC: 1.846 cumulative IPC: 1.624 (Simulation time: 04 hr 47 min 00 sec)
Heartbeat CPU 2 instructions: 900000002 cycles: 523028946 heartbeat IPC: 1.85 cumulative IPC: 1.627 (Simulation time: 04 hr 49 min 41 sec)
Heartbeat CPU 3 instructions: 150000000 cycles: 525527075 heartbeat IPC: 0.1551 cumulative IPC: 0.1637 (Simulation time: 04 hr 50 min 58 sec)
Heartbeat CPU 2 instructions: 910000004 cycles: 528585393 heartbeat IPC: 1.8 cumulative IPC: 1.629 (Simulation time: 04 hr 52 min 32 sec)
Heartbeat CPU 1 instructions: 450000003 cycles: 529140351 heartbeat IPC: 0.8195 cumulative IPC: 0.7743 (Simulation time: 04 hr 52 min 51 sec)
Heartbeat CPU 2 instructions: 920000004 cycles: 534061035 heartbeat IPC: 1.826 cumulative IPC: 1.631 (Simulation time: 04 hr 55 min 24 sec)
Heartbeat CPU 2 instructions: 930000000 cycles: 539834429 heartbeat IPC: 1.732 cumulative IPC: 1.632 (Simulation time: 04 hr 58 min 24 sec)
Heartbeat CPU 1 instructions: 460000001 cycles: 541628539 heartbeat IPC: 0.8008 cumulative IPC: 0.7749 (Simulation time: 04 hr 59 min 12 sec)
Heartbeat CPU 1 instructions: 470000001 cycles: 558567696 heartbeat IPC: 0.5903 cumulative IPC: 0.7691 (Simulation time: 05 hr 06 min 08 sec)
Heartbeat CPU 2 instructions: 940000000 cycles: 565247185 heartbeat IPC: 0.3935 cumulative IPC: 1.574 (Simulation time: 05 hr 09 min 12 sec)
Heartbeat CPU 2 instructions: 950000002 cycles: 570852761 heartbeat IPC: 1.784 cumulative IPC: 1.576 (Simulation time: 05 hr 12 min 08 sec)
Heartbeat CPU 1 instructions: 480000000 cycles: 572267776 heartbeat IPC: 0.7299 cumulative IPC: 0.7681 (Simulation time: 05 hr 12 min 53 sec)
Heartbeat CPU 0 instructions: 130000003 cycles: 575941873 heartbeat IPC: 0.1258 cumulative IPC: 0.1441 (Simulation time: 05 hr 14 min 45 sec)
Heartbeat CPU 2 instructions: 960000000 cycles: 576345845 heartbeat IPC: 1.82 cumulative IPC: 1.579 (Simulation time: 05 hr 14 min 57 sec)
Heartbeat CPU 2 instructions: 970000000 cycles: 581755554 heartbeat IPC: 1.849 cumulative IPC: 1.581 (Simulation time: 05 hr 17 min 35 sec)
Heartbeat CPU 1 instructions: 490000003 cycles: 584621572 heartbeat IPC: 0.8095 cumulative IPC: 0.769 (Simulation time: 05 hr 19 min 02 sec)
Heartbeat CPU 2 instructions: 980000002 cycles: 587338909 heartbeat IPC: 1.791 cumulative IPC: 1.583 (Simulation time: 05 hr 20 min 25 sec)
Heartbeat CPU 3 instructions: 160000002 cycles: 589336830 heartbeat IPC: 0.1567 cumulative IPC: 0.1629 (Simulation time: 05 hr 21 min 28 sec)
Heartbeat CPU 2 instructions: 990000002 cycles: 593078037 heartbeat IPC: 1.742 cumulative IPC: 1.585 (Simulation time: 05 hr 23 min 30 sec)
Heartbeat CPU 1 instructions: 500000001 cycles: 596832579 heartbeat IPC: 0.8189 cumulative IPC: 0.7701 (Simulation time: 05 hr 25 min 22 sec)
Heartbeat CPU 2 instructions: 1000000003 cycles: 598614599 heartbeat IPC: 1.806 cumulative IPC: 1.587 (Simulation time: 05 hr 26 min 12 sec)
Heartbeat CPU 1 instructions: 510000004 cycles: 611497596 heartbeat IPC: 0.6819 cumulative IPC: 0.7679 (Simulation time: 05 hr 31 min 43 sec)
Heartbeat CPU 2 instructions: 1010000002 cycles: 625019567 heartbeat IPC: 0.3787 cumulative IPC: 1.534 (Simulation time: 05 hr 38 min 18 sec)
Heartbeat CPU 1 instructions: 520000000 cycles: 628404740 heartbeat IPC: 0.5915 cumulative IPC: 0.763 (Simulation time: 05 hr 40 min 43 sec)
Heartbeat CPU 2 instructions: 1020000001 cycles: 630876061 heartbeat IPC: 1.708 cumulative IPC: 1.536 (Simulation time: 05 hr 42 min 22 sec)
Heartbeat CPU 2 instructions: 1030000000 cycles: 636420944 heartbeat IPC: 1.803 cumulative IPC: 1.538 (Simulation time: 05 hr 46 min 02 sec)
Heartbeat CPU 1 instructions: 530000003 cycles: 640651057 heartbeat IPC: 0.8166 cumulative IPC: 0.7641 (Simulation time: 05 hr 48 min 47 sec)
Heartbeat CPU 2 instructions: 1040000001 cycles: 642083507 heartbeat IPC: 1.766 cumulative IPC: 1.54 (Simulation time: 05 hr 49 min 28 sec)
Heartbeat CPU 2 instructions: 1050000001 cycles: 647501558 heartbeat IPC: 1.846 cumulative IPC: 1.543 (Simulation time: 05 hr 52 min 16 sec)
Heartbeat CPU 0 instructions: 140000001 cycles: 651240409 heartbeat IPC: 0.1328 cumulative IPC: 0.1428 (Simulation time: 05 hr 54 min 44 sec)
Heartbeat CPU 1 instructions: 540000003 cycles: 652780426 heartbeat IPC: 0.8244 cumulative IPC: 0.7652 (Simulation time: 05 hr 55 min 46 sec)
Heartbeat CPU 2 instructions: 1060000001 cycles: 652992065 heartbeat IPC: 1.821 cumulative IPC: 1.545 (Simulation time: 05 hr 55 min 57 sec)
Heartbeat CPU 3 instructions: 170000000 cycles: 656317807 heartbeat IPC: 0.1493 cumulative IPC: 0.1615 (Simulation time: 05 hr 58 min 12 sec)
Heartbeat CPU 2 instructions: 1070000002 cycles: 658436872 heartbeat IPC: 1.837 cumulative IPC: 1.548 (Simulation time: 05 hr 59 min 41 sec)
Heartbeat CPU 1 instructions: 550000000 cycles: 665089120 heartbeat IPC: 0.8124 cumulative IPC: 0.7661 (Simulation time: 06 hr 03 min 15 sec)
Heartbeat CPU 2 instructions: 1080000002 cycles: 672080034 heartbeat IPC: 0.733 cumulative IPC: 1.531 (Simulation time: 06 hr 06 min 24 sec)
Heartbeat CPU 1 instructions: 560000002 cycles: 682032671 heartbeat IPC: 0.5902 cumulative IPC: 0.7616 (Simulation time: 06 hr 10 min 49 sec)
Heartbeat CPU 2 instructions: 1090000001 cycles: 689612671 heartbeat IPC: 0.5704 cumulative IPC: 1.506 (Simulation time: 06 hr 14 min 22 sec)
Heartbeat CPU 1 instructions: 570000000 cycles: 695385481 heartbeat IPC: 0.7489 cumulative IPC: 0.7614 (Simulation time: 06 hr 17 min 26 sec)
Heartbeat CPU 2 instructions: 1100000000 cycles: 695551001 heartbeat IPC: 1.684 cumulative IPC: 1.507 (Simulation time: 06 hr 17 min 31 sec)
Heartbeat CPU 2 instructions: 1110000001 cycles: 701291863 heartbeat IPC: 1.742 cumulative IPC: 1.509 (Simulation time: 06 hr 20 min 45 sec)
Heartbeat CPU 2 instructions: 1120000000 cycles: 706873865 heartbeat IPC: 1.791 cumulative IPC: 1.511 (Simulation time: 06 hr 23 min 54 sec)
Heartbeat CPU 1 instructions: 580000000 cycles: 707573435 heartbeat IPC: 0.8205 cumulative IPC: 0.7624 (Simulation time: 06 hr 24 min 16 sec)
Heartbeat CPU 2 instructions: 1130000001 cycles: 712814931 heartbeat IPC: 1.683 cumulative IPC: 1.513 (Simulation time: 06 hr 27 min 03 sec)
Heartbeat CPU 2 instructions: 1140000004 cycles: 718366026 heartbeat IPC: 1.801 cumulative IPC: 1.515 (Simulation time: 06 hr 29 min 48 sec)
Heartbeat CPU 3 instructions: 180000004 cycles: 719179404 heartbeat IPC: 0.1591 cumulative IPC: 0.1613 (Simulation time: 06 hr 30 min 14 sec)
Heartbeat CPU 1 instructions: 590000003 cycles: 719786796 heartbeat IPC: 0.8188 cumulative IPC: 0.7634 (Simulation time: 06 hr 30 min 32 sec)
Heartbeat CPU 2 instructions: 1150000000 cycles: 724174525 heartbeat IPC: 1.722 cumulative IPC: 1.517 (Simulation time: 06 hr 32 min 44 sec)
Heartbeat CPU 0 instructions: 150000003 cycles: 725064586 heartbeat IPC: 0.1355 cumulative IPC: 0.142 (Simulation time: 06 hr 33 min 12 sec)
Heartbeat CPU 1 instructions: 600000000 cycles: 733870237 heartbeat IPC: 0.7101 cumulative IPC: 0.7623 (Simulation time: 06 hr 36 min 53 sec)
Heartbeat CPU 2 instructions: 1160000000 cycles: 750081653 heartbeat IPC: 0.386 cumulative IPC: 1.477 (Simulation time: 06 hr 43 min 45 sec)
Heartbeat CPU 1 instructions: 610000001 cycles: 750559849 heartbeat IPC: 0.5992 cumulative IPC: 0.7586 (Simulation time: 06 hr 43 min 58 sec)
Heartbeat CPU 2 instructions: 1170000000 cycles: 755638417 heartbeat IPC: 1.8 cumulative IPC: 1.479 (Simulation time: 06 hr 46 min 28 sec)
Heartbeat CPU 2 instructions: 1180000002 cycles: 760943352 heartbeat IPC: 1.885 cumulative IPC: 1.482 (Simulation time: 06 hr 49 min 06 sec)
Heartbeat CPU 1 instructions: 620000000 cycles: 763530429 heartbeat IPC: 0.771 cumulative IPC: 0.7588 (Simulation time: 06 hr 50 min 27 sec)
Heartbeat CPU 2 instructions: 1190000003 cycles: 766239634 heartbeat IPC: 1.888 cumulative IPC: 1.485 (Simulation time: 06 hr 51 min 48 sec)
Heartbeat CPU 2 instructions: 1200000000 cycles: 771585725 heartbeat IPC: 1.871 cumulative IPC: 1.488 (Simulation time: 06 hr 54 min 26 sec)
Heartbeat CPU 1 instructions: 630000003 cycles: 775893495 heartbeat IPC: 0.8089 cumulative IPC: 0.7596 (Simulation time: 06 hr 56 min 42 sec)
Heartbeat CPU 2 instructions: 1210000000 cycles: 777467235 heartbeat IPC: 1.7 cumulative IPC: 1.489 (Simulation time: 06 hr 57 min 28 sec)
Heartbeat CPU 2 instructions: 1220000004 cycles: 782999673 heartbeat IPC: 1.808 cumulative IPC: 1.492 (Simulation time: 07 hr 00 min 52 sec)
Heartbeat CPU 3 instructions: 190000003 cycles: 785168713 heartbeat IPC: 0.1515 cumulative IPC: 0.1604 (Simulation time: 07 hr 02 min 16 sec)
Heartbeat CPU 1 instructions: 640000004 cycles: 788182876 heartbeat IPC: 0.8137 cumulative IPC: 0.7605 (Simulation time: 07 hr 04 min 05 sec)
Heartbeat CPU 2 instructions: 1230000003 cycles: 804015071 heartbeat IPC: 0.4758 cumulative IPC: 1.464 (Simulation time: 07 hr 12 min 17 sec)
Heartbeat CPU 1 instructions: 650000001 cycles: 804528331 heartbeat IPC: 0.6118 cumulative IPC: 0.7574 (Simulation time: 07 hr 12 min 35 sec)
Heartbeat CPU 0 instructions: 160000002 cycles: 816030486 heartbeat IPC: 0.1099 cumulative IPC: 0.1383 (Simulation time: 07 hr 18 min 27 sec)
Heartbeat CPU 1 instructions: 660000002 cycles: 821985156 heartbeat IPC: 0.5728 cumulative IPC: 0.7534 (Simulation time: 07 hr 21 min 01 sec)
Heartbeat CPU 2 instructions: 1240000001 cycles: 833926176 heartbeat IPC: 0.3343 cumulative IPC: 1.423 (Simulation time: 07 hr 26 min 52 sec)
Heartbeat CPU 1 instructions: 670000003 cycles: 838115309 heartbeat IPC: 0.62 cumulative IPC: 0.7508 (Simulation time: 07 hr 28 min 42 sec)
Heartbeat CPU 1 instructions: 680000002 cycles: 854280951 heartbeat IPC: 0.6186 cumulative IPC: 0.7482 (Simulation time: 07 hr 35 min 53 sec)
Heartbeat CPU 2 instructions: 1250000000 cycles: 866753332 heartbeat IPC: 0.3046 cumulative IPC: 1.379 (Simulation time: 07 hr 41 min 07 sec)
Heartbeat CPU 1 instructions: 690000004 cycles: 871175225 heartbeat IPC: 0.5919 cumulative IPC: 0.7451 (Simulation time: 07 hr 42 min 56 sec)
Heartbeat CPU 1 instructions: 700000002 cycles: 888379100 heartbeat IPC: 0.5813 cumulative IPC: 0.7418 (Simulation time: 07 hr 50 min 08 sec)
Heartbeat CPU 2 instructions: 1260000000 cycles: 903926274 heartbeat IPC: 0.269 cumulative IPC: 1.333 (Simulation time: 07 hr 56 min 28 sec)
Heartbeat CPU 1 instructions: 710000003 cycles: 905948670 heartbeat IPC: 0.5692 cumulative IPC: 0.7384 (Simulation time: 07 hr 57 min 16 sec)
Heartbeat CPU 1 instructions: 720000002 cycles: 922419838 heartbeat IPC: 0.6071 cumulative IPC: 0.736 (Simulation time: 08 hr 04 min 08 sec)
Heartbeat CPU 3 instructions: 200000000 cycles: 922570186 heartbeat IPC: 0.07278 cumulative IPC: 0.1471 (Simulation time: 08 hr 04 min 12 sec)
Heartbeat CPU 2 instructions: 1270000004 cycles: 939209827 heartbeat IPC: 0.2834 cumulative IPC: 1.292 (Simulation time: 08 hr 11 min 00 sec)
Heartbeat CPU 1 instructions: 730000003 cycles: 939545960 heartbeat IPC: 0.5839 cumulative IPC: 0.7332 (Simulation time: 08 hr 11 min 07 sec)
Heartbeat CPU 1 instructions: 740000003 cycles: 955074074 heartbeat IPC: 0.644 cumulative IPC: 0.7317 (Simulation time: 08 hr 17 min 16 sec)
Heartbeat CPU 0 instructions: 170000001 cycles: 956366253 heartbeat IPC: 0.07126 cumulative IPC: 0.1283 (Simulation time: 08 hr 17 min 45 sec)
Heartbeat CPU 2 instructions: 1280000004 cycles: 971977648 heartbeat IPC: 0.3052 cumulative IPC: 1.258 (Simulation time: 08 hr 23 min 51 sec)
Heartbeat CPU 1 instructions: 750000004 cycles: 972372712 heartbeat IPC: 0.5781 cumulative IPC: 0.7289 (Simulation time: 08 hr 24 min 02 sec)
Heartbeat CPU 1 instructions: 760000000 cycles: 988814641 heartbeat IPC: 0.6082 cumulative IPC: 0.7268 (Simulation time: 08 hr 30 min 32 sec)
Heartbeat CPU 2 instructions: 1290000004 cycles: 1004573849 heartbeat IPC: 0.3068 cumulative IPC: 1.227 (Simulation time: 08 hr 36 min 54 sec)
Heartbeat CPU 1 instructions: 770000003 cycles: 1005209718 heartbeat IPC: 0.6099 cumulative IPC: 0.7249 (Simulation time: 08 hr 37 min 08 sec)
Heartbeat CPU 1 instructions: 780000002 cycles: 1021025474 heartbeat IPC: 0.6323 cumulative IPC: 0.7234 (Simulation time: 08 hr 43 min 16 sec)
Heartbeat CPU 1 instructions: 790000004 cycles: 1037960756 heartbeat IPC: 0.5905 cumulative IPC: 0.7212 (Simulation time: 08 hr 49 min 45 sec)
Heartbeat CPU 2 instructions: 1300000001 cycles: 1043765349 heartbeat IPC: 0.2552 cumulative IPC: 1.19 (Simulation time: 08 hr 51 min 58 sec)
Heartbeat CPU 1 instructions: 800000003 cycles: 1056394524 heartbeat IPC: 0.5425 cumulative IPC: 0.718 (Simulation time: 08 hr 56 min 58 sec)
Heartbeat CPU 1 instructions: 810000004 cycles: 1072356011 heartbeat IPC: 0.6265 cumulative IPC: 0.7167 (Simulation time: 09 hr 03 min 16 sec)
Heartbeat CPU 3 instructions: 210000000 cycles: 1074188386 heartbeat IPC: 0.06596 cumulative IPC: 0.1354 (Simulation time: 09 hr 03 min 57 sec)
Heartbeat CPU 2 instructions: 1310000000 cycles: 1078289359 heartbeat IPC: 0.2897 cumulative IPC: 1.16 (Simulation time: 09 hr 05 min 37 sec)
Heartbeat CPU 1 instructions: 820000002 cycles: 1090659092 heartbeat IPC: 0.5464 cumulative IPC: 0.7137 (Simulation time: 09 hr 10 min 25 sec)
Heartbeat CPU 1 instructions: 830000003 cycles: 1107919688 heartbeat IPC: 0.5794 cumulative IPC: 0.7116 (Simulation time: 09 hr 17 min 09 sec)
Heartbeat CPU 2 instructions: 1320000003 cycles: 1108589290 heartbeat IPC: 0.33 cumulative IPC: 1.137 (Simulation time: 09 hr 17 min 24 sec)
Heartbeat CPU 0 instructions: 180000001 cycles: 1108978284 heartbeat IPC: 0.06553 cumulative IPC: 0.1195 (Simulation time: 09 hr 17 min 33 sec)
Heartbeat CPU 1 instructions: 840000000 cycles: 1124540667 heartbeat IPC: 0.6016 cumulative IPC: 0.7099 (Simulation time: 09 hr 23 min 31 sec)
Heartbeat CPU 1 instructions: 850000001 cycles: 1139952417 heartbeat IPC: 0.6489 cumulative IPC: 0.7091 (Simulation time: 09 hr 29 min 32 sec)
Heartbeat CPU 2 instructions: 1330000001 cycles: 1149929069 heartbeat IPC: 0.2419 cumulative IPC: 1.104 (Simulation time: 09 hr 33 min 35 sec)
Heartbeat CPU 1 instructions: 860000002 cycles: 1157085567 heartbeat IPC: 0.5837 cumulative IPC: 0.7072 (Simulation time: 09 hr 36 min 14 sec)
Heartbeat CPU 1 instructions: 870000002 cycles: 1172300971 heartbeat IPC: 0.6572 cumulative IPC: 0.7066 (Simulation time: 09 hr 42 min 13 sec)
Simulation finished CPU 3 instructions: 150000002 cycles: 1157191936 cumulative IPC: 0.1296 (Simulation time: 09 hr 44 min 28 sec)
Heartbeat CPU 2 instructions: 1340000000 cycles: 1183720104 heartbeat IPC: 0.2959 cumulative IPC: 1.081 (Simulation time: 09 hr 46 min 33 sec)
Heartbeat CPU 1 instructions: 880000003 cycles: 1188651312 heartbeat IPC: 0.6116 cumulative IPC: 0.7052 (Simulation time: 09 hr 48 min 29 sec)
Heartbeat CPU 1 instructions: 890000001 cycles: 1205413884 heartbeat IPC: 0.5966 cumulative IPC: 0.7037 (Simulation time: 09 hr 54 min 56 sec)
Heartbeat CPU 2 instructions: 1350000001 cycles: 1207744385 heartbeat IPC: 0.4162 cumulative IPC: 1.067 (Simulation time: 09 hr 55 min 53 sec)
Heartbeat CPU 3 instructions: 220000004 cycles: 1219345688 heartbeat IPC: 0.06889 cumulative IPC: 0.1273 (Simulation time: 10 hr 00 min 18 sec)
Heartbeat CPU 1 instructions: 900000000 cycles: 1223064686 heartbeat IPC: 0.5665 cumulative IPC: 0.7017 (Simulation time: 10 hr 01 min 44 sec)
Heartbeat CPU 1 instructions: 910000003 cycles: 1239805135 heartbeat IPC: 0.5974 cumulative IPC: 0.7002 (Simulation time: 10 hr 07 min 57 sec)
Heartbeat CPU 2 instructions: 1360000002 cycles: 1254086318 heartbeat IPC: 0.2158 cumulative IPC: 1.035 (Simulation time: 10 hr 13 min 32 sec)
Heartbeat CPU 0 instructions: 190000003 cycles: 1255262966 heartbeat IPC: 0.06836 cumulative IPC: 0.1134 (Simulation time: 10 hr 13 min 58 sec)
Heartbeat CPU 1 instructions: 920000004 cycles: 1255692931 heartbeat IPC: 0.6294 cumulative IPC: 0.6993 (Simulation time: 10 hr 14 min 06 sec)
Heartbeat CPU 1 instructions: 930000001 cycles: 1272321601 heartbeat IPC: 0.6014 cumulative IPC: 0.698 (Simulation time: 10 hr 20 min 37 sec)
Heartbeat CPU 2 instructions: 1370000004 cycles: 1280449066 heartbeat IPC: 0.3793 cumulative IPC: 1.022 (Simulation time: 10 hr 23 min 56 sec)
Heartbeat CPU 1 instructions: 940000000 cycles: 1288400193 heartbeat IPC: 0.6219 cumulative IPC: 0.6971 (Simulation time: 10 hr 27 min 06 sec)
Heartbeat CPU 1 instructions: 950000001 cycles: 1306216341 heartbeat IPC: 0.5613 cumulative IPC: 0.6952 (Simulation time: 10 hr 33 min 47 sec)
Heartbeat CPU 2 instructions: 1380000000 cycles: 1313157138 heartbeat IPC: 0.3057 cumulative IPC: 1.004 (Simulation time: 10 hr 36 min 37 sec)
Heartbeat CPU 1 instructions: 960000002 cycles: 1323188463 heartbeat IPC: 0.5892 cumulative IPC: 0.6938 (Simulation time: 10 hr 40 min 19 sec)
Heartbeat CPU 1 instructions: 970000004 cycles: 1339597862 heartbeat IPC: 0.6094 cumulative IPC: 0.6928 (Simulation time: 10 hr 46 min 32 sec)
Heartbeat CPU 2 instructions: 1390000001 cycles: 1354131589 heartbeat IPC: 0.2441 cumulative IPC: 0.9802 (Simulation time: 10 hr 52 min 13 sec)
Heartbeat CPU 1 instructions: 980000003 cycles: 1355558383 heartbeat IPC: 0.6265 cumulative IPC: 0.692 (Simulation time: 10 hr 52 min 46 sec)
Heartbeat CPU 3 instructions: 230000000 cycles: 1371067406 heartbeat IPC: 0.06591 cumulative IPC: 0.1204 (Simulation time: 10 hr 58 min 47 sec)
Heartbeat CPU 1 instructions: 990000000 cycles: 1373465289 heartbeat IPC: 0.5584 cumulative IPC: 0.6902 (Simulation time: 10 hr 59 min 41 sec)
Heartbeat CPU 2 instructions: 1400000004 cycles: 1386456947 heartbeat IPC: 0.3094 cumulative IPC: 0.9643 (Simulation time: 11 hr 04 min 35 sec)
Heartbeat CPU 1 instructions: 1000000002 cycles: 1389775749 heartbeat IPC: 0.6131 cumulative IPC: 0.6893 (Simulation time: 11 hr 05 min 50 sec)
Heartbeat CPU 0 instructions: 200000001 cycles: 1395800332 heartbeat IPC: 0.07116 cumulative IPC: 0.1091 (Simulation time: 11 hr 08 min 01 sec)
Simulation finished CPU 0 instructions: 150000003 cycles: 1374925524 cumulative IPC: 0.1091 (Simulation time: 11 hr 08 min 01 sec)
Simulation complete CPU 0 instructions: 150000003 cycles: 1374925524 cumulative IPC: 0.1091 (Simulation time: 11 hr 08 min 01 sec)
Simulation complete CPU 1 instructions: 947592994 cycles: 1374925524 cumulative IPC: 0.6892 (Simulation time: 11 hr 08 min 01 sec)
Simulation complete CPU 2 instructions: 1319771810 cycles: 1374925524 cumulative IPC: 0.9599 (Simulation time: 11 hr 08 min 01 sec)
Simulation complete CPU 3 instructions: 164780390 cycles: 1374925524 cumulative IPC: 0.1198 (Simulation time: 11 hr 08 min 01 sec)

ChampSim completed all CPUs

=== Simulation ===
CPU 0 runs /home/das/dpc3_traces/620.omnetpp_s-874B.champsimtrace.xzCPU 1 runs /home/das/dpc3_traces/607.cactuBSSN_s-2421B.champsimtrace.xzCPU 2 runs /home/das/dpc3_traces/654.roms_s-842B.champsimtrace.xzCPU 3 runs /home/das/dpc3_traces/605.mcf_s-665B.champsimtrace.xz
Total Simulation Statistics (not including warmup)

CPU 0 cumulative IPC: 0.1091 instructions: 150000003 cycles: 1374925524
CPU 0 Branch Prediction Accuracy: 94.9% MPKI: 10.6 Average ROB Occupancy at Mispredict: 84.94
Branch type MPKI
BRANCH_DIRECT_JUMP: 0.923
BRANCH_INDIRECT: 0.128
BRANCH_CONDITIONAL: 8.42
BRANCH_DIRECT_CALL: 0.00016
BRANCH_INDIRECT_CALL: 0.734
BRANCH_RETURN: 0.399


CPU 1 cumulative IPC: 0.6892 instructions: 947592994 cycles: 1374925524
CPU 1 Branch Prediction Accuracy: 99.85% MPKI: 0.001798 Average ROB Occupancy at Mispredict: 349
Branch type MPKI
BRANCH_DIRECT_JUMP: 1.06e-06
BRANCH_INDIRECT: 5.28e-06
BRANCH_CONDITIONAL: 0.00179
BRANCH_DIRECT_CALL: 0
BRANCH_INDIRECT_CALL: 0
BRANCH_RETURN: 0


CPU 2 cumulative IPC: 0.9599 instructions: 1319771810 cycles: 1374925524
CPU 2 Branch Prediction Accuracy: 91.03% MPKI: 10.46 Average ROB Occupancy at Mispredict: 102.8
Branch type MPKI
BRANCH_DIRECT_JUMP: 0.0473
BRANCH_INDIRECT: 0
BRANCH_CONDITIONAL: 6.08
BRANCH_DIRECT_CALL: 6.06e-06
BRANCH_INDIRECT_CALL: 0
BRANCH_RETURN: 4.34


CPU 3 cumulative IPC: 0.1198 instructions: 164780390 cycles: 1374925524
CPU 3 Branch Prediction Accuracy: 90.36% MPKI: 23.83 Average ROB Occupancy at Mispredict: 18.99
Branch type MPKI
BRANCH_DIRECT_JUMP: 0.264
BRANCH_INDIRECT: 0
BRANCH_CONDITIONAL: 23.6
BRANCH_DIRECT_CALL: 0
BRANCH_INDIRECT_CALL: 0.000607
BRANCH_RETURN: 0

LLC TOTAL        ACCESS:    4865759 HIT:    1490100 MISS:    3375659
LLC LOAD         ACCESS:    1684722 HIT:     317287 MISS:    1367435
LLC RFO          ACCESS:     258184 HIT:      70689 MISS:     187495
LLC PREFETCH     ACCESS:    1359846 HIT:     268853 MISS:    1090993
LLC WRITE        ACCESS:     966543 HIT:     804774 MISS:     161769
LLC TRANSLATION  ACCESS:     596464 HIT:      28497 MISS:     567967
LLC PREFETCH REQUESTED:          0 ISSUED:          0 USEFUL:          0 USELESS:          0
LLC AVERAGE MISS LATENCY: 1376 cycles
LLC TOTAL        ACCESS:   35731611 HIT:   27901937 MISS:    7829674
LLC LOAD         ACCESS:    9352664 HIT:    4447636 MISS:    4905028
LLC RFO          ACCESS:      30291 HIT:      30291 MISS:          0
LLC PREFETCH     ACCESS:   25251046 HIT:   22415145 MISS:    2835901
LLC WRITE        ACCESS:     953230 HIT:     952981 MISS:        249
LLC TRANSLATION  ACCESS:     144380 HIT:      55884 MISS:      88496
LLC PREFETCH REQUESTED:          0 ISSUED:          0 USEFUL:          0 USELESS:          0
LLC AVERAGE MISS LATENCY: 1376 cycles
LLC TOTAL        ACCESS:   27108307 HIT:    6484984 MISS:   20623323
LLC LOAD         ACCESS:    2853543 HIT:    1055057 MISS:    1798486
LLC RFO          ACCESS:    2335181 HIT:      19873 MISS:    2315308
LLC PREFETCH     ACCESS:   19549677 HIT:    3102316 MISS:   16447361
LLC WRITE        ACCESS:    2334937 HIT:    2299166 MISS:      35771
LLC TRANSLATION  ACCESS:      34969 HIT:       8572 MISS:      26397
LLC PREFETCH REQUESTED:          0 ISSUED:          0 USEFUL:          0 USELESS:          0
LLC AVERAGE MISS LATENCY: 1376 cycles
LLC TOTAL        ACCESS:    7878668 HIT:    4204513 MISS:    3674155
LLC LOAD         ACCESS:    3057697 HIT:    1865499 MISS:    1192198
LLC RFO          ACCESS:     278400 HIT:     248996 MISS:      29404
LLC PREFETCH     ACCESS:    4093202 HIT:    1720086 MISS:    2373116
LLC WRITE        ACCESS:     434160 HIT:     363877 MISS:      70283
LLC TRANSLATION  ACCESS:      15209 HIT:       6055 MISS:       9154
LLC PREFETCH REQUESTED:          0 ISSUED:          0 USEFUL:          0 USELESS:          0
LLC AVERAGE MISS LATENCY: 1376 cycles
cpu0_DTLB TOTAL        ACCESS:   38364414 HIT:   35061671 MISS:    3302743
cpu0_DTLB LOAD         ACCESS:   38364414 HIT:   35061671 MISS:    3302743
cpu0_DTLB RFO          ACCESS:          0 HIT:          0 MISS:          0
cpu0_DTLB PREFETCH     ACCESS:          0 HIT:          0 MISS:          0
cpu0_DTLB WRITE        ACCESS:          0 HIT:          0 MISS:          0
cpu0_DTLB TRANSLATION  ACCESS:          0 HIT:          0 MISS:          0
cpu0_DTLB PREFETCH REQUESTED:          0 ISSUED:          0 USEFUL:          0 USELESS:          0
cpu0_DTLB AVERAGE MISS LATENCY: 305.4 cycles
cpu0_DTLB TOTAL        ACCESS:          0 HIT:          0 MISS:          0
cpu0_DTLB LOAD         ACCESS:          0 HIT:          0 MISS:          0
cpu0_DTLB RFO          ACCESS:          0 HIT:          0 MISS:          0
cpu0_DTLB PREFETCH     ACCESS:          0 HIT:          0 MISS:          0
cpu0_DTLB WRITE        ACCESS:          0 HIT:          0 MISS:          0
cpu0_DTLB TRANSLATION  ACCESS:          0 HIT:          0 MISS:          0
cpu0_DTLB PREFETCH REQUESTED:          0 ISSUED:          0 USEFUL:          0 USELESS:          0
cpu0_DTLB AVERAGE MISS LATENCY: 305.4 cycles
cpu0_DTLB TOTAL        ACCESS:          0 HIT:          0 MISS:          0
cpu0_DTLB LOAD         ACCESS:          0 HIT:          0 MISS:          0
cpu0_DTLB RFO          ACCESS:          0 HIT:          0 MISS:          0
cpu0_DTLB PREFETCH     ACCESS:          0 HIT:          0 MISS:          0
cpu0_DTLB WRITE        ACCESS:          0 HIT:          0 MISS:          0
cpu0_DTLB TRANSLATION  ACCESS:          0 HIT:          0 MISS:          0
cpu0_DTLB PREFETCH REQUESTED:          0 ISSUED:          0 USEFUL:          0 USELESS:          0
cpu0_DTLB AVERAGE MISS LATENCY: 305.4 cycles
cpu0_DTLB TOTAL        ACCESS:          0 HIT:          0 MISS:          0
cpu0_DTLB LOAD         ACCESS:          0 HIT:          0 MISS:          0
cpu0_DTLB RFO          ACCESS:          0 HIT:          0 MISS:          0
cpu0_DTLB PREFETCH     ACCESS:          0 HIT:          0 MISS:          0
cpu0_DTLB WRITE        ACCESS:          0 HIT:          0 MISS:          0
cpu0_DTLB TRANSLATION  ACCESS:          0 HIT:          0 MISS:          0
cpu0_DTLB PREFETCH REQUESTED:          0 ISSUED:          0 USEFUL:          0 USELESS:          0
cpu0_DTLB AVERAGE MISS LATENCY: 305.4 cycles
cpu0_ITLB TOTAL        ACCESS:   10807156 HIT:   10535226 MISS:     271930
cpu0_ITLB LOAD         ACCESS:   10807156 HIT:   10535226 MISS:     271930
cpu0_ITLB RFO          ACCESS:          0 HIT:          0 MISS:          0
cpu0_ITLB PREFETCH     ACCESS:          0 HIT:          0 MISS:          0
cpu0_ITLB WRITE        ACCESS:          0 HIT:          0 MISS:          0
cpu0_ITLB TRANSLATION  ACCESS:          0 HIT:          0 MISS:          0
cpu0_ITLB PREFETCH REQUESTED:          0 ISSUED:          0 USEFUL:          0 USELESS:          0
cpu0_ITLB AVERAGE MISS LATENCY: 21.92 cycles
cpu0_ITLB TOTAL        ACCESS:          0 HIT:          0 MISS:          0
cpu0_ITLB LOAD         ACCESS:          0 HIT:          0 MISS:          0
cpu0_ITLB RFO          ACCESS:          0 HIT:          0 MISS:          0
cpu0_ITLB PREFETCH     ACCESS:          0 HIT:          0 MISS:          0
cpu0_ITLB WRITE        ACCESS:          0 HIT:          0 MISS:          0
cpu0_ITLB TRANSLATION  ACCESS:          0 HIT:          0 MISS:          0
cpu0_ITLB PREFETCH REQUESTED:          0 ISSUED:          0 USEFUL:          0 USELESS:          0
cpu0_ITLB AVERAGE MISS LATENCY: 21.92 cycles
cpu0_ITLB TOTAL        ACCESS:          0 HIT:          0 MISS:          0
cpu0_ITLB LOAD         ACCESS:          0 HIT:          0 MISS:          0
cpu0_ITLB RFO          ACCESS:          0 HIT:          0 MISS:          0
cpu0_ITLB PREFETCH     ACCESS:          0 HIT:          0 MISS:          0
cpu0_ITLB WRITE        ACCESS:          0 HIT:          0 MISS:          0
cpu0_ITLB TRANSLATION  ACCESS:          0 HIT:          0 MISS:          0
cpu0_ITLB PREFETCH REQUESTED:          0 ISSUED:          0 USEFUL:          0 USELESS:          0
cpu0_ITLB AVERAGE MISS LATENCY: 21.92 cycles
cpu0_ITLB TOTAL        ACCESS:          0 HIT:          0 MISS:          0
cpu0_ITLB LOAD         ACCESS:          0 HIT:          0 MISS:          0
cpu0_ITLB RFO          ACCESS:          0 HIT:          0 MISS:          0
cpu0_ITLB PREFETCH     ACCESS:          0 HIT:          0 MISS:          0
cpu0_ITLB WRITE        ACCESS:          0 HIT:          0 MISS:          0
cpu0_ITLB TRANSLATION  ACCESS:          0 HIT:          0 MISS:          0
cpu0_ITLB PREFETCH REQUESTED:          0 ISSUED:          0 USEFUL:          0 USELESS:          0
cpu0_ITLB AVERAGE MISS LATENCY: 21.92 cycles
cpu0_L1D TOTAL        ACCESS:   49899028 HIT:   44945707 MISS:    4953321
cpu0_L1D LOAD         ACCESS:   23031327 HIT:   19944339 MISS:    3086988
cpu0_L1D RFO          ACCESS:          0 HIT:          0 MISS:          0
cpu0_L1D PREFETCH     ACCESS:          0 HIT:          0 MISS:          0
cpu0_L1D WRITE        ACCESS:   25976545 HIT:   24856163 MISS:    1120382
cpu0_L1D TRANSLATION  ACCESS:     891156 HIT:     145205 MISS:     745951
cpu0_L1D PREFETCH REQUESTED:          0 ISSUED:          0 USEFUL:          0 USELESS:          0
cpu0_L1D AVERAGE MISS LATENCY: 753.3 cycles
cpu0_L1D TOTAL        ACCESS:          0 HIT:          0 MISS:          0
cpu0_L1D LOAD         ACCESS:          0 HIT:          0 MISS:          0
cpu0_L1D RFO          ACCESS:          0 HIT:          0 MISS:          0
cpu0_L1D PREFETCH     ACCESS:          0 HIT:          0 MISS:          0
cpu0_L1D WRITE        ACCESS:          0 HIT:          0 MISS:          0
cpu0_L1D TRANSLATION  ACCESS:          0 HIT:          0 MISS:          0
cpu0_L1D PREFETCH REQUESTED:          0 ISSUED:          0 USEFUL:          0 USELESS:          0
cpu0_L1D AVERAGE MISS LATENCY: 753.3 cycles
cpu0_L1D TOTAL        ACCESS:          0 HIT:          0 MISS:          0
cpu0_L1D LOAD         ACCESS:          0 HIT:          0 MISS:          0
cpu0_L1D RFO          ACCESS:          0 HIT:          0 MISS:          0
cpu0_L1D PREFETCH     ACCESS:          0 HIT:          0 MISS:          0
cpu0_L1D WRITE        ACCESS:          0 HIT:          0 MISS:          0
cpu0_L1D TRANSLATION  ACCESS:          0 HIT:          0 MISS:          0
cpu0_L1D PREFETCH REQUESTED:          0 ISSUED:          0 USEFUL:          0 USELESS:          0
cpu0_L1D AVERAGE MISS LATENCY: 753.3 cycles
cpu0_L1D TOTAL        ACCESS:          0 HIT:          0 MISS:          0
cpu0_L1D LOAD         ACCESS:          0 HIT:          0 MISS:          0
cpu0_L1D RFO          ACCESS:          0 HIT:          0 MISS:          0
cpu0_L1D PREFETCH     ACCESS:          0 HIT:          0 MISS:          0
cpu0_L1D WRITE        ACCESS:          0 HIT:          0 MISS:          0
cpu0_L1D TRANSLATION  ACCESS:          0 HIT:          0 MISS:          0
cpu0_L1D PREFETCH REQUESTED:          0 ISSUED:          0 USEFUL:          0 USELESS:          0
cpu0_L1D AVERAGE MISS LATENCY: 753.3 cycles
cpu0_L1I TOTAL        ACCESS:   12886125 HIT:   12812198 MISS:      73927
cpu0_L1I LOAD         ACCESS:   12886125 HIT:   12812198 MISS:      73927
cpu0_L1I RFO          ACCESS:          0 HIT:          0 MISS:          0
cpu0_L1I PREFETCH     ACCESS:          0 HIT:          0 MISS:          0
cpu0_L1I WRITE        ACCESS:          0 HIT:          0 MISS:          0
cpu0_L1I TRANSLATION  ACCESS:          0 HIT:          0 MISS:          0
cpu0_L1I PREFETCH REQUESTED:          0 ISSUED:          0 USEFUL:          0 USELESS:          0
cpu0_L1I AVERAGE MISS LATENCY: 163.4 cycles
cpu0_L1I TOTAL        ACCESS:          0 HIT:          0 MISS:          0
cpu0_L1I LOAD         ACCESS:          0 HIT:          0 MISS:          0
cpu0_L1I RFO          ACCESS:          0 HIT:          0 MISS:          0
cpu0_L1I PREFETCH     ACCESS:          0 HIT:          0 MISS:          0
cpu0_L1I WRITE        ACCESS:          0 HIT:          0 MISS:          0
cpu0_L1I TRANSLATION  ACCESS:          0 HIT:          0 MISS:          0
cpu0_L1I PREFETCH REQUESTED:          0 ISSUED:          0 USEFUL:          0 USELESS:          0
cpu0_L1I AVERAGE MISS LATENCY: 163.4 cycles
cpu0_L1I TOTAL        ACCESS:          0 HIT:          0 MISS:          0
cpu0_L1I LOAD         ACCESS:          0 HIT:          0 MISS:          0
cpu0_L1I RFO          ACCESS:          0 HIT:          0 MISS:          0
cpu0_L1I PREFETCH     ACCESS:          0 HIT:          0 MISS:          0
cpu0_L1I WRITE        ACCESS:          0 HIT:          0 MISS:          0
cpu0_L1I TRANSLATION  ACCESS:          0 HIT:          0 MISS:          0
cpu0_L1I PREFETCH REQUESTED:          0 ISSUED:          0 USEFUL:          0 USELESS:          0
cpu0_L1I AVERAGE MISS LATENCY: 163.4 cycles
cpu0_L1I TOTAL        ACCESS:          0 HIT:          0 MISS:          0
cpu0_L1I LOAD         ACCESS:          0 HIT:          0 MISS:          0
cpu0_L1I RFO          ACCESS:          0 HIT:          0 MISS:          0
cpu0_L1I PREFETCH     ACCESS:          0 HIT:          0 MISS:          0
cpu0_L1I WRITE        ACCESS:          0 HIT:          0 MISS:          0
cpu0_L1I TRANSLATION  ACCESS:          0 HIT:          0 MISS:          0
cpu0_L1I PREFETCH REQUESTED:          0 ISSUED:          0 USEFUL:          0 USELESS:          0
cpu0_L1I AVERAGE MISS LATENCY: 163.4 cycles
cpu0_L2C TOTAL        ACCESS:    7121105 HIT:    2821928 MISS:    4299177
cpu0_L2C LOAD         ACCESS:    2539790 HIT:     852584 MISS:    1687206
cpu0_L2C RFO          ACCESS:     365176 HIT:     106906 MISS:     258270
cpu0_L2C PREFETCH     ACCESS:    2073477 HIT:     318636 MISS:    1754841
cpu0_L2C WRITE        ACCESS:    1397500 HIT:    1395104 MISS:       2396
cpu0_L2C TRANSLATION  ACCESS:     745162 HIT:     148698 MISS:     596464
cpu0_L2C PREFETCH REQUESTED:    2073478 ISSUED:    2073478 USEFUL:       5156 USELESS:      18189
cpu0_L2C AVERAGE MISS LATENCY: 888.7 cycles
cpu0_L2C TOTAL        ACCESS:          0 HIT:          0 MISS:          0
cpu0_L2C LOAD         ACCESS:          0 HIT:          0 MISS:          0
cpu0_L2C RFO          ACCESS:          0 HIT:          0 MISS:          0
cpu0_L2C PREFETCH     ACCESS:          0 HIT:          0 MISS:          0
cpu0_L2C WRITE        ACCESS:          0 HIT:          0 MISS:          0
cpu0_L2C TRANSLATION  ACCESS:          0 HIT:          0 MISS:          0
cpu0_L2C PREFETCH REQUESTED:    2073478 ISSUED:    2073478 USEFUL:       5156 USELESS:      18189
cpu0_L2C AVERAGE MISS LATENCY: 888.7 cycles
cpu0_L2C TOTAL        ACCESS:          0 HIT:          0 MISS:          0
cpu0_L2C LOAD         ACCESS:          0 HIT:          0 MISS:          0
cpu0_L2C RFO          ACCESS:          0 HIT:          0 MISS:          0
cpu0_L2C PREFETCH     ACCESS:          0 HIT:          0 MISS:          0
cpu0_L2C WRITE        ACCESS:          0 HIT:          0 MISS:          0
cpu0_L2C TRANSLATION  ACCESS:          0 HIT:          0 MISS:          0
cpu0_L2C PREFETCH REQUESTED:    2073478 ISSUED:    2073478 USEFUL:       5156 USELESS:      18189
cpu0_L2C AVERAGE MISS LATENCY: 888.7 cycles
cpu0_L2C TOTAL        ACCESS:          0 HIT:          0 MISS:          0
cpu0_L2C LOAD         ACCESS:          0 HIT:          0 MISS:          0
cpu0_L2C RFO          ACCESS:          0 HIT:          0 MISS:          0
cpu0_L2C PREFETCH     ACCESS:          0 HIT:          0 MISS:          0
cpu0_L2C WRITE        ACCESS:          0 HIT:          0 MISS:          0
cpu0_L2C TRANSLATION  ACCESS:          0 HIT:          0 MISS:          0
cpu0_L2C PREFETCH REQUESTED:    2073478 ISSUED:    2073478 USEFUL:       5156 USELESS:      18189
cpu0_L2C AVERAGE MISS LATENCY: 888.7 cycles
cpu0_STLB TOTAL        ACCESS:    3014790 HIT:    2372364 MISS:     642426
cpu0_STLB LOAD         ACCESS:    3014790 HIT:    2372364 MISS:     642426
cpu0_STLB RFO          ACCESS:          0 HIT:          0 MISS:          0
cpu0_STLB PREFETCH     ACCESS:          0 HIT:          0 MISS:          0
cpu0_STLB WRITE        ACCESS:          0 HIT:          0 MISS:          0
cpu0_STLB TRANSLATION  ACCESS:          0 HIT:          0 MISS:          0
cpu0_STLB PREFETCH REQUESTED:          0 ISSUED:          0 USEFUL:          0 USELESS:          0
cpu0_STLB AVERAGE MISS LATENCY: 1577 cycles
cpu0_STLB TOTAL        ACCESS:          0 HIT:          0 MISS:          0
cpu0_STLB LOAD         ACCESS:          0 HIT:          0 MISS:          0
cpu0_STLB RFO          ACCESS:          0 HIT:          0 MISS:          0
cpu0_STLB PREFETCH     ACCESS:          0 HIT:          0 MISS:          0
cpu0_STLB WRITE        ACCESS:          0 HIT:          0 MISS:          0
cpu0_STLB TRANSLATION  ACCESS:          0 HIT:          0 MISS:          0
cpu0_STLB PREFETCH REQUESTED:          0 ISSUED:          0 USEFUL:          0 USELESS:          0
cpu0_STLB AVERAGE MISS LATENCY: 1577 cycles
cpu0_STLB TOTAL        ACCESS:          0 HIT:          0 MISS:          0
cpu0_STLB LOAD         ACCESS:          0 HIT:          0 MISS:          0
cpu0_STLB RFO          ACCESS:          0 HIT:          0 MISS:          0
cpu0_STLB PREFETCH     ACCESS:          0 HIT:          0 MISS:          0
cpu0_STLB WRITE        ACCESS:          0 HIT:          0 MISS:          0
cpu0_STLB TRANSLATION  ACCESS:          0 HIT:          0 MISS:          0
cpu0_STLB PREFETCH REQUESTED:          0 ISSUED:          0 USEFUL:          0 USELESS:          0
cpu0_STLB AVERAGE MISS LATENCY: 1577 cycles
cpu0_STLB TOTAL        ACCESS:          0 HIT:          0 MISS:          0
cpu0_STLB LOAD         ACCESS:          0 HIT:          0 MISS:          0
cpu0_STLB RFO          ACCESS:          0 HIT:          0 MISS:          0
cpu0_STLB PREFETCH     ACCESS:          0 HIT:          0 MISS:          0
cpu0_STLB WRITE        ACCESS:          0 HIT:          0 MISS:          0
cpu0_STLB TRANSLATION  ACCESS:          0 HIT:          0 MISS:          0
cpu0_STLB PREFETCH REQUESTED:          0 ISSUED:          0 USEFUL:          0 USELESS:          0
cpu0_STLB AVERAGE MISS LATENCY: 1577 cycles
cpu1_DTLB TOTAL        ACCESS:          0 HIT:          0 MISS:          0
cpu1_DTLB LOAD         ACCESS:          0 HIT:          0 MISS:          0
cpu1_DTLB RFO          ACCESS:          0 HIT:          0 MISS:          0
cpu1_DTLB PREFETCH     ACCESS:          0 HIT:          0 MISS:          0
cpu1_DTLB WRITE        ACCESS:          0 HIT:          0 MISS:          0
cpu1_DTLB TRANSLATION  ACCESS:          0 HIT:          0 MISS:          0
cpu1_DTLB PREFETCH REQUESTED:          0 ISSUED:          0 USEFUL:          0 USELESS:          0
cpu1_DTLB AVERAGE MISS LATENCY: 8.994 cycles
cpu1_DTLB TOTAL        ACCESS:  200649812 HIT:  117499693 MISS:   83150119
cpu1_DTLB LOAD         ACCESS:  200649812 HIT:  117499693 MISS:   83150119
cpu1_DTLB RFO          ACCESS:          0 HIT:          0 MISS:          0
cpu1_DTLB PREFETCH     ACCESS:          0 HIT:          0 MISS:          0
cpu1_DTLB WRITE        ACCESS:          0 HIT:          0 MISS:          0
cpu1_DTLB TRANSLATION  ACCESS:          0 HIT:          0 MISS:          0
cpu1_DTLB PREFETCH REQUESTED:          0 ISSUED:          0 USEFUL:          0 USELESS:          0
cpu1_DTLB AVERAGE MISS LATENCY: 8.994 cycles
cpu1_DTLB TOTAL        ACCESS:          0 HIT:          0 MISS:          0
cpu1_DTLB LOAD         ACCESS:          0 HIT:          0 MISS:          0
cpu1_DTLB RFO          ACCESS:          0 HIT:          0 MISS:          0
cpu1_DTLB PREFETCH     ACCESS:          0 HIT:          0 MISS:          0
cpu1_DTLB WRITE        ACCESS:          0 HIT:          0 MISS:          0
cpu1_DTLB TRANSLATION  ACCESS:          0 HIT:          0 MISS:          0
cpu1_DTLB PREFETCH REQUESTED:          0 ISSUED:          0 USEFUL:          0 USELESS:          0
cpu1_DTLB AVERAGE MISS LATENCY: 8.994 cycles
cpu1_DTLB TOTAL        ACCESS:          0 HIT:          0 MISS:          0
cpu1_DTLB LOAD         ACCESS:          0 HIT:          0 MISS:          0
cpu1_DTLB RFO          ACCESS:          0 HIT:          0 MISS:          0
cpu1_DTLB PREFETCH     ACCESS:          0 HIT:          0 MISS:          0
cpu1_DTLB WRITE        ACCESS:          0 HIT:          0 MISS:          0
cpu1_DTLB TRANSLATION  ACCESS:          0 HIT:          0 MISS:          0
cpu1_DTLB PREFETCH REQUESTED:          0 ISSUED:          0 USEFUL:          0 USELESS:          0
cpu1_DTLB AVERAGE MISS LATENCY: 8.994 cycles
cpu1_ITLB TOTAL        ACCESS:          0 HIT:          0 MISS:          0
cpu1_ITLB LOAD         ACCESS:          0 HIT:          0 MISS:          0
cpu1_ITLB RFO          ACCESS:          0 HIT:          0 MISS:          0
cpu1_ITLB PREFETCH     ACCESS:          0 HIT:          0 MISS:          0
cpu1_ITLB WRITE        ACCESS:          0 HIT:          0 MISS:          0
cpu1_ITLB TRANSLATION  ACCESS:          0 HIT:          0 MISS:          0
cpu1_ITLB PREFETCH REQUESTED:          0 ISSUED:          0 USEFUL:          0 USELESS:          0
cpu1_ITLB AVERAGE MISS LATENCY: -nan cycles
cpu1_ITLB TOTAL        ACCESS:  123791575 HIT:  123791575 MISS:          0
cpu1_ITLB LOAD         ACCESS:  123791575 HIT:  123791575 MISS:          0
cpu1_ITLB RFO          ACCESS:          0 HIT:          0 MISS:          0
cpu1_ITLB PREFETCH     ACCESS:          0 HIT:          0 MISS:          0
cpu1_ITLB WRITE        ACCESS:          0 HIT:          0 MISS:          0
cpu1_ITLB TRANSLATION  ACCESS:          0 HIT:          0 MISS:          0
cpu1_ITLB PREFETCH REQUESTED:          0 ISSUED:          0 USEFUL:          0 USELESS:          0
cpu1_ITLB AVERAGE MISS LATENCY: -nan cycles
cpu1_ITLB TOTAL        ACCESS:          0 HIT:          0 MISS:          0
cpu1_ITLB LOAD         ACCESS:          0 HIT:          0 MISS:          0
cpu1_ITLB RFO          ACCESS:          0 HIT:          0 MISS:          0
cpu1_ITLB PREFETCH     ACCESS:          0 HIT:          0 MISS:          0
cpu1_ITLB WRITE        ACCESS:          0 HIT:          0 MISS:          0
cpu1_ITLB TRANSLATION  ACCESS:          0 HIT:          0 MISS:          0
cpu1_ITLB PREFETCH REQUESTED:          0 ISSUED:          0 USEFUL:          0 USELESS:          0
cpu1_ITLB AVERAGE MISS LATENCY: -nan cycles
cpu1_ITLB TOTAL        ACCESS:          0 HIT:          0 MISS:          0
cpu1_ITLB LOAD         ACCESS:          0 HIT:          0 MISS:          0
cpu1_ITLB RFO          ACCESS:          0 HIT:          0 MISS:          0
cpu1_ITLB PREFETCH     ACCESS:          0 HIT:          0 MISS:          0
cpu1_ITLB WRITE        ACCESS:          0 HIT:          0 MISS:          0
cpu1_ITLB TRANSLATION  ACCESS:          0 HIT:          0 MISS:          0
cpu1_ITLB PREFETCH REQUESTED:          0 ISSUED:          0 USEFUL:          0 USELESS:          0
cpu1_ITLB AVERAGE MISS LATENCY: -nan cycles
cpu1_L1D TOTAL        ACCESS:          0 HIT:          0 MISS:          0
cpu1_L1D LOAD         ACCESS:          0 HIT:          0 MISS:          0
cpu1_L1D RFO          ACCESS:          0 HIT:          0 MISS:          0
cpu1_L1D PREFETCH     ACCESS:          0 HIT:          0 MISS:          0
cpu1_L1D WRITE        ACCESS:          0 HIT:          0 MISS:          0
cpu1_L1D TRANSLATION  ACCESS:          0 HIT:          0 MISS:          0
cpu1_L1D PREFETCH REQUESTED:          0 ISSUED:          0 USEFUL:          0 USELESS:          0
cpu1_L1D AVERAGE MISS LATENCY: 128.9 cycles
cpu1_L1D TOTAL        ACCESS:  247240668 HIT:  137008582 MISS:  110232086
cpu1_L1D LOAD         ACCESS:  138797176 HIT:   34405956 MISS:  104391220
cpu1_L1D RFO          ACCESS:          0 HIT:          0 MISS:          0
cpu1_L1D PREFETCH     ACCESS:          0 HIT:          0 MISS:          0
cpu1_L1D WRITE        ACCESS:  108263987 HIT:  102601056 MISS:    5662931
cpu1_L1D TRANSLATION  ACCESS:     179505 HIT:       1570 MISS:     177935
cpu1_L1D PREFETCH REQUESTED:          0 ISSUED:          0 USEFUL:          0 USELESS:          0
cpu1_L1D AVERAGE MISS LATENCY: 128.9 cycles
cpu1_L1D TOTAL        ACCESS:          0 HIT:          0 MISS:          0
cpu1_L1D LOAD         ACCESS:          0 HIT:          0 MISS:          0
cpu1_L1D RFO          ACCESS:          0 HIT:          0 MISS:          0
cpu1_L1D PREFETCH     ACCESS:          0 HIT:          0 MISS:          0
cpu1_L1D WRITE        ACCESS:          0 HIT:          0 MISS:          0
cpu1_L1D TRANSLATION  ACCESS:          0 HIT:          0 MISS:          0
cpu1_L1D PREFETCH REQUESTED:          0 ISSUED:          0 USEFUL:          0 USELESS:          0
cpu1_L1D AVERAGE MISS LATENCY: 128.9 cycles
cpu1_L1D TOTAL        ACCESS:          0 HIT:          0 MISS:          0
cpu1_L1D LOAD         ACCESS:          0 HIT:          0 MISS:          0
cpu1_L1D RFO          ACCESS:          0 HIT:          0 MISS:          0
cpu1_L1D PREFETCH     ACCESS:          0 HIT:          0 MISS:          0
cpu1_L1D WRITE        ACCESS:          0 HIT:          0 MISS:          0
cpu1_L1D TRANSLATION  ACCESS:          0 HIT:          0 MISS:          0
cpu1_L1D PREFETCH REQUESTED:          0 ISSUED:          0 USEFUL:          0 USELESS:          0
cpu1_L1D AVERAGE MISS LATENCY: 128.9 cycles
cpu1_L1I TOTAL        ACCESS:          0 HIT:          0 MISS:          0
cpu1_L1I LOAD         ACCESS:          0 HIT:          0 MISS:          0
cpu1_L1I RFO          ACCESS:          0 HIT:          0 MISS:          0
cpu1_L1I PREFETCH     ACCESS:          0 HIT:          0 MISS:          0
cpu1_L1I WRITE        ACCESS:          0 HIT:          0 MISS:          0
cpu1_L1I TRANSLATION  ACCESS:          0 HIT:          0 MISS:          0
cpu1_L1I PREFETCH REQUESTED:          0 ISSUED:          0 USEFUL:          0 USELESS:          0
cpu1_L1I AVERAGE MISS LATENCY: -nan cycles
cpu1_L1I TOTAL        ACCESS:  162518469 HIT:  162518469 MISS:          0
cpu1_L1I LOAD         ACCESS:  162518469 HIT:  162518469 MISS:          0
cpu1_L1I RFO          ACCESS:          0 HIT:          0 MISS:          0
cpu1_L1I PREFETCH     ACCESS:          0 HIT:          0 MISS:          0
cpu1_L1I WRITE        ACCESS:          0 HIT:          0 MISS:          0
cpu1_L1I TRANSLATION  ACCESS:          0 HIT:          0 MISS:          0
cpu1_L1I PREFETCH REQUESTED:          0 ISSUED:          0 USEFUL:          0 USELESS:          0
cpu1_L1I AVERAGE MISS LATENCY: -nan cycles
cpu1_L1I TOTAL        ACCESS:          0 HIT:          0 MISS:          0
cpu1_L1I LOAD         ACCESS:          0 HIT:          0 MISS:          0
cpu1_L1I RFO          ACCESS:          0 HIT:          0 MISS:          0
cpu1_L1I PREFETCH     ACCESS:          0 HIT:          0 MISS:          0
cpu1_L1I WRITE        ACCESS:          0 HIT:          0 MISS:          0
cpu1_L1I TRANSLATION  ACCESS:          0 HIT:          0 MISS:          0
cpu1_L1I PREFETCH REQUESTED:          0 ISSUED:          0 USEFUL:          0 USELESS:          0
cpu1_L1I AVERAGE MISS LATENCY: -nan cycles
cpu1_L1I TOTAL        ACCESS:          0 HIT:          0 MISS:          0
cpu1_L1I LOAD         ACCESS:          0 HIT:          0 MISS:          0
cpu1_L1I RFO          ACCESS:          0 HIT:          0 MISS:          0
cpu1_L1I PREFETCH     ACCESS:          0 HIT:          0 MISS:          0
cpu1_L1I WRITE        ACCESS:          0 HIT:          0 MISS:          0
cpu1_L1I TRANSLATION  ACCESS:          0 HIT:          0 MISS:          0
cpu1_L1I PREFETCH REQUESTED:          0 ISSUED:          0 USEFUL:          0 USELESS:          0
cpu1_L1I AVERAGE MISS LATENCY: -nan cycles
cpu1_L2C TOTAL        ACCESS:          0 HIT:          0 MISS:          0
cpu1_L2C LOAD         ACCESS:          0 HIT:          0 MISS:          0
cpu1_L2C RFO          ACCESS:          0 HIT:          0 MISS:          0
cpu1_L2C PREFETCH     ACCESS:          0 HIT:          0 MISS:          0
cpu1_L2C WRITE        ACCESS:          0 HIT:          0 MISS:          0
cpu1_L2C TRANSLATION  ACCESS:          0 HIT:          0 MISS:          0
cpu1_L2C PREFETCH REQUESTED:   82352058 ISSUED:   82167512 USEFUL:      93682 USELESS:      17214
cpu1_L2C AVERAGE MISS LATENCY: 351.9 cycles
cpu1_L2C TOTAL        ACCESS:  198035931 HIT:  160459226 MISS:   37576705
cpu1_L2C LOAD         ACCESS:  103234684 HIT:   93878886 MISS:    9355798
cpu1_L2C RFO          ACCESS:    4228175 HIT:    4197550 MISS:      30625
cpu1_L2C PREFETCH     ACCESS:   82167509 HIT:   54121623 MISS:   28045886
cpu1_L2C WRITE        ACCESS:    8227755 HIT:    8227739 MISS:         16
cpu1_L2C TRANSLATION  ACCESS:     177808 HIT:      33428 MISS:     144380
cpu1_L2C PREFETCH REQUESTED:   82352058 ISSUED:   82167512 USEFUL:      93682 USELESS:      17214
cpu1_L2C AVERAGE MISS LATENCY: 351.9 cycles
cpu1_L2C TOTAL        ACCESS:          0 HIT:          0 MISS:          0
cpu1_L2C LOAD         ACCESS:          0 HIT:          0 MISS:          0
cpu1_L2C RFO          ACCESS:          0 HIT:          0 MISS:          0
cpu1_L2C PREFETCH     ACCESS:          0 HIT:          0 MISS:          0
cpu1_L2C WRITE        ACCESS:          0 HIT:          0 MISS:          0
cpu1_L2C TRANSLATION  ACCESS:          0 HIT:          0 MISS:          0
cpu1_L2C PREFETCH REQUESTED:   82352058 ISSUED:   82167512 USEFUL:      93682 USELESS:      17214
cpu1_L2C AVERAGE MISS LATENCY: 351.9 cycles
cpu1_L2C TOTAL        ACCESS:          0 HIT:          0 MISS:          0
cpu1_L2C LOAD         ACCESS:          0 HIT:          0 MISS:          0
cpu1_L2C RFO          ACCESS:          0 HIT:          0 MISS:          0
cpu1_L2C PREFETCH     ACCESS:          0 HIT:          0 MISS:          0
cpu1_L2C WRITE        ACCESS:          0 HIT:          0 MISS:          0
cpu1_L2C TRANSLATION  ACCESS:          0 HIT:          0 MISS:          0
cpu1_L2C PREFETCH REQUESTED:   82352058 ISSUED:   82167512 USEFUL:      93682 USELESS:      17214
cpu1_L2C AVERAGE MISS LATENCY: 351.9 cycles
cpu1_STLB TOTAL        ACCESS:          0 HIT:          0 MISS:          0
cpu1_STLB LOAD         ACCESS:          0 HIT:          0 MISS:          0
cpu1_STLB RFO          ACCESS:          0 HIT:          0 MISS:          0
cpu1_STLB PREFETCH     ACCESS:          0 HIT:          0 MISS:          0
cpu1_STLB WRITE        ACCESS:          0 HIT:          0 MISS:          0
cpu1_STLB TRANSLATION  ACCESS:          0 HIT:          0 MISS:          0
cpu1_STLB PREFETCH REQUESTED:          0 ISSUED:          0 USEFUL:          0 USELESS:          0
cpu1_STLB AVERAGE MISS LATENCY: 2055 cycles
cpu1_STLB TOTAL        ACCESS:   71494483 HIT:   71379033 MISS:     115450
cpu1_STLB LOAD         ACCESS:   71494483 HIT:   71379033 MISS:     115450
cpu1_STLB RFO          ACCESS:          0 HIT:          0 MISS:          0
cpu1_STLB PREFETCH     ACCESS:          0 HIT:          0 MISS:          0
cpu1_STLB WRITE        ACCESS:          0 HIT:          0 MISS:          0
cpu1_STLB TRANSLATION  ACCESS:          0 HIT:          0 MISS:          0
cpu1_STLB PREFETCH REQUESTED:          0 ISSUED:          0 USEFUL:          0 USELESS:          0
cpu1_STLB AVERAGE MISS LATENCY: 2055 cycles
cpu1_STLB TOTAL        ACCESS:          0 HIT:          0 MISS:          0
cpu1_STLB LOAD         ACCESS:          0 HIT:          0 MISS:          0
cpu1_STLB RFO          ACCESS:          0 HIT:          0 MISS:          0
cpu1_STLB PREFETCH     ACCESS:          0 HIT:          0 MISS:          0
cpu1_STLB WRITE        ACCESS:          0 HIT:          0 MISS:          0
cpu1_STLB TRANSLATION  ACCESS:          0 HIT:          0 MISS:          0
cpu1_STLB PREFETCH REQUESTED:          0 ISSUED:          0 USEFUL:          0 USELESS:          0
cpu1_STLB AVERAGE MISS LATENCY: 2055 cycles
cpu1_STLB TOTAL        ACCESS:          0 HIT:          0 MISS:          0
cpu1_STLB LOAD         ACCESS:          0 HIT:          0 MISS:          0
cpu1_STLB RFO          ACCESS:          0 HIT:          0 MISS:          0
cpu1_STLB PREFETCH     ACCESS:          0 HIT:          0 MISS:          0
cpu1_STLB WRITE        ACCESS:          0 HIT:          0 MISS:          0
cpu1_STLB TRANSLATION  ACCESS:          0 HIT:          0 MISS:          0
cpu1_STLB PREFETCH REQUESTED:          0 ISSUED:          0 USEFUL:          0 USELESS:          0
cpu1_STLB AVERAGE MISS LATENCY: 2055 cycles
cpu2_DTLB TOTAL        ACCESS:          0 HIT:          0 MISS:          0
cpu2_DTLB LOAD         ACCESS:          0 HIT:          0 MISS:          0
cpu2_DTLB RFO          ACCESS:          0 HIT:          0 MISS:          0
cpu2_DTLB PREFETCH     ACCESS:          0 HIT:          0 MISS:          0
cpu2_DTLB WRITE        ACCESS:          0 HIT:          0 MISS:          0
cpu2_DTLB TRANSLATION  ACCESS:          0 HIT:          0 MISS:          0
cpu2_DTLB PREFETCH REQUESTED:          0 ISSUED:          0 USEFUL:          0 USELESS:          0
cpu2_DTLB AVERAGE MISS LATENCY: 87.53 cycles
cpu2_DTLB TOTAL        ACCESS:          0 HIT:          0 MISS:          0
cpu2_DTLB LOAD         ACCESS:          0 HIT:          0 MISS:          0
cpu2_DTLB RFO          ACCESS:          0 HIT:          0 MISS:          0
cpu2_DTLB PREFETCH     ACCESS:          0 HIT:          0 MISS:          0
cpu2_DTLB WRITE        ACCESS:          0 HIT:          0 MISS:          0
cpu2_DTLB TRANSLATION  ACCESS:          0 HIT:          0 MISS:          0
cpu2_DTLB PREFETCH REQUESTED:          0 ISSUED:          0 USEFUL:          0 USELESS:          0
cpu2_DTLB AVERAGE MISS LATENCY: 87.53 cycles
cpu2_DTLB TOTAL        ACCESS:  188831549 HIT:  188106222 MISS:     725327
cpu2_DTLB LOAD         ACCESS:  188831549 HIT:  188106222 MISS:     725327
cpu2_DTLB RFO          ACCESS:          0 HIT:          0 MISS:          0
cpu2_DTLB PREFETCH     ACCESS:          0 HIT:          0 MISS:          0
cpu2_DTLB WRITE        ACCESS:          0 HIT:          0 MISS:          0
cpu2_DTLB TRANSLATION  ACCESS:          0 HIT:          0 MISS:          0
cpu2_DTLB PREFETCH REQUESTED:          0 ISSUED:          0 USEFUL:          0 USELESS:          0
cpu2_DTLB AVERAGE MISS LATENCY: 87.53 cycles
cpu2_DTLB TOTAL        ACCESS:          0 HIT:          0 MISS:          0
cpu2_DTLB LOAD         ACCESS:          0 HIT:          0 MISS:          0
cpu2_DTLB RFO          ACCESS:          0 HIT:          0 MISS:          0
cpu2_DTLB PREFETCH     ACCESS:          0 HIT:          0 MISS:          0
cpu2_DTLB WRITE        ACCESS:          0 HIT:          0 MISS:          0
cpu2_DTLB TRANSLATION  ACCESS:          0 HIT:          0 MISS:          0
cpu2_DTLB PREFETCH REQUESTED:          0 ISSUED:          0 USEFUL:          0 USELESS:          0
cpu2_DTLB AVERAGE MISS LATENCY: 87.53 cycles
cpu2_ITLB TOTAL        ACCESS:          0 HIT:          0 MISS:          0
cpu2_ITLB LOAD         ACCESS:          0 HIT:          0 MISS:          0
cpu2_ITLB RFO          ACCESS:          0 HIT:          0 MISS:          0
cpu2_ITLB PREFETCH     ACCESS:          0 HIT:          0 MISS:          0
cpu2_ITLB WRITE        ACCESS:          0 HIT:          0 MISS:          0
cpu2_ITLB TRANSLATION  ACCESS:          0 HIT:          0 MISS:          0
cpu2_ITLB PREFETCH REQUESTED:          0 ISSUED:          0 USEFUL:          0 USELESS:          0
cpu2_ITLB AVERAGE MISS LATENCY: 1247 cycles
cpu2_ITLB TOTAL        ACCESS:          0 HIT:          0 MISS:          0
cpu2_ITLB LOAD         ACCESS:          0 HIT:          0 MISS:          0
cpu2_ITLB RFO          ACCESS:          0 HIT:          0 MISS:          0
cpu2_ITLB PREFETCH     ACCESS:          0 HIT:          0 MISS:          0
cpu2_ITLB WRITE        ACCESS:          0 HIT:          0 MISS:          0
cpu2_ITLB TRANSLATION  ACCESS:          0 HIT:          0 MISS:          0
cpu2_ITLB PREFETCH REQUESTED:          0 ISSUED:          0 USEFUL:          0 USELESS:          0
cpu2_ITLB AVERAGE MISS LATENCY: 1247 cycles
cpu2_ITLB TOTAL        ACCESS:    3897544 HIT:    3897533 MISS:         11
cpu2_ITLB LOAD         ACCESS:    3897544 HIT:    3897533 MISS:         11
cpu2_ITLB RFO          ACCESS:          0 HIT:          0 MISS:          0
cpu2_ITLB PREFETCH     ACCESS:          0 HIT:          0 MISS:          0
cpu2_ITLB WRITE        ACCESS:          0 HIT:          0 MISS:          0
cpu2_ITLB TRANSLATION  ACCESS:          0 HIT:          0 MISS:          0
cpu2_ITLB PREFETCH REQUESTED:          0 ISSUED:          0 USEFUL:          0 USELESS:          0
cpu2_ITLB AVERAGE MISS LATENCY: 1247 cycles
cpu2_ITLB TOTAL        ACCESS:          0 HIT:          0 MISS:          0
cpu2_ITLB LOAD         ACCESS:          0 HIT:          0 MISS:          0
cpu2_ITLB RFO          ACCESS:          0 HIT:          0 MISS:          0
cpu2_ITLB PREFETCH     ACCESS:          0 HIT:          0 MISS:          0
cpu2_ITLB WRITE        ACCESS:          0 HIT:          0 MISS:          0
[...]
cpu2_L1I WRITE        ACCESS:          0 HIT:          0 MISS:          0
cpu2_L1I TRANSLATION  ACCESS:          0 HIT:          0 MISS:          0
cpu2_L1I PREFETCH REQUESTED:          0 ISSUED:          0 USEFUL:          0 USELESS:          0
cpu2_L1I AVERAGE MISS LATENCY: 937.5 cycles
cpu2_L1I TOTAL        ACCESS:          0 HIT:          0 MISS:          0
cpu2_L1I LOAD         ACCESS:          0 HIT:          0 MISS:          0
cpu2_L1I RFO          ACCESS:          0 HIT:          0 MISS:          0
cpu2_L1I PREFETCH     ACCESS:          0 HIT:          0 MISS:          0
cpu2_L1I WRITE        ACCESS:          0 HIT:          0 MISS:          0
cpu2_L1I TRANSLATION  ACCESS:          0 HIT:          0 MISS:          0
cpu2_L1I PREFETCH REQUESTED:          0 ISSUED:          0 USEFUL:          0 USELESS:          0
cpu2_L1I AVERAGE MISS LATENCY: 937.5 cycles
cpu2_L2C TOTAL        ACCESS:          0 HIT:          0 MISS:          0
cpu2_L2C LOAD         ACCESS:          0 HIT:          0 MISS:          0
cpu2_L2C RFO          ACCESS:          0 HIT:          0 MISS:          0
cpu2_L2C PREFETCH     ACCESS:          0 HIT:          0 MISS:          0
cpu2_L2C WRITE        ACCESS:          0 HIT:          0 MISS:          0
cpu2_L2C TRANSLATION  ACCESS:          0 HIT:          0 MISS:          0
cpu2_L2C PREFETCH REQUESTED:   26262140 ISSUED:   24155668 USEFUL:    1729787 USELESS:      25721
cpu2_L2C AVERAGE MISS LATENCY: 346.7 cycles
cpu2_L2C TOTAL        ACCESS:          0 HIT:          0 MISS:          0
cpu2_L2C LOAD         ACCESS:          0 HIT:          0 MISS:          0
cpu2_L2C RFO          ACCESS:          0 HIT:          0 MISS:          0
cpu2_L2C PREFETCH     ACCESS:          0 HIT:          0 MISS:          0
cpu2_L2C WRITE        ACCESS:          0 HIT:          0 MISS:          0
cpu2_L2C TRANSLATION  ACCESS:          0 HIT:          0 MISS:          0
cpu2_L2C PREFETCH REQUESTED:   26262140 ISSUED:   24155668 USEFUL:    1729787 USELESS:      25721
cpu2_L2C AVERAGE MISS LATENCY: 346.7 cycles
cpu2_L2C TOTAL        ACCESS:      52697 HIT:      10319 MISS:      42378
cpu2_L2C LOAD         ACCESS:      12737 HIT:        773 MISS:      11964
cpu2_L2C RFO          ACCESS:       8726 HIT:        363 MISS:       8363
cpu2_L2C PREFETCH     ACCESS:      22450 HIT:        448 MISS:      22002
cpu2_L2C WRITE        ACCESS:       8735 HIT:       8735 MISS:          0
cpu2_L2C TRANSLATION  ACCESS:         49 HIT:          0 MISS:         49
cpu2_L2C PREFETCH REQUESTED:   26262140 ISSUED:   24155668 USEFUL:    1729787 USELESS:      25721
cpu2_L2C AVERAGE MISS LATENCY: 346.7 cycles
cpu2_L2C TOTAL        ACCESS:          0 HIT:          0 MISS:          0
cpu2_L2C LOAD         ACCESS:          0 HIT:          0 MISS:          0
cpu2_L2C RFO          ACCESS:          0 HIT:          0 MISS:          0
cpu2_L2C PREFETCH     ACCESS:          0 HIT:          0 MISS:          0
cpu2_L2C WRITE        ACCESS:          0 HIT:          0 MISS:          0
cpu2_L2C TRANSLATION  ACCESS:          0 HIT:          0 MISS:          0
cpu2_L2C PREFETCH REQUESTED:   26262140 ISSUED:   24155668 USEFUL:    1729787 USELESS:      25721
cpu2_L2C AVERAGE MISS LATENCY: 346.7 cycles
cpu2_STLB TOTAL        ACCESS:          0 HIT:          0 MISS:          0
cpu2_STLB LOAD         ACCESS:          0 HIT:          0 MISS:          0
cpu2_STLB RFO          ACCESS:          0 HIT:          0 MISS:          0
cpu2_STLB PREFETCH     ACCESS:          0 HIT:          0 MISS:          0
cpu2_STLB WRITE        ACCESS:          0 HIT:          0 MISS:          0
cpu2_STLB TRANSLATION  ACCESS:          0 HIT:          0 MISS:          0
cpu2_STLB PREFETCH REQUESTED:          0 ISSUED:          0 USEFUL:          0 USELESS:          0
cpu2_STLB AVERAGE MISS LATENCY: 615.2 cycles
cpu2_STLB TOTAL        ACCESS:          0 HIT:          0 MISS:          0
cpu2_STLB LOAD         ACCESS:          0 HIT:          0 MISS:          0
cpu2_STLB RFO          ACCESS:          0 HIT:          0 MISS:          0
cpu2_STLB PREFETCH     ACCESS:          0 HIT:          0 MISS:          0
cpu2_STLB WRITE        ACCESS:          0 HIT:          0 MISS:          0
cpu2_STLB TRANSLATION  ACCESS:          0 HIT:          0 MISS:          0
cpu2_STLB PREFETCH REQUESTED:          0 ISSUED:          0 USEFUL:          0 USELESS:          0
cpu2_STLB AVERAGE MISS LATENCY: 615.2 cycles
cpu2_STLB TOTAL        ACCESS:        484 HIT:         49 MISS:        435
cpu2_STLB LOAD         ACCESS:        484 HIT:         49 MISS:        435
cpu2_STLB RFO          ACCESS:          0 HIT:          0 MISS:          0
cpu2_STLB PREFETCH     ACCESS:          0 HIT:          0 MISS:          0
cpu2_STLB WRITE        ACCESS:          0 HIT:          0 MISS:          0
cpu2_STLB TRANSLATION  ACCESS:          0 HIT:          0 MISS:          0
cpu2_STLB PREFETCH REQUESTED:          0 ISSUED:          0 USEFUL:          0 USELESS:          0
cpu2_STLB AVERAGE MISS LATENCY: 615.2 cycles
cpu2_STLB TOTAL        ACCESS:          0 HIT:          0 MISS:          0
cpu2_STLB LOAD         ACCESS:          0 HIT:          0 MISS:          0
cpu2_STLB RFO          ACCESS:          0 HIT:          0 MISS:          0
cpu2_STLB PREFETCH     ACCESS:          0 HIT:          0 MISS:          0
cpu2_STLB WRITE        ACCESS:          0 HIT:          0 MISS:          0
cpu2_STLB TRANSLATION  ACCESS:          0 HIT:          0 MISS:          0
cpu2_STLB PREFETCH REQUESTED:          0 ISSUED:          0 USEFUL:          0 USELESS:          0
cpu2_STLB AVERAGE MISS LATENCY: 615.2 cycles
cpu3_DTLB TOTAL        ACCESS:          0 HIT:          0 MISS:          0
cpu3_DTLB LOAD         ACCESS:          0 HIT:          0 MISS:          0
cpu3_DTLB RFO          ACCESS:          0 HIT:          0 MISS:          0
cpu3_DTLB PREFETCH     ACCESS:          0 HIT:          0 MISS:          0
cpu3_DTLB WRITE        ACCESS:          0 HIT:          0 MISS:          0
cpu3_DTLB TRANSLATION  ACCESS:          0 HIT:          0 MISS:          0
cpu3_DTLB PREFETCH REQUESTED:          0 ISSUED:          0 USEFUL:          0 USELESS:          0
cpu3_DTLB AVERAGE MISS LATENCY: 14.26 cycles
cpu3_DTLB TOTAL        ACCESS:          0 HIT:          0 MISS:          0
cpu3_DTLB LOAD         ACCESS:          0 HIT:          0 MISS:          0
cpu3_DTLB RFO          ACCESS:          0 HIT:          0 MISS:          0
cpu3_DTLB PREFETCH     ACCESS:          0 HIT:          0 MISS:          0
cpu3_DTLB WRITE        ACCESS:          0 HIT:          0 MISS:          0
cpu3_DTLB TRANSLATION  ACCESS:          0 HIT:          0 MISS:          0
cpu3_DTLB PREFETCH REQUESTED:          0 ISSUED:          0 USEFUL:          0 USELESS:          0
cpu3_DTLB AVERAGE MISS LATENCY: 14.26 cycles
cpu3_DTLB TOTAL        ACCESS:          0 HIT:          0 MISS:          0
cpu3_DTLB LOAD         ACCESS:          0 HIT:          0 MISS:          0
cpu3_DTLB RFO          ACCESS:          0 HIT:          0 MISS:          0
cpu3_DTLB PREFETCH     ACCESS:          0 HIT:          0 MISS:          0
cpu3_DTLB WRITE        ACCESS:          0 HIT:          0 MISS:          0
cpu3_DTLB TRANSLATION  ACCESS:          0 HIT:          0 MISS:          0
cpu3_DTLB PREFETCH REQUESTED:          0 ISSUED:          0 USEFUL:          0 USELESS:          0
cpu3_DTLB AVERAGE MISS LATENCY: 14.26 cycles
cpu3_DTLB TOTAL        ACCESS:   41304722 HIT:   38720015 MISS:    2584707
cpu3_DTLB LOAD         ACCESS:   41304722 HIT:   38720015 MISS:    2584707
cpu3_DTLB RFO          ACCESS:          0 HIT:          0 MISS:          0
cpu3_DTLB PREFETCH     ACCESS:          0 HIT:          0 MISS:          0
cpu3_DTLB WRITE        ACCESS:          0 HIT:          0 MISS:          0
cpu3_DTLB TRANSLATION  ACCESS:          0 HIT:          0 MISS:          0
cpu3_DTLB PREFETCH REQUESTED:          0 ISSUED:          0 USEFUL:          0 USELESS:          0
cpu3_DTLB AVERAGE MISS LATENCY: 14.26 cycles
cpu3_ITLB TOTAL        ACCESS:          0 HIT:          0 MISS:          0
cpu3_ITLB LOAD         ACCESS:          0 HIT:          0 MISS:          0
cpu3_ITLB RFO          ACCESS:          0 HIT:          0 MISS:          0
cpu3_ITLB PREFETCH     ACCESS:          0 HIT:          0 MISS:          0
cpu3_ITLB WRITE        ACCESS:          0 HIT:          0 MISS:          0
cpu3_ITLB TRANSLATION  ACCESS:          0 HIT:          0 MISS:          0
cpu3_ITLB PREFETCH REQUESTED:          0 ISSUED:          0 USEFUL:          0 USELESS:          0
cpu3_ITLB AVERAGE MISS LATENCY: -nan cycles
cpu3_ITLB TOTAL        ACCESS:          0 HIT:          0 MISS:          0
cpu3_ITLB LOAD         ACCESS:          0 HIT:          0 MISS:          0
cpu3_ITLB RFO          ACCESS:          0 HIT:          0 MISS:          0
cpu3_ITLB PREFETCH     ACCESS:          0 HIT:          0 MISS:          0
cpu3_ITLB WRITE        ACCESS:          0 HIT:          0 MISS:          0
cpu3_ITLB TRANSLATION  ACCESS:          0 HIT:          0 MISS:          0
cpu3_ITLB PREFETCH REQUESTED:          0 ISSUED:          0 USEFUL:          0 USELESS:          0
cpu3_ITLB AVERAGE MISS LATENCY: -nan cycles
cpu3_ITLB TOTAL        ACCESS:          0 HIT:          0 MISS:          0
cpu3_ITLB LOAD         ACCESS:          0 HIT:          0 MISS:          0
cpu3_ITLB RFO          ACCESS:          0 HIT:          0 MISS:          0
cpu3_ITLB PREFETCH     ACCESS:          0 HIT:          0 MISS:          0
cpu3_ITLB WRITE        ACCESS:          0 HIT:          0 MISS:          0
cpu3_ITLB TRANSLATION  ACCESS:          0 HIT:          0 MISS:          0
cpu3_ITLB PREFETCH REQUESTED:          0 ISSUED:          0 USEFUL:          0 USELESS:          0
cpu3_ITLB AVERAGE MISS LATENCY: -nan cycles
cpu3_ITLB TOTAL        ACCESS:      47268 HIT:      47268 MISS:          0
cpu3_ITLB LOAD         ACCESS:      47268 HIT:      47268 MISS:          0
cpu3_ITLB RFO          ACCESS:          0 HIT:          0 MISS:          0
cpu3_ITLB PREFETCH     ACCESS:          0 HIT:          0 MISS:          0
cpu3_ITLB WRITE        ACCESS:          0 HIT:          0 MISS:          0
cpu3_ITLB TRANSLATION  ACCESS:          0 HIT:          0 MISS:          0
cpu3_ITLB PREFETCH REQUESTED:          0 ISSUED:          0 USEFUL:          0 USELESS:          0
cpu3_ITLB AVERAGE MISS LATENCY: -nan cycles
cpu3_L1D TOTAL        ACCESS:          0 HIT:          0 MISS:          0
cpu3_L1D LOAD         ACCESS:          0 HIT:          0 MISS:          0
cpu3_L1D RFO          ACCESS:          0 HIT:          0 MISS:          0
cpu3_L1D PREFETCH     ACCESS:          0 HIT:          0 MISS:          0
cpu3_L1D WRITE        ACCESS:          0 HIT:          0 MISS:          0
cpu3_L1D TRANSLATION  ACCESS:          0 HIT:          0 MISS:          0
cpu3_L1D PREFETCH REQUESTED:          0 ISSUED:          0 USEFUL:          0 USELESS:          0
cpu3_L1D AVERAGE MISS LATENCY: 320.1 cycles
cpu3_L1D TOTAL        ACCESS:          0 HIT:          0 MISS:          0
cpu3_L1D LOAD         ACCESS:          0 HIT:          0 MISS:          0
cpu3_L1D RFO          ACCESS:          0 HIT:          0 MISS:          0
cpu3_L1D PREFETCH     ACCESS:          0 HIT:          0 MISS:          0
cpu3_L1D WRITE        ACCESS:          0 HIT:          0 MISS:          0
cpu3_L1D TRANSLATION  ACCESS:          0 HIT:          0 MISS:          0
cpu3_L1D PREFETCH REQUESTED:          0 ISSUED:          0 USEFUL:          0 USELESS:          0
cpu3_L1D AVERAGE MISS LATENCY: 320.1 cycles
cpu3_L1D TOTAL        ACCESS:          0 HIT:          0 MISS:          0
cpu3_L1D LOAD         ACCESS:          0 HIT:          0 MISS:          0
cpu3_L1D RFO          ACCESS:          0 HIT:          0 MISS:          0
cpu3_L1D PREFETCH     ACCESS:          0 HIT:          0 MISS:          0
cpu3_L1D WRITE        ACCESS:          0 HIT:          0 MISS:          0
cpu3_L1D TRANSLATION  ACCESS:          0 HIT:          0 MISS:          0
cpu3_L1D PREFETCH REQUESTED:          0 ISSUED:          0 USEFUL:          0 USELESS:          0
cpu3_L1D AVERAGE MISS LATENCY: 320.1 cycles
cpu3_L1D TOTAL        ACCESS:   52519758 HIT:   45412561 MISS:    7107197
cpu3_L1D LOAD         ACCESS:   34794856 HIT:   29278018 MISS:    5516838
cpu3_L1D RFO          ACCESS:          0 HIT:          0 MISS:          0
cpu3_L1D PREFETCH     ACCESS:          0 HIT:          0 MISS:          0
cpu3_L1D WRITE        ACCESS:   17693492 HIT:   16120078 MISS:    1573414
cpu3_L1D TRANSLATION  ACCESS:      31410 HIT:      14465 MISS:      16945
cpu3_L1D PREFETCH REQUESTED:          0 ISSUED:          0 USEFUL:          0 USELESS:          0
cpu3_L1D AVERAGE MISS LATENCY: 320.1 cycles
cpu3_L1I TOTAL        ACCESS:          0 HIT:          0 MISS:          0
cpu3_L1I LOAD         ACCESS:          0 HIT:          0 MISS:          0
cpu3_L1I RFO          ACCESS:          0 HIT:          0 MISS:          0
cpu3_L1I PREFETCH     ACCESS:          0 HIT:          0 MISS:          0
cpu3_L1I WRITE        ACCESS:          0 HIT:          0 MISS:          0
cpu3_L1I TRANSLATION  ACCESS:          0 HIT:          0 MISS:          0
cpu3_L1I PREFETCH REQUESTED:          0 ISSUED:          0 USEFUL:          0 USELESS:          0
cpu3_L1I AVERAGE MISS LATENCY: 3428 cycles
cpu3_L1I TOTAL        ACCESS:          0 HIT:          0 MISS:          0
cpu3_L1I LOAD         ACCESS:          0 HIT:          0 MISS:          0
cpu3_L1I RFO          ACCESS:          0 HIT:          0 MISS:          0
cpu3_L1I PREFETCH     ACCESS:          0 HIT:          0 MISS:          0
cpu3_L1I WRITE        ACCESS:          0 HIT:          0 MISS:          0
cpu3_L1I TRANSLATION  ACCESS:          0 HIT:          0 MISS:          0
cpu3_L1I PREFETCH REQUESTED:          0 ISSUED:          0 USEFUL:          0 USELESS:          0
cpu3_L1I AVERAGE MISS LATENCY: 3428 cycles
cpu3_L1I TOTAL        ACCESS:          0 HIT:          0 MISS:          0
cpu3_L1I LOAD         ACCESS:          0 HIT:          0 MISS:          0
cpu3_L1I RFO          ACCESS:          0 HIT:          0 MISS:          0
cpu3_L1I PREFETCH     ACCESS:          0 HIT:          0 MISS:          0
cpu3_L1I WRITE        ACCESS:          0 HIT:          0 MISS:          0
cpu3_L1I TRANSLATION  ACCESS:          0 HIT:          0 MISS:          0
cpu3_L1I PREFETCH REQUESTED:          0 ISSUED:          0 USEFUL:          0 USELESS:          0
cpu3_L1I AVERAGE MISS LATENCY: 3428 cycles
cpu3_L1I TOTAL        ACCESS:      53796 HIT:      53794 MISS:          2
cpu3_L1I LOAD         ACCESS:      53796 HIT:      53794 MISS:          2
cpu3_L1I RFO          ACCESS:          0 HIT:          0 MISS:          0
cpu3_L1I PREFETCH     ACCESS:          0 HIT:          0 MISS:          0
cpu3_L1I WRITE        ACCESS:          0 HIT:          0 MISS:          0
cpu3_L1I TRANSLATION  ACCESS:          0 HIT:          0 MISS:          0
cpu3_L1I PREFETCH REQUESTED:          0 ISSUED:          0 USEFUL:          0 USELESS:          0
cpu3_L1I AVERAGE MISS LATENCY: 3428 cycles
cpu3_L2C TOTAL        ACCESS:          0 HIT:          0 MISS:          0
cpu3_L2C LOAD         ACCESS:          0 HIT:          0 MISS:          0
cpu3_L2C RFO          ACCESS:          0 HIT:          0 MISS:          0
cpu3_L2C PREFETCH     ACCESS:          0 HIT:          0 MISS:          0
cpu3_L2C WRITE        ACCESS:          0 HIT:          0 MISS:          0
cpu3_L2C TRANSLATION  ACCESS:          0 HIT:          0 MISS:          0
cpu3_L2C PREFETCH REQUESTED:    6075078 ISSUED:    6071108 USEFUL:     240196 USELESS:       9873
cpu3_L2C AVERAGE MISS LATENCY: 308.2 cycles
cpu3_L2C TOTAL        ACCESS:          0 HIT:          0 MISS:          0
cpu3_L2C LOAD         ACCESS:          0 HIT:          0 MISS:          0
cpu3_L2C RFO          ACCESS:          0 HIT:          0 MISS:          0
cpu3_L2C PREFETCH     ACCESS:          0 HIT:          0 MISS:          0
cpu3_L2C WRITE        ACCESS:          0 HIT:          0 MISS:          0
cpu3_L2C TRANSLATION  ACCESS:          0 HIT:          0 MISS:          0
cpu3_L2C PREFETCH REQUESTED:    6075078 ISSUED:    6071108 USEFUL:     240196 USELESS:       9873
cpu3_L2C AVERAGE MISS LATENCY: 308.2 cycles
cpu3_L2C TOTAL        ACCESS:          0 HIT:          0 MISS:          0
cpu3_L2C LOAD         ACCESS:          0 HIT:          0 MISS:          0
cpu3_L2C RFO          ACCESS:          0 HIT:          0 MISS:          0
cpu3_L2C PREFETCH     ACCESS:          0 HIT:          0 MISS:          0
cpu3_L2C WRITE        ACCESS:          0 HIT:          0 MISS:          0
cpu3_L2C TRANSLATION  ACCESS:          0 HIT:          0 MISS:          0
cpu3_L2C PREFETCH REQUESTED:    6075078 ISSUED:    6071108 USEFUL:     240196 USELESS:       9873
cpu3_L2C AVERAGE MISS LATENCY: 308.2 cycles
cpu3_L2C TOTAL        ACCESS:   11413723 HIT:    4010738 MISS:    7402985
cpu3_L2C LOAD         ACCESS:    4618938 HIT:    1785458 MISS:    2833480
cpu3_L2C RFO          ACCESS:     572921 HIT:     319655 MISS:     253266
cpu3_L2C PREFETCH     ACCESS:    5420108 HIT:    1118306 MISS:    4301802
cpu3_L2C WRITE        ACCESS:     784814 HIT:     784361 MISS:        453
cpu3_L2C TRANSLATION  ACCESS:      16942 HIT:       2958 MISS:      13984
cpu3_L2C PREFETCH REQUESTED:    6075078 ISSUED:    6071108 USEFUL:     240196 USELESS:       9873
cpu3_L2C AVERAGE MISS LATENCY: 308.2 cycles
cpu3_STLB TOTAL        ACCESS:          0 HIT:          0 MISS:          0
cpu3_STLB LOAD         ACCESS:          0 HIT:          0 MISS:          0
cpu3_STLB RFO          ACCESS:          0 HIT:          0 MISS:          0
cpu3_STLB PREFETCH     ACCESS:          0 HIT:          0 MISS:          0
cpu3_STLB WRITE        ACCESS:          0 HIT:          0 MISS:          0
cpu3_STLB TRANSLATION  ACCESS:          0 HIT:          0 MISS:          0
cpu3_STLB PREFETCH REQUESTED:          0 ISSUED:          0 USEFUL:          0 USELESS:          0
cpu3_STLB AVERAGE MISS LATENCY: 663.1 cycles
cpu3_STLB TOTAL        ACCESS:          0 HIT:          0 MISS:          0
cpu3_STLB LOAD         ACCESS:          0 HIT:          0 MISS:          0
cpu3_STLB RFO          ACCESS:          0 HIT:          0 MISS:          0
cpu3_STLB PREFETCH     ACCESS:          0 HIT:          0 MISS:          0
cpu3_STLB WRITE        ACCESS:          0 HIT:          0 MISS:          0
cpu3_STLB TRANSLATION  ACCESS:          0 HIT:          0 MISS:          0
cpu3_STLB PREFETCH REQUESTED:          0 ISSUED:          0 USEFUL:          0 USELESS:          0
cpu3_STLB AVERAGE MISS LATENCY: 663.1 cycles
cpu3_STLB TOTAL        ACCESS:          0 HIT:          0 MISS:          0
cpu3_STLB LOAD         ACCESS:          0 HIT:          0 MISS:          0
cpu3_STLB RFO          ACCESS:          0 HIT:          0 MISS:          0
cpu3_STLB PREFETCH     ACCESS:          0 HIT:          0 MISS:          0
cpu3_STLB WRITE        ACCESS:          0 HIT:          0 MISS:          0
cpu3_STLB TRANSLATION  ACCESS:          0 HIT:          0 MISS:          0
cpu3_STLB PREFETCH REQUESTED:          0 ISSUED:          0 USEFUL:          0 USELESS:          0
cpu3_STLB AVERAGE MISS LATENCY: 663.1 cycles
cpu3_STLB TOTAL        ACCESS:    2225441 HIT:    2194268 MISS:      31173
cpu3_STLB LOAD         ACCESS:    2225441 HIT:    2194268 MISS:      31173
cpu3_STLB RFO          ACCESS:          0 HIT:          0 MISS:          0
cpu3_STLB PREFETCH     ACCESS:          0 HIT:          0 MISS:          0
cpu3_STLB WRITE        ACCESS:          0 HIT:          0 MISS:          0
cpu3_STLB TRANSLATION  ACCESS:          0 HIT:          0 MISS:          0
cpu3_STLB PREFETCH REQUESTED:          0 ISSUED:          0 USEFUL:          0 USELESS:          0
cpu3_STLB AVERAGE MISS LATENCY: 663.1 cycles

DRAM Statistics

Channel 0 RQ ROW_BUFFER_HIT:    2610824
  ROW_BUFFER_MISS:   17669543
 AVG DBUS CONGESTED CYCLE: 3.988
WQ ROW_BUFFER_HIT: Channel 0 
  ROW_BUFFER_MISS:      69875
  FULL:    4098013
