WARNING: physical memory size is smaller than virtual memory size.
WARNING: option --warmup_instructions is deprecated. Use --warmup-instructions instead.
WARNING: option --simulation_instructions is deprecated. Use --simulation-instructions instead.

*** ChampSim Multicore Out-of-Order Simulator ***
Warmup Instructions: 50000000
Simulation Instructions: 150000000
Number of CPUs: 4
Page size: 4096

Initialize SIGNATURE TABLE
ST_SET: 1
ST_WAY: 256
ST_TAG_BIT: 16
ST_TAG_MASK: ffff

Initialize PATTERN TABLE
PT_SET: 512
PT_WAY: 4
SIG_DELTA_BIT: 7
C_SIG_BIT: 4
C_DELTA_BIT: 4

Initialize PREFETCH FILTER
FILTER_SET: 1024
Initialize SIGNATURE TABLE
ST_SET: 1
ST_WAY: 256
ST_TAG_BIT: 16
ST_TAG_MASK: ffff

Initialize PATTERN TABLE
PT_SET: 512
PT_WAY: 4
SIG_DELTA_BIT: 7
C_SIG_BIT: 4
C_DELTA_BIT: 4

Initialize PREFETCH FILTER
FILTER_SET: 1024
Initialize SIGNATURE TABLE
ST_SET: 1
ST_WAY: 256
ST_TAG_BIT: 16
ST_TAG_MASK: ffff

Initialize PATTERN TABLE
PT_SET: 512
PT_WAY: 4
SIG_DELTA_BIT: 7
C_SIG_BIT: 4
C_DELTA_BIT: 4

Initialize PREFETCH FILTER
FILTER_SET: 1024
Initialize SIGNATURE TABLE
ST_SET: 1
ST_WAY: 256
ST_TAG_BIT: 16
ST_TAG_MASK: ffff

Initialize PATTERN TABLE
PT_SET: 512
PT_WAY: 4
SIG_DELTA_BIT: 7
C_SIG_BIT: 4
C_DELTA_BIT: 4

Initialize PREFETCH FILTER
FILTER_SET: 1024
Off-chip DRAM Size: 4 GiB Channels: 1 Width: 64-bit Data Race: 3200 MT/s
Heartbeat CPU 3 instructions: 10000001 cycles: 2502764 heartbeat IPC: 3.996 cumulative IPC: 3.996 (Simulation time: 00 hr 02 min 36 sec)
Heartbeat CPU 2 instructions: 10000003 cycles: 2507057 heartbeat IPC: 3.989 cumulative IPC: 3.989 (Simulation time: 00 hr 02 min 36 sec)
Heartbeat CPU 1 instructions: 10000003 cycles: 2521875 heartbeat IPC: 3.965 cumulative IPC: 3.965 (Simulation time: 00 hr 02 min 37 sec)
Heartbeat CPU 0 instructions: 10000002 cycles: 4173618 heartbeat IPC: 2.396 cumulative IPC: 2.396 (Simulation time: 00 hr 04 min 15 sec)
Heartbeat CPU 3 instructions: 20000002 cycles: 5005404 heartbeat IPC: 3.996 cumulative IPC: 3.996 (Simulation time: 00 hr 05 min 12 sec)
Heartbeat CPU 2 instructions: 20000003 cycles: 5016712 heartbeat IPC: 3.985 cumulative IPC: 3.987 (Simulation time: 00 hr 05 min 13 sec)
Heartbeat CPU 1 instructions: 20000001 cycles: 5038237 heartbeat IPC: 3.974 cumulative IPC: 3.97 (Simulation time: 00 hr 05 min 14 sec)
Heartbeat CPU 3 instructions: 30000003 cycles: 7507701 heartbeat IPC: 3.996 cumulative IPC: 3.996 (Simulation time: 00 hr 07 min 53 sec)
Heartbeat CPU 2 instructions: 30000000 cycles: 7521082 heartbeat IPC: 3.993 cumulative IPC: 3.989 (Simulation time: 00 hr 07 min 54 sec)
Heartbeat CPU 1 instructions: 30000000 cycles: 7553266 heartbeat IPC: 3.976 cumulative IPC: 3.972 (Simulation time: 00 hr 07 min 56 sec)
Heartbeat CPU 0 instructions: 20000003 cycles: 8345680 heartbeat IPC: 2.397 cumulative IPC: 2.396 (Simulation time: 00 hr 08 min 51 sec)
Heartbeat CPU 3 instructions: 40000000 cycles: 10010444 heartbeat IPC: 3.996 cumulative IPC: 3.996 (Simulation time: 00 hr 10 min 44 sec)
Heartbeat CPU 2 instructions: 40000002 cycles: 10031660 heartbeat IPC: 3.983 cumulative IPC: 3.987 (Simulation time: 00 hr 10 min 45 sec)
Heartbeat CPU 1 instructions: 40000003 cycles: 10077277 heartbeat IPC: 3.962 cumulative IPC: 3.969 (Simulation time: 00 hr 10 min 49 sec)
Heartbeat CPU 3 instructions: 50000001 cycles: 12513171 heartbeat IPC: 3.996 cumulative IPC: 3.996 (Simulation time: 00 hr 13 min 27 sec)
Warmup finished CPU 3 instructions: 50000001 cycles: 12513172 cumulative IPC: 3.996 (Simulation time: 00 hr 13 min 27 sec)
Heartbeat CPU 0 instructions: 30000001 cycles: 12518553 heartbeat IPC: 2.396 cumulative IPC: 2.396 (Simulation time: 00 hr 13 min 27 sec)
Heartbeat CPU 2 instructions: 50000000 cycles: 12555374 heartbeat IPC: 3.962 cumulative IPC: 3.982 (Simulation time: 00 hr 13 min 29 sec)
Warmup finished CPU 2 instructions: 50000000 cycles: 12555375 cumulative IPC: 3.982 (Simulation time: 00 hr 13 min 29 sec)
Heartbeat CPU 1 instructions: 50000000 cycles: 12599099 heartbeat IPC: 3.965 cumulative IPC: 3.969 (Simulation time: 00 hr 13 min 32 sec)
Warmup finished CPU 1 instructions: 50000000 cycles: 12599100 cumulative IPC: 3.969 (Simulation time: 00 hr 13 min 32 sec)
Heartbeat CPU 3 instructions: 60000001 cycles: 15015862 heartbeat IPC: 3.996 cumulative IPC: 3.996 (Simulation time: 00 hr 16 min 11 sec)
Heartbeat CPU 2 instructions: 60000003 cycles: 15063267 heartbeat IPC: 3.987 cumulative IPC: 3.983 (Simulation time: 00 hr 16 min 14 sec)
Heartbeat CPU 1 instructions: 60000002 cycles: 15124094 heartbeat IPC: 3.96 cumulative IPC: 3.967 (Simulation time: 00 hr 16 min 18 sec)
Heartbeat CPU 0 instructions: 40000000 cycles: 16706049 heartbeat IPC: 2.388 cumulative IPC: 2.394 (Simulation time: 00 hr 17 min 58 sec)
Heartbeat CPU 3 instructions: 70000003 cycles: 17520603 heartbeat IPC: 3.992 cumulative IPC: 3.995 (Simulation time: 00 hr 18 min 50 sec)
Heartbeat CPU 2 instructions: 70000000 cycles: 17570231 heartbeat IPC: 3.989 cumulative IPC: 3.984 (Simulation time: 00 hr 18 min 53 sec)
Heartbeat CPU 1 instructions: 70000000 cycles: 17648868 heartbeat IPC: 3.961 cumulative IPC: 3.966 (Simulation time: 00 hr 18 min 59 sec)
Heartbeat CPU 3 instructions: 80000000 cycles: 20022810 heartbeat IPC: 3.996 cumulative IPC: 3.995 (Simulation time: 00 hr 21 min 24 sec)
Heartbeat CPU 2 instructions: 80000003 cycles: 20078155 heartbeat IPC: 3.987 cumulative IPC: 3.984 (Simulation time: 00 hr 21 min 27 sec)
Heartbeat CPU 1 instructions: 80000001 cycles: 20174084 heartbeat IPC: 3.96 cumulative IPC: 3.965 (Simulation time: 00 hr 21 min 33 sec)
Heartbeat CPU 0 instructions: 50000003 cycles: 20872653 heartbeat IPC: 2.4 cumulative IPC: 2.395 (Simulation time: 00 hr 22 min 14 sec)
Warmup finished CPU 0 instructions: 50000003 cycles: 20872654 cumulative IPC: 2.395 (Simulation time: 00 hr 22 min 14 sec)
Warmup complete CPU 0 instructions: 50000003 cycles: 20872654 cumulative IPC: 2.395 (Simulation time: 00 hr 22 min 14 sec)
Warmup complete CPU 1 instructions: 82765614 cycles: 20872654 cumulative IPC: 3.965 (Simulation time: 00 hr 22 min 14 sec)
Warmup complete CPU 2 instructions: 83177995 cycles: 20872654 cumulative IPC: 3.985 (Simulation time: 00 hr 22 min 14 sec)
Warmup complete CPU 3 instructions: 83399372 cycles: 20872654 cumulative IPC: 3.996 (Simulation time: 00 hr 22 min 14 sec)
Heartbeat CPU 2 instructions: 90000001 cycles: 23194967 heartbeat IPC: 3.208 cumulative IPC: 2.938 (Simulation time: 00 hr 23 min 53 sec)
Heartbeat CPU 3 instructions: 90000004 cycles: 23962530 heartbeat IPC: 2.538 cumulative IPC: 2.136 (Simulation time: 00 hr 24 min 28 sec)
Heartbeat CPU 1 instructions: 90000002 cycles: 23988148 heartbeat IPC: 2.622 cumulative IPC: 2.322 (Simulation time: 00 hr 24 min 30 sec)
Heartbeat CPU 2 instructions: 100000004 cycles: 26605642 heartbeat IPC: 2.932 cumulative IPC: 2.934 (Simulation time: 00 hr 26 min 18 sec)
Heartbeat CPU 1 instructions: 100000000 cycles: 28289532 heartbeat IPC: 2.325 cumulative IPC: 2.324 (Simulation time: 00 hr 27 min 30 sec)
Heartbeat CPU 3 instructions: 100000000 cycles: 28663480 heartbeat IPC: 2.127 cumulative IPC: 2.131 (Simulation time: 00 hr 27 min 45 sec)
Heartbeat CPU 2 instructions: 110000001 cycles: 30029859 heartbeat IPC: 2.92 cumulative IPC: 2.929 (Simulation time: 00 hr 28 min 43 sec)
Heartbeat CPU 1 instructions: 110000002 cycles: 32659167 heartbeat IPC: 2.289 cumulative IPC: 2.311 (Simulation time: 00 hr 30 min 29 sec)
Heartbeat CPU 3 instructions: 110000001 cycles: 33348367 heartbeat IPC: 2.135 cumulative IPC: 2.132 (Simulation time: 00 hr 30 min 56 sec)
Heartbeat CPU 2 instructions: 120000002 cycles: 33443391 heartbeat IPC: 2.93 cumulative IPC: 2.929 (Simulation time: 00 hr 31 min 00 sec)
Heartbeat CPU 0 instructions: 60000000 cycles: 36766284 heartbeat IPC: 0.6292 cumulative IPC: 0.6292 (Simulation time: 00 hr 33 min 14 sec)
Heartbeat CPU 2 instructions: 130000003 cycles: 36851711 heartbeat IPC: 2.934 cumulative IPC: 2.93 (Simulation time: 00 hr 33 min 17 sec)
Heartbeat CPU 1 instructions: 120000001 cycles: 36943248 heartbeat IPC: 2.334 cumulative IPC: 2.317 (Simulation time: 00 hr 33 min 21 sec)
Heartbeat CPU 3 instructions: 120000000 cycles: 37963685 heartbeat IPC: 2.167 cumulative IPC: 2.142 (Simulation time: 00 hr 34 min 02 sec)
Heartbeat CPU 2 instructions: 140000003 cycles: 40250136 heartbeat IPC: 2.943 cumulative IPC: 2.932 (Simulation time: 00 hr 35 min 33 sec)
Heartbeat CPU 1 instructions: 130000000 cycles: 41301098 heartbeat IPC: 2.295 cumulative IPC: 2.312 (Simulation time: 00 hr 36 min 17 sec)
Heartbeat CPU 3 instructions: 130000002 cycles: 42609808 heartbeat IPC: 2.152 cumulative IPC: 2.144 (Simulation time: 00 hr 37 min 11 sec)
Heartbeat CPU 2 instructions: 150000002 cycles: 43609524 heartbeat IPC: 2.977 cumulative IPC: 2.939 (Simulation time: 00 hr 37 min 53 sec)
Heartbeat CPU 1 instructions: 140000000 cycles: 45716558 heartbeat IPC: 2.265 cumulative IPC: 2.304 (Simulation time: 00 hr 39 min 18 sec)
Heartbeat CPU 2 instructions: 160000001 cycles: 46881615 heartbeat IPC: 3.056 cumulative IPC: 2.954 (Simulation time: 00 hr 40 min 08 sec)
Heartbeat CPU 3 instructions: 140000000 cycles: 47273354 heartbeat IPC: 2.144 cumulative IPC: 2.144 (Simulation time: 00 hr 40 min 25 sec)
Heartbeat CPU 1 instructions: 150000002 cycles: 50082623 heartbeat IPC: 2.29 cumulative IPC: 2.302 (Simulation time: 00 hr 42 min 36 sec)
Heartbeat CPU 2 instructions: 170000001 cycles: 50188811 heartbeat IPC: 3.024 cumulative IPC: 2.962 (Simulation time: 00 hr 42 min 40 sec)
Heartbeat CPU 3 instructions: 150000004 cycles: 51874698 heartbeat IPC: 2.173 cumulative IPC: 2.148 (Simulation time: 00 hr 43 min 51 sec)
Heartbeat CPU 0 instructions: 70000002 cycles: 52731656 heartbeat IPC: 0.6264 cumulative IPC: 0.6278 (Simulation time: 00 hr 44 min 25 sec)
Heartbeat CPU 2 instructions: 180000003 cycles: 53654649 heartbeat IPC: 2.885 cumulative IPC: 2.954 (Simulation time: 00 hr 45 min 02 sec)
Heartbeat CPU 1 instructions: 160000001 cycles: 54438184 heartbeat IPC: 2.296 cumulative IPC: 2.301 (Simulation time: 00 hr 45 min 33 sec)
Heartbeat CPU 3 instructions: 160000003 cycles: 56471869 heartbeat IPC: 2.175 cumulative IPC: 2.152 (Simulation time: 00 hr 46 min 56 sec)
Heartbeat CPU 2 instructions: 190000004 cycles: 57105962 heartbeat IPC: 2.897 cumulative IPC: 2.948 (Simulation time: 00 hr 47 min 23 sec)
Heartbeat CPU 1 instructions: 170000000 cycles: 58807290 heartbeat IPC: 2.289 cumulative IPC: 2.3 (Simulation time: 00 hr 48 min 31 sec)
Heartbeat CPU 2 instructions: 200000004 cycles: 60567386 heartbeat IPC: 2.889 cumulative IPC: 2.943 (Simulation time: 00 hr 49 min 44 sec)
Heartbeat CPU 3 instructions: 170000003 cycles: 61058010 heartbeat IPC: 2.18 cumulative IPC: 2.155 (Simulation time: 00 hr 50 min 05 sec)
Heartbeat CPU 1 instructions: 180000000 cycles: 63196711 heartbeat IPC: 2.278 cumulative IPC: 2.297 (Simulation time: 00 hr 51 min 30 sec)
Heartbeat CPU 2 instructions: 210000004 cycles: 64060418 heartbeat IPC: 2.863 cumulative IPC: 2.937 (Simulation time: 00 hr 52 min 04 sec)
Heartbeat CPU 3 instructions: 180000004 cycles: 65651327 heartbeat IPC: 2.177 cumulative IPC: 2.157 (Simulation time: 00 hr 53 min 14 sec)
Heartbeat CPU 2 instructions: 220000001 cycles: 67502943 heartbeat IPC: 2.905 cumulative IPC: 2.934 (Simulation time: 00 hr 54 min 31 sec)
Heartbeat CPU 1 instructions: 190000000 cycles: 67537413 heartbeat IPC: 2.304 cumulative IPC: 2.298 (Simulation time: 00 hr 54 min 32 sec)
Heartbeat CPU 0 instructions: 80000002 cycles: 69322305 heartbeat IPC: 0.6027 cumulative IPC: 0.6192 (Simulation time: 00 hr 55 min 42 sec)
Heartbeat CPU 3 instructions: 190000002 cycles: 70260291 heartbeat IPC: 2.17 cumulative IPC: 2.158 (Simulation time: 00 hr 56 min 21 sec)
Heartbeat CPU 2 instructions: 230000000 cycles: 70965565 heartbeat IPC: 2.888 cumulative IPC: 2.931 (Simulation time: 00 hr 56 min 52 sec)
Heartbeat CPU 1 instructions: 200000004 cycles: 71880782 heartbeat IPC: 2.302 cumulative IPC: 2.298 (Simulation time: 00 hr 57 min 28 sec)
Simulation finished CPU 2 instructions: 150000000 cycles: 51192344 cumulative IPC: 2.93 (Simulation time: 00 hr 57 min 35 sec)
Heartbeat CPU 2 instructions: 240000002 cycles: 74421249 heartbeat IPC: 2.894 cumulative IPC: 2.929 (Simulation time: 00 hr 59 min 18 sec)
Heartbeat CPU 3 instructions: 200000000 cycles: 74869566 heartbeat IPC: 2.17 cumulative IPC: 2.159 (Simulation time: 00 hr 59 min 38 sec)
Heartbeat CPU 1 instructions: 210000001 cycles: 76277416 heartbeat IPC: 2.274 cumulative IPC: 2.296 (Simulation time: 01 hr 00 min 36 sec)
Heartbeat CPU 2 instructions: 250000004 cycles: 77864799 heartbeat IPC: 2.904 cumulative IPC: 2.927 (Simulation time: 01 hr 01 min 44 sec)
Heartbeat CPU 3 instructions: 210000000 cycles: 79442373 heartbeat IPC: 2.187 cumulative IPC: 2.162 (Simulation time: 01 hr 02 min 49 sec)
Heartbeat CPU 1 instructions: 220000002 cycles: 80686445 heartbeat IPC: 2.268 cumulative IPC: 2.294 (Simulation time: 01 hr 03 min 41 sec)
Heartbeat CPU 2 instructions: 260000002 cycles: 81298065 heartbeat IPC: 2.913 cumulative IPC: 2.926 (Simulation time: 01 hr 04 min 06 sec)
Heartbeat CPU 3 instructions: 220000000 cycles: 84014044 heartbeat IPC: 2.187 cumulative IPC: 2.163 (Simulation time: 01 hr 05 min 55 sec)
Heartbeat CPU 2 instructions: 270000004 cycles: 84753787 heartbeat IPC: 2.894 cumulative IPC: 2.925 (Simulation time: 01 hr 06 min 24 sec)
Heartbeat CPU 1 instructions: 230000000 cycles: 85055033 heartbeat IPC: 2.289 cumulative IPC: 2.294 (Simulation time: 01 hr 06 min 36 sec)
Heartbeat CPU 0 instructions: 90000001 cycles: 85190932 heartbeat IPC: 0.6302 cumulative IPC: 0.6219 (Simulation time: 01 hr 06 min 41 sec)
Simulation finished CPU 1 instructions: 150000000 cycles: 65402414 cumulative IPC: 2.293 (Simulation time: 01 hr 07 min 25 sec)
Heartbeat CPU 2 instructions: 280000004 cycles: 88156080 heartbeat IPC: 2.939 cumulative IPC: 2.925 (Simulation time: 01 hr 08 min 38 sec)
Heartbeat CPU 3 instructions: 230000001 cycles: 88592811 heartbeat IPC: 2.184 cumulative IPC: 2.165 (Simulation time: 01 hr 08 min 56 sec)
Heartbeat CPU 1 instructions: 240000001 cycles: 89467689 heartbeat IPC: 2.266 cumulative IPC: 2.292 (Simulation time: 01 hr 09 min 30 sec)
Simulation finished CPU 3 instructions: 150000002 cycles: 69301032 cumulative IPC: 2.164 (Simulation time: 01 hr 09 min 58 sec)
Heartbeat CPU 2 instructions: 290000003 cycles: 91607793 heartbeat IPC: 2.897 cumulative IPC: 2.924 (Simulation time: 01 hr 10 min 54 sec)
Heartbeat CPU 3 instructions: 240000000 cycles: 93194569 heartbeat IPC: 2.173 cumulative IPC: 2.165 (Simulation time: 01 hr 11 min 57 sec)
Heartbeat CPU 1 instructions: 250000001 cycles: 93823097 heartbeat IPC: 2.296 cumulative IPC: 2.292 (Simulation time: 01 hr 12 min 22 sec)
Heartbeat CPU 2 instructions: 300000000 cycles: 95045809 heartbeat IPC: 2.909 cumulative IPC: 2.923 (Simulation time: 01 hr 13 min 10 sec)
Heartbeat CPU 3 instructions: 250000002 cycles: 97804955 heartbeat IPC: 2.169 cumulative IPC: 2.166 (Simulation time: 01 hr 14 min 57 sec)
Heartbeat CPU 1 instructions: 260000000 cycles: 98192248 heartbeat IPC: 2.289 cumulative IPC: 2.292 (Simulation time: 01 hr 15 min 13 sec)
Heartbeat CPU 2 instructions: 310000004 cycles: 98478391 heartbeat IPC: 2.913 cumulative IPC: 2.923 (Simulation time: 01 hr 15 min 24 sec)
Heartbeat CPU 0 instructions: 100000000 cycles: 101610918 heartbeat IPC: 0.609 cumulative IPC: 0.6193 (Simulation time: 01 hr 17 min 29 sec)
Heartbeat CPU 2 instructions: 320000001 cycles: 101909239 heartbeat IPC: 2.915 cumulative IPC: 2.922 (Simulation time: 01 hr 17 min 41 sec)
Heartbeat CPU 3 instructions: 260000000 cycles: 102439534 heartbeat IPC: 2.158 cumulative IPC: 2.165 (Simulation time: 01 hr 18 min 02 sec)
Heartbeat CPU 1 instructions: 270000003 cycles: 102580053 heartbeat IPC: 2.279 cumulative IPC: 2.292 (Simulation time: 01 hr 18 min 08 sec)
Heartbeat CPU 2 instructions: 330000001 cycles: 105337903 heartbeat IPC: 2.917 cumulative IPC: 2.922 (Simulation time: 01 hr 19 min 59 sec)
Heartbeat CPU 1 instructions: 280000003 cycles: 106927417 heartbeat IPC: 2.3 cumulative IPC: 2.292 (Simulation time: 01 hr 21 min 02 sec)
Heartbeat CPU 3 instructions: 270000000 cycles: 107069685 heartbeat IPC: 2.16 cumulative IPC: 2.165 (Simulation time: 01 hr 21 min 07 sec)
Heartbeat CPU 2 instructions: 340000002 cycles: 108761485 heartbeat IPC: 2.921 cumulative IPC: 2.922 (Simulation time: 01 hr 22 min 15 sec)
Heartbeat CPU 1 instructions: 290000001 cycles: 111279184 heartbeat IPC: 2.298 cumulative IPC: 2.292 (Simulation time: 01 hr 23 min 53 sec)
Heartbeat CPU 3 instructions: 280000001 cycles: 111688032 heartbeat IPC: 2.165 cumulative IPC: 2.165 (Simulation time: 01 hr 24 min 09 sec)
Heartbeat CPU 2 instructions: 350000001 cycles: 112220327 heartbeat IPC: 2.891 cumulative IPC: 2.921 (Simulation time: 01 hr 24 min 31 sec)
Heartbeat CPU 1 instructions: 300000002 cycles: 115635200 heartbeat IPC: 2.296 cumulative IPC: 2.292 (Simulation time: 01 hr 26 min 47 sec)
Heartbeat CPU 2 instructions: 360000001 cycles: 115649751 heartbeat IPC: 2.916 cumulative IPC: 2.921 (Simulation time: 01 hr 26 min 47 sec)
Heartbeat CPU 3 instructions: 290000004 cycles: 116312302 heartbeat IPC: 2.163 cumulative IPC: 2.165 (Simulation time: 01 hr 27 min 14 sec)
Heartbeat CPU 0 instructions: 110000004 cycles: 117254539 heartbeat IPC: 0.6392 cumulative IPC: 0.6225 (Simulation time: 01 hr 27 min 51 sec)
Heartbeat CPU 2 instructions: 370000001 cycles: 119063713 heartbeat IPC: 2.929 cumulative IPC: 2.921 (Simulation time: 01 hr 29 min 02 sec)
Heartbeat CPU 1 instructions: 310000003 cycles: 119972364 heartbeat IPC: 2.306 cumulative IPC: 2.293 (Simulation time: 01 hr 29 min 37 sec)
Heartbeat CPU 3 instructions: 300000000 cycles: 120922610 heartbeat IPC: 2.169 cumulative IPC: 2.165 (Simulation time: 01 hr 30 min 14 sec)
Heartbeat CPU 2 instructions: 380000001 cycles: 122444039 heartbeat IPC: 2.958 cumulative IPC: 2.922 (Simulation time: 01 hr 31 min 16 sec)
Heartbeat CPU 1 instructions: 320000002 cycles: 124363176 heartbeat IPC: 2.277 cumulative IPC: 2.292 (Simulation time: 01 hr 32 min 33 sec)
Heartbeat CPU 3 instructions: 310000001 cycles: 125536890 heartbeat IPC: 2.167 cumulative IPC: 2.165 (Simulation time: 01 hr 33 min 20 sec)
Heartbeat CPU 2 instructions: 390000000 cycles: 125891797 heartbeat IPC: 2.9 cumulative IPC: 2.922 (Simulation time: 01 hr 33 min 34 sec)
Heartbeat CPU 1 instructions: 330000004 cycles: 128777099 heartbeat IPC: 2.266 cumulative IPC: 2.291 (Simulation time: 01 hr 35 min 30 sec)
Heartbeat CPU 2 instructions: 400000003 cycles: 129227416 heartbeat IPC: 2.998 cumulative IPC: 2.924 (Simulation time: 01 hr 35 min 48 sec)
Heartbeat CPU 3 instructions: 320000001 cycles: 130137811 heartbeat IPC: 2.173 cumulative IPC: 2.165 (Simulation time: 01 hr 36 min 24 sec)
Heartbeat CPU 2 instructions: 410000004 cycles: 132728133 heartbeat IPC: 2.857 cumulative IPC: 2.922 (Simulation time: 01 hr 38 min 06 sec)
Heartbeat CPU 1 instructions: 340000001 cycles: 133175105 heartbeat IPC: 2.274 cumulative IPC: 2.291 (Simulation time: 01 hr 38 min 24 sec)
Heartbeat CPU 0 instructions: 120000004 cycles: 133835688 heartbeat IPC: 0.6031 cumulative IPC: 0.6197 (Simulation time: 01 hr 38 min 51 sec)
Heartbeat CPU 3 instructions: 330000001 cycles: 134732898 heartbeat IPC: 2.176 cumulative IPC: 2.166 (Simulation time: 01 hr 39 min 27 sec)
Heartbeat CPU 2 instructions: 420000001 cycles: 136121986 heartbeat IPC: 2.947 cumulative IPC: 2.923 (Simulation time: 01 hr 40 min 22 sec)
Heartbeat CPU 1 instructions: 350000001 cycles: 137596480 heartbeat IPC: 2.262 cumulative IPC: 2.289 (Simulation time: 01 hr 41 min 19 sec)
Heartbeat CPU 2 instructions: 430000003 cycles: 139809158 heartbeat IPC: 2.712 cumulative IPC: 2.916 (Simulation time: 01 hr 42 min 46 sec)
Heartbeat CPU 3 instructions: 340000000 cycles: 140098845 heartbeat IPC: 1.864 cumulative IPC: 2.152 (Simulation time: 01 hr 42 min 58 sec)
Heartbeat CPU 1 instructions: 360000004 cycles: 142053208 heartbeat IPC: 2.244 cumulative IPC: 2.288 (Simulation time: 01 hr 44 min 15 sec)
Heartbeat CPU 2 instructions: 440000000 cycles: 143296658 heartbeat IPC: 2.867 cumulative IPC: 2.915 (Simulation time: 01 hr 45 min 05 sec)
Heartbeat CPU 3 instructions: 350000002 cycles: 145338593 heartbeat IPC: 1.908 cumulative IPC: 2.142 (Simulation time: 01 hr 46 min 25 sec)
Heartbeat CPU 1 instructions: 370000000 cycles: 146450005 heartbeat IPC: 2.274 cumulative IPC: 2.287 (Simulation time: 01 hr 47 min 10 sec)
Heartbeat CPU 2 instructions: 450000001 cycles: 147391668 heartbeat IPC: 2.442 cumulative IPC: 2.899 (Simulation time: 01 hr 47 min 50 sec)
Heartbeat CPU 3 instructions: 360000002 cycles: 150399496 heartbeat IPC: 1.976 cumulative IPC: 2.135 (Simulation time: 01 hr 49 min 55 sec)
Heartbeat CPU 2 instructions: 460000000 cycles: 150764690 heartbeat IPC: 2.965 cumulative IPC: 2.901 (Simulation time: 01 hr 50 min 11 sec)
Heartbeat CPU 1 instructions: 380000000 cycles: 150881962 heartbeat IPC: 2.256 cumulative IPC: 2.286 (Simulation time: 01 hr 50 min 16 sec)
Heartbeat CPU 0 instructions: 130000002 cycles: 152977402 heartbeat IPC: 0.5224 cumulative IPC: 0.6056 (Simulation time: 01 hr 51 min 41 sec)
Heartbeat CPU 2 instructions: 470000002 cycles: 154170446 heartbeat IPC: 2.936 cumulative IPC: 2.902 (Simulation time: 01 hr 52 min 31 sec)
Heartbeat CPU 1 instructions: 390000000 cycles: 155267269 heartbeat IPC: 2.28 cumulative IPC: 2.286 (Simulation time: 01 hr 53 min 17 sec)
Heartbeat CPU 3 instructions: 370000000 cycles: 155425554 heartbeat IPC: 1.99 cumulative IPC: 2.13 (Simulation time: 01 hr 53 min 24 sec)
Heartbeat CPU 2 instructions: 480000002 cycles: 157585820 heartbeat IPC: 2.928 cumulative IPC: 2.903 (Simulation time: 01 hr 54 min 54 sec)
Heartbeat CPU 1 instructions: 400000000 cycles: 159723267 heartbeat IPC: 2.244 cumulative IPC: 2.285 (Simulation time: 01 hr 56 min 23 sec)
Heartbeat CPU 3 instructions: 380000002 cycles: 160506629 heartbeat IPC: 1.968 cumulative IPC: 2.124 (Simulation time: 01 hr 56 min 49 sec)
Heartbeat CPU 1 instructions: 410000000 cycles: 164195984 heartbeat IPC: 2.236 cumulative IPC: 2.283 (Simulation time: 01 hr 58 min 43 sec)
Heartbeat CPU 1 instructions: 420000004 cycles: 168805576 heartbeat IPC: 2.169 cumulative IPC: 2.28 (Simulation time: 02 hr 00 min 56 sec)
Heartbeat CPU 1 instructions: 430000002 cycles: 173514672 heartbeat IPC: 2.124 cumulative IPC: 2.275 (Simulation time: 02 hr 03 min 16 sec)
Heartbeat CPU 1 instructions: 440000003 cycles: 178196755 heartbeat IPC: 2.136 cumulative IPC: 2.271 (Simulation time: 02 hr 05 min 33 sec)
Heartbeat CPU 3 instructions: 390000001 cycles: 179556682 heartbeat IPC: 0.5249 cumulative IPC: 1.932 (Simulation time: 02 hr 06 min 17 sec)
Heartbeat CPU 1 instructions: 450000003 cycles: 182650285 heartbeat IPC: 2.245 cumulative IPC: 2.27 (Simulation time: 02 hr 08 min 02 sec)
Heartbeat CPU 3 instructions: 400000003 cycles: 185028171 heartbeat IPC: 1.828 cumulative IPC: 1.929 (Simulation time: 02 hr 09 min 28 sec)
Heartbeat CPU 2 instructions: 490000001 cycles: 185394034 heartbeat IPC: 0.3596 cumulative IPC: 2.473 (Simulation time: 02 hr 09 min 42 sec)
Heartbeat CPU 1 instructions: 460000003 cycles: 187180128 heartbeat IPC: 2.208 cumulative IPC: 2.268 (Simulation time: 02 hr 10 min 56 sec)
Heartbeat CPU 2 instructions: 500000004 cycles: 189559760 heartbeat IPC: 2.401 cumulative IPC: 2.471 (Simulation time: 02 hr 12 min 39 sec)
Heartbeat CPU 3 instructions: 410000003 cycles: 189658443 heartbeat IPC: 2.16 cumulative IPC: 1.935 (Simulation time: 02 hr 12 min 44 sec)
Heartbeat CPU 1 instructions: 470000002 cycles: 191517445 heartbeat IPC: 2.306 cumulative IPC: 2.269 (Simulation time: 02 hr 14 min 01 sec)
Heartbeat CPU 2 instructions: 510000004 cycles: 193704273 heartbeat IPC: 2.413 cumulative IPC: 2.47 (Simulation time: 02 hr 15 min 30 sec)
Heartbeat CPU 3 instructions: 420000000 cycles: 194191494 heartbeat IPC: 2.206 cumulative IPC: 1.942 (Simulation time: 02 hr 15 min 51 sec)
Heartbeat CPU 1 instructions: 480000000 cycles: 195883726 heartbeat IPC: 2.29 cumulative IPC: 2.27 (Simulation time: 02 hr 17 min 02 sec)
Heartbeat CPU 0 instructions: 140000001 cycles: 196767073 heartbeat IPC: 0.2284 cumulative IPC: 0.5117 (Simulation time: 02 hr 17 min 39 sec)
Heartbeat CPU 2 instructions: 520000001 cycles: 197761344 heartbeat IPC: 2.465 cumulative IPC: 2.469 (Simulation time: 02 hr 18 min 21 sec)
Heartbeat CPU 3 instructions: 430000004 cycles: 198758268 heartbeat IPC: 2.19 cumulative IPC: 1.948 (Simulation time: 02 hr 19 min 03 sec)
Heartbeat CPU 1 instructions: 490000002 cycles: 200190294 heartbeat IPC: 2.322 cumulative IPC: 2.271 (Simulation time: 02 hr 20 min 03 sec)
Heartbeat CPU 2 instructions: 530000000 cycles: 201857959 heartbeat IPC: 2.441 cumulative IPC: 2.469 (Simulation time: 02 hr 21 min 14 sec)
Heartbeat CPU 3 instructions: 440000004 cycles: 203238906 heartbeat IPC: 2.232 cumulative IPC: 1.955 (Simulation time: 02 hr 22 min 12 sec)
Heartbeat CPU 1 instructions: 500000000 cycles: 204531191 heartbeat IPC: 2.304 cumulative IPC: 2.272 (Simulation time: 02 hr 23 min 05 sec)
Heartbeat CPU 2 instructions: 540000004 cycles: 205940978 heartbeat IPC: 2.449 cumulative IPC: 2.468 (Simulation time: 02 hr 24 min 05 sec)
Heartbeat CPU 3 instructions: 450000000 cycles: 207866360 heartbeat IPC: 2.161 cumulative IPC: 1.96 (Simulation time: 02 hr 25 min 24 sec)
Heartbeat CPU 1 instructions: 510000004 cycles: 208836288 heartbeat IPC: 2.323 cumulative IPC: 2.273 (Simulation time: 02 hr 26 min 04 sec)
Heartbeat CPU 2 instructions: 550000001 cycles: 210056535 heartbeat IPC: 2.43 cumulative IPC: 2.468 (Simulation time: 02 hr 26 min 54 sec)
Heartbeat CPU 3 instructions: 460000000 cycles: 212389354 heartbeat IPC: 2.211 cumulative IPC: 1.966 (Simulation time: 02 hr 28 min 29 sec)
Heartbeat CPU 1 instructions: 520000000 cycles: 213186226 heartbeat IPC: 2.299 cumulative IPC: 2.274 (Simulation time: 02 hr 29 min 02 sec)
Heartbeat CPU 2 instructions: 560000000 cycles: 216306199 heartbeat IPC: 1.6 cumulative IPC: 2.44 (Simulation time: 02 hr 30 min 53 sec)
Heartbeat CPU 3 instructions: 470000002 cycles: 217611789 heartbeat IPC: 1.915 cumulative IPC: 1.965 (Simulation time: 02 hr 31 min 33 sec)
Heartbeat CPU 1 instructions: 530000002 cycles: 219502869 heartbeat IPC: 1.583 cumulative IPC: 2.252 (Simulation time: 02 hr 32 min 29 sec)
Heartbeat CPU 3 instructions: 480000000 cycles: 224370735 heartbeat IPC: 1.48 cumulative IPC: 1.949 (Simulation time: 02 hr 35 min 01 sec)
Heartbeat CPU 1 instructions: 540000003 cycles: 225295302 heartbeat IPC: 1.726 cumulative IPC: 2.237 (Simulation time: 02 hr 35 min 32 sec)
Heartbeat CPU 1 instructions: 550000001 cycles: 229638988 heartbeat IPC: 2.302 cumulative IPC: 2.238 (Simulation time: 02 hr 37 min 53 sec)
Heartbeat CPU 1 instructions: 560000002 cycles: 234042202 heartbeat IPC: 2.271 cumulative IPC: 2.239 (Simulation time: 02 hr 40 min 14 sec)
Heartbeat CPU 3 instructions: 490000002 cycles: 234062430 heartbeat IPC: 1.032 cumulative IPC: 1.907 (Simulation time: 02 hr 40 min 15 sec)
Heartbeat CPU 1 instructions: 570000001 cycles: 238411908 heartbeat IPC: 2.288 cumulative IPC: 2.24 (Simulation time: 02 hr 43 min 12 sec)
Heartbeat CPU 2 instructions: 570000001 cycles: 239328422 heartbeat IPC: 0.4344 cumulative IPC: 2.228 (Simulation time: 02 hr 43 min 53 sec)
Heartbeat CPU 0 instructions: 150000003 cycles: 239937546 heartbeat IPC: 0.2316 cumulative IPC: 0.4565 (Simulation time: 02 hr 44 min 19 sec)
Heartbeat CPU 3 instructions: 500000000 cycles: 240233905 heartbeat IPC: 1.62 cumulative IPC: 1.899 (Simulation time: 02 hr 44 min 33 sec)
Heartbeat CPU 1 instructions: 580000002 cycles: 242738154 heartbeat IPC: 2.311 cumulative IPC: 2.241 (Simulation time: 02 hr 46 min 25 sec)
Heartbeat CPU 2 instructions: 580000001 cycles: 244026440 heartbeat IPC: 2.129 cumulative IPC: 2.226 (Simulation time: 02 hr 47 min 26 sec)
Heartbeat CPU 3 instructions: 510000002 cycles: 246094980 heartbeat IPC: 1.706 cumulative IPC: 1.894 (Simulation time: 02 hr 48 min 58 sec)
Heartbeat CPU 1 instructions: 590000002 cycles: 247022453 heartbeat IPC: 2.334 cumulative IPC: 2.243 (Simulation time: 02 hr 49 min 39 sec)
Heartbeat CPU 2 instructions: 590000004 cycles: 248569865 heartbeat IPC: 2.201 cumulative IPC: 2.226 (Simulation time: 02 hr 50 min 49 sec)
Heartbeat CPU 1 instructions: 600000000 cycles: 251288721 heartbeat IPC: 2.344 cumulative IPC: 2.245 (Simulation time: 02 hr 52 min 51 sec)
Heartbeat CPU 3 instructions: 520000000 cycles: 251960455 heartbeat IPC: 1.705 cumulative IPC: 1.889 (Simulation time: 02 hr 53 min 23 sec)
Heartbeat CPU 2 instructions: 600000004 cycles: 253205507 heartbeat IPC: 2.157 cumulative IPC: 2.224 (Simulation time: 02 hr 54 min 19 sec)
Heartbeat CPU 1 instructions: 610000000 cycles: 255603101 heartbeat IPC: 2.318 cumulative IPC: 2.246 (Simulation time: 02 hr 56 min 06 sec)
Heartbeat CPU 3 instructions: 530000003 cycles: 257739342 heartbeat IPC: 1.73 cumulative IPC: 1.885 (Simulation time: 02 hr 57 min 40 sec)
Heartbeat CPU 2 instructions: 610000000 cycles: 257795691 heartbeat IPC: 2.179 cumulative IPC: 2.224 (Simulation time: 02 hr 57 min 42 sec)
Heartbeat CPU 1 instructions: 620000001 cycles: 259960656 heartbeat IPC: 2.295 cumulative IPC: 2.247 (Simulation time: 02 hr 59 min 20 sec)
Heartbeat CPU 2 instructions: 620000002 cycles: 262343151 heartbeat IPC: 2.199 cumulative IPC: 2.223 (Simulation time: 03 hr 01 min 13 sec)
Heartbeat CPU 3 instructions: 540000000 cycles: 263451977 heartbeat IPC: 1.751 cumulative IPC: 1.882 (Simulation time: 03 hr 02 min 09 sec)
Heartbeat CPU 1 instructions: 630000001 cycles: 264328383 heartbeat IPC: 2.29 cumulative IPC: 2.248 (Simulation time: 03 hr 02 min 52 sec)
Heartbeat CPU 0 instructions: 160000002 cycles: 265538986 heartbeat IPC: 0.3906 cumulative IPC: 0.4496 (Simulation time: 03 hr 03 min 54 sec)
Heartbeat CPU 2 instructions: 630000004 cycles: 266929498 heartbeat IPC: 2.18 cumulative IPC: 2.222 (Simulation time: 03 hr 04 min 59 sec)
Heartbeat CPU 1 instructions: 640000001 cycles: 268672264 heartbeat IPC: 2.302 cumulative IPC: 2.249 (Simulation time: 03 hr 06 min 13 sec)
Heartbeat CPU 3 instructions: 550000002 cycles: 269314691 heartbeat IPC: 1.706 cumulative IPC: 1.878 (Simulation time: 03 hr 06 min 34 sec)
Heartbeat CPU 1 instructions: 650000000 cycles: 273055646 heartbeat IPC: 2.281 cumulative IPC: 2.249 (Simulation time: 03 hr 08 min 59 sec)
Heartbeat CPU 3 instructions: 560000002 cycles: 275654272 heartbeat IPC: 1.577 cumulative IPC: 1.871 (Simulation time: 03 hr 10 min 33 sec)
Heartbeat CPU 1 instructions: 660000002 cycles: 277490327 heartbeat IPC: 2.255 cumulative IPC: 2.249 (Simulation time: 03 hr 11 min 57 sec)
Heartbeat CPU 1 instructions: 670000001 cycles: 281965250 heartbeat IPC: 2.235 cumulative IPC: 2.249 (Simulation time: 03 hr 15 min 09 sec)
Heartbeat CPU 3 instructions: 570000004 cycles: 282363489 heartbeat IPC: 1.49 cumulative IPC: 1.861 (Simulation time: 03 hr 15 min 23 sec)
Heartbeat CPU 2 instructions: 640000002 cycles: 285899533 heartbeat IPC: 0.5271 cumulative IPC: 2.101 (Simulation time: 03 hr 17 min 57 sec)
Heartbeat CPU 1 instructions: 680000002 cycles: 286478022 heartbeat IPC: 2.216 cumulative IPC: 2.249 (Simulation time: 03 hr 18 min 20 sec)
Heartbeat CPU 3 instructions: 580000000 cycles: 288488541 heartbeat IPC: 1.633 cumulative IPC: 1.856 (Simulation time: 03 hr 19 min 47 sec)
Heartbeat CPU 2 instructions: 650000001 cycles: 290503163 heartbeat IPC: 2.172 cumulative IPC: 2.102 (Simulation time: 03 hr 21 min 30 sec)
Heartbeat CPU 1 instructions: 690000001 cycles: 290874454 heartbeat IPC: 2.275 cumulative IPC: 2.249 (Simulation time: 03 hr 21 min 46 sec)
Heartbeat CPU 3 instructions: 590000001 cycles: 294297354 heartbeat IPC: 1.722 cumulative IPC: 1.853 (Simulation time: 03 hr 24 min 22 sec)
Heartbeat CPU 2 instructions: 660000003 cycles: 295177536 heartbeat IPC: 2.139 cumulative IPC: 2.103 (Simulation time: 03 hr 25 min 08 sec)
Heartbeat CPU 1 instructions: 700000000 cycles: 295360438 heartbeat IPC: 2.229 cumulative IPC: 2.249 (Simulation time: 03 hr 25 min 17 sec)
Heartbeat CPU 2 instructions: 670000002 cycles: 299770015 heartbeat IPC: 2.177 cumulative IPC: 2.104 (Simulation time: 03 hr 28 min 51 sec)
Heartbeat CPU 1 instructions: 710000002 cycles: 299800865 heartbeat IPC: 2.252 cumulative IPC: 2.249 (Simulation time: 03 hr 28 min 52 sec)
Heartbeat CPU 3 instructions: 600000000 cycles: 300044245 heartbeat IPC: 1.74 cumulative IPC: 1.85 (Simulation time: 03 hr 29 min 04 sec)
Heartbeat CPU 0 instructions: 170000001 cycles: 301447425 heartbeat IPC: 0.2785 cumulative IPC: 0.4277 (Simulation time: 03 hr 30 min 10 sec)
Heartbeat CPU 1 instructions: 720000004 cycles: 304278463 heartbeat IPC: 2.233 cumulative IPC: 2.248 (Simulation time: 03 hr 32 min 19 sec)
Heartbeat CPU 2 instructions: 680000002 cycles: 304413932 heartbeat IPC: 2.153 cumulative IPC: 2.105 (Simulation time: 03 hr 32 min 25 sec)
Heartbeat CPU 3 instructions: 610000000 cycles: 305873875 heartbeat IPC: 1.715 cumulative IPC: 1.848 (Simulation time: 03 hr 33 min 33 sec)
Heartbeat CPU 1 instructions: 730000002 cycles: 308736346 heartbeat IPC: 2.243 cumulative IPC: 2.248 (Simulation time: 03 hr 35 min 38 sec)
Heartbeat CPU 2 instructions: 690000001 cycles: 308973834 heartbeat IPC: 2.193 cumulative IPC: 2.106 (Simulation time: 03 hr 35 min 48 sec)
Heartbeat CPU 1 instructions: 740000004 cycles: 313260116 heartbeat IPC: 2.211 cumulative IPC: 2.248 (Simulation time: 03 hr 38 min 40 sec)
Heartbeat CPU 2 instructions: 700000000 cycles: 314613578 heartbeat IPC: 1.773 cumulative IPC: 2.1 (Simulation time: 03 hr 39 min 35 sec)
Heartbeat CPU 1 instructions: 750000001 cycles: 317791352 heartbeat IPC: 2.207 cumulative IPC: 2.247 (Simulation time: 03 hr 41 min 38 sec)
Heartbeat CPU 1 instructions: 760000000 cycles: 322349997 heartbeat IPC: 2.194 cumulative IPC: 2.246 (Simulation time: 03 hr 43 min 56 sec)
Heartbeat CPU 1 instructions: 770000002 cycles: 326873700 heartbeat IPC: 2.211 cumulative IPC: 2.246 (Simulation time: 03 hr 45 min 56 sec)
Heartbeat CPU 3 instructions: 620000003 cycles: 329801256 heartbeat IPC: 0.4179 cumulative IPC: 1.737 (Simulation time: 03 hr 47 min 17 sec)
Heartbeat CPU 1 instructions: 780000002 cycles: 331378697 heartbeat IPC: 2.22 cumulative IPC: 2.245 (Simulation time: 03 hr 48 min 01 sec)
Heartbeat CPU 1 instructions: 790000002 cycles: 335963305 heartbeat IPC: 2.181 cumulative IPC: 2.245 (Simulation time: 03 hr 50 min 14 sec)
Heartbeat CPU 2 instructions: 710000003 cycles: 340499003 heartbeat IPC: 0.3863 cumulative IPC: 1.961 (Simulation time: 03 hr 52 min 27 sec)
Heartbeat CPU 1 instructions: 800000001 cycles: 340506990 heartbeat IPC: 2.201 cumulative IPC: 2.244 (Simulation time: 03 hr 52 min 27 sec)
Heartbeat CPU 1 instructions: 810000000 cycles: 345045619 heartbeat IPC: 2.203 cumulative IPC: 2.243 (Simulation time: 03 hr 54 min 37 sec)
Heartbeat CPU 1 instructions: 820000000 cycles: 349467673 heartbeat IPC: 2.261 cumulative IPC: 2.244 (Simulation time: 03 hr 57 min 03 sec)
Heartbeat CPU 2 instructions: 720000000 cycles: 350636872 heartbeat IPC: 0.9864 cumulative IPC: 1.931 (Simulation time: 03 hr 57 min 43 sec)
Heartbeat CPU 3 instructions: 630000003 cycles: 352182273 heartbeat IPC: 0.4468 cumulative IPC: 1.65 (Simulation time: 03 hr 58 min 38 sec)
Heartbeat CPU 1 instructions: 830000004 cycles: 353908967 heartbeat IPC: 2.252 cumulative IPC: 2.244 (Simulation time: 03 hr 59 min 40 sec)
Heartbeat CPU 2 instructions: 730000001 cycles: 355059816 heartbeat IPC: 2.261 cumulative IPC: 1.936 (Simulation time: 04 hr 00 min 21 sec)
Heartbeat CPU 1 instructions: 840000003 cycles: 358359086 heartbeat IPC: 2.247 cumulative IPC: 2.244 (Simulation time: 04 hr 02 min 21 sec)
Heartbeat CPU 2 instructions: 740000003 cycles: 359580511 heartbeat IPC: 2.212 cumulative IPC: 1.939 (Simulation time: 04 hr 03 min 04 sec)
Heartbeat CPU 3 instructions: 640000000 cycles: 360575904 heartbeat IPC: 1.191 cumulative IPC: 1.638 (Simulation time: 04 hr 03 min 43 sec)
Heartbeat CPU 1 instructions: 850000001 cycles: 362734794 heartbeat IPC: 2.285 cumulative IPC: 2.244 (Simulation time: 04 hr 05 min 00 sec)
Heartbeat CPU 2 instructions: 750000003 cycles: 363885892 heartbeat IPC: 2.323 cumulative IPC: 1.944 (Simulation time: 04 hr 05 min 41 sec)
Heartbeat CPU 1 instructions: 860000003 cycles: 367116976 heartbeat IPC: 2.282 cumulative IPC: 2.245 (Simulation time: 04 hr 07 min 39 sec)
Heartbeat CPU 0 instructions: 180000001 cycles: 367283856 heartbeat IPC: 0.1519 cumulative IPC: 0.3753 (Simulation time: 04 hr 07 min 45 sec)
Heartbeat CPU 2 instructions: 760000000 cycles: 368286632 heartbeat IPC: 2.272 cumulative IPC: 1.948 (Simulation time: 04 hr 08 min 19 sec)
Heartbeat CPU 3 instructions: 650000003 cycles: 369523214 heartbeat IPC: 1.118 cumulative IPC: 1.625 (Simulation time: 04 hr 09 min 02 sec)
Heartbeat CPU 1 instructions: 870000003 cycles: 371540372 heartbeat IPC: 2.261 cumulative IPC: 2.245 (Simulation time: 04 hr 10 min 17 sec)
Heartbeat CPU 2 instructions: 770000004 cycles: 372566088 heartbeat IPC: 2.337 cumulative IPC: 1.953 (Simulation time: 04 hr 10 min 54 sec)
Heartbeat CPU 3 instructions: 660000004 cycles: 375504643 heartbeat IPC: 1.672 cumulative IPC: 1.626 (Simulation time: 04 hr 12 min 42 sec)
Heartbeat CPU 1 instructions: 880000000 cycles: 375993678 heartbeat IPC: 2.246 cumulative IPC: 2.245 (Simulation time: 04 hr 13 min 00 sec)
Heartbeat CPU 2 instructions: 780000003 cycles: 377131428 heartbeat IPC: 2.19 cumulative IPC: 1.956 (Simulation time: 04 hr 13 min 40 sec)
Heartbeat CPU 1 instructions: 890000004 cycles: 380431562 heartbeat IPC: 2.253 cumulative IPC: 2.245 (Simulation time: 04 hr 15 min 23 sec)
Heartbeat CPU 1 instructions: 900000000 cycles: 384894025 heartbeat IPC: 2.241 cumulative IPC: 2.245 (Simulation time: 04 hr 17 min 24 sec)
Heartbeat CPU 3 instructions: 670000002 cycles: 387106132 heartbeat IPC: 0.862 cumulative IPC: 1.602 (Simulation time: 04 hr 18 min 29 sec)
Heartbeat CPU 1 instructions: 910000003 cycles: 389457058 heartbeat IPC: 2.192 cumulative IPC: 2.244 (Simulation time: 04 hr 19 min 36 sec)
Heartbeat CPU 1 instructions: 920000001 cycles: 393944984 heartbeat IPC: 2.228 cumulative IPC: 2.244 (Simulation time: 04 hr 21 min 41 sec)
Heartbeat CPU 1 instructions: 930000001 cycles: 398453335 heartbeat IPC: 2.218 cumulative IPC: 2.244 (Simulation time: 04 hr 23 min 48 sec)
Heartbeat CPU 1 instructions: 940000000 cycles: 402984328 heartbeat IPC: 2.207 cumulative IPC: 2.243 (Simulation time: 04 hr 25 min 58 sec)
Heartbeat CPU 2 instructions: 790000003 cycles: 404692697 heartbeat IPC: 0.3628 cumulative IPC: 1.842 (Simulation time: 04 hr 26 min 55 sec)
Heartbeat CPU 1 instructions: 950000000 cycles: 407505833 heartbeat IPC: 2.212 cumulative IPC: 2.243 (Simulation time: 04 hr 28 min 29 sec)
Heartbeat CPU 2 instructions: 800000000 cycles: 409297930 heartbeat IPC: 2.171 cumulative IPC: 1.845 (Simulation time: 04 hr 29 min 30 sec)
Heartbeat CPU 1 instructions: 960000003 cycles: 412009524 heartbeat IPC: 2.22 cumulative IPC: 2.243 (Simulation time: 04 hr 31 min 00 sec)
Heartbeat CPU 2 instructions: 810000004 cycles: 413873319 heartbeat IPC: 2.186 cumulative IPC: 1.849 (Simulation time: 04 hr 31 min 59 sec)
Heartbeat CPU 1 instructions: 970000001 cycles: 416491290 heartbeat IPC: 2.231 cumulative IPC: 2.243 (Simulation time: 04 hr 33 min 16 sec)
Heartbeat CPU 2 instructions: 820000001 cycles: 420264730 heartbeat IPC: 1.565 cumulative IPC: 1.845 (Simulation time: 04 hr 35 min 03 sec)
Heartbeat CPU 1 instructions: 980000000 cycles: 421067959 heartbeat IPC: 2.185 cumulative IPC: 2.242 (Simulation time: 04 hr 35 min 32 sec)
Heartbeat CPU 3 instructions: 680000002 cycles: 423182312 heartbeat IPC: 0.2772 cumulative IPC: 1.483 (Simulation time: 04 hr 36 min 47 sec)
Heartbeat CPU 2 instructions: 830000003 cycles: 424739668 heartbeat IPC: 2.235 cumulative IPC: 1.849 (Simulation time: 04 hr 37 min 44 sec)
Heartbeat CPU 1 instructions: 990000004 cycles: 425569222 heartbeat IPC: 2.222 cumulative IPC: 2.242 (Simulation time: 04 hr 38 min 18 sec)
Heartbeat CPU 3 instructions: 690000001 cycles: 428430022 heartbeat IPC: 1.906 cumulative IPC: 1.488 (Simulation time: 04 hr 40 min 04 sec)
Heartbeat CPU 2 instructions: 840000000 cycles: 429115212 heartbeat IPC: 2.285 cumulative IPC: 1.854 (Simulation time: 04 hr 40 min 32 sec)
Heartbeat CPU 1 instructions: 1000000004 cycles: 430071035 heartbeat IPC: 2.221 cumulative IPC: 2.242 (Simulation time: 04 hr 41 min 08 sec)
Heartbeat CPU 3 instructions: 700000003 cycles: 433310466 heartbeat IPC: 2.049 cumulative IPC: 1.495 (Simulation time: 04 hr 43 min 15 sec)
Heartbeat CPU 2 instructions: 850000002 cycles: 433310785 heartbeat IPC: 2.383 cumulative IPC: 1.859 (Simulation time: 04 hr 43 min 15 sec)
Heartbeat CPU 1 instructions: 1010000003 cycles: 434537264 heartbeat IPC: 2.239 cumulative IPC: 2.242 (Simulation time: 04 hr 44 min 05 sec)
Heartbeat CPU 3 instructions: 710000002 cycles: 438128111 heartbeat IPC: 2.076 cumulative IPC: 1.502 (Simulation time: 04 hr 46 min 08 sec)
Heartbeat CPU 1 instructions: 1020000002 cycles: 438929586 heartbeat IPC: 2.277 cumulative IPC: 2.242 (Simulation time: 04 hr 46 min 31 sec)
Heartbeat CPU 0 instructions: 190000003 cycles: 439079792 heartbeat IPC: 0.1393 cumulative IPC: 0.3348 (Simulation time: 04 hr 46 min 36 sec)
Heartbeat CPU 1 instructions: 1030000004 cycles: 443332199 heartbeat IPC: 2.271 cumulative IPC: 2.242 (Simulation time: 04 hr 48 min 46 sec)
Heartbeat CPU 3 instructions: 720000003 cycles: 446142112 heartbeat IPC: 1.248 cumulative IPC: 1.497 (Simulation time: 04 hr 50 min 18 sec)
Heartbeat CPU 1 instructions: 1040000001 cycles: 447702155 heartbeat IPC: 2.288 cumulative IPC: 2.243 (Simulation time: 04 hr 51 min 09 sec)
Heartbeat CPU 2 instructions: 860000002 cycles: 451001515 heartbeat IPC: 0.5653 cumulative IPC: 1.806 (Simulation time: 04 hr 52 min 57 sec)
Heartbeat CPU 1 instructions: 1050000004 cycles: 451994410 heartbeat IPC: 2.33 cumulative IPC: 2.244 (Simulation time: 04 hr 53 min 35 sec)
Heartbeat CPU 3 instructions: 730000003 cycles: 453228030 heartbeat IPC: 1.411 cumulative IPC: 1.496 (Simulation time: 04 hr 54 min 24 sec)
Heartbeat CPU 2 instructions: 870000001 cycles: 455120297 heartbeat IPC: 2.428 cumulative IPC: 1.812 (Simulation time: 04 hr 55 min 47 sec)
Heartbeat CPU 1 instructions: 1060000001 cycles: 456338219 heartbeat IPC: 2.302 cumulative IPC: 2.244 (Simulation time: 04 hr 56 min 36 sec)
Heartbeat CPU 2 instructions: 880000000 cycles: 459480630 heartbeat IPC: 2.293 cumulative IPC: 1.817 (Simulation time: 04 hr 58 min 26 sec)
Heartbeat CPU 3 instructions: 740000004 cycles: 459695414 heartbeat IPC: 1.546 cumulative IPC: 1.496 (Simulation time: 04 hr 58 min 35 sec)
Heartbeat CPU 1 instructions: 1070000000 cycles: 460671456 heartbeat IPC: 2.308 cumulative IPC: 2.245 (Simulation time: 04 hr 59 min 15 sec)
Heartbeat CPU 2 instructions: 890000002 cycles: 463814767 heartbeat IPC: 2.307 cumulative IPC: 1.822 (Simulation time: 05 hr 01 min 10 sec)
Heartbeat CPU 1 instructions: 1080000000 cycles: 465014107 heartbeat IPC: 2.303 cumulative IPC: 2.245 (Simulation time: 05 hr 01 min 52 sec)
Heartbeat CPU 2 instructions: 900000004 cycles: 468179662 heartbeat IPC: 2.291 cumulative IPC: 1.826 (Simulation time: 05 hr 03 min 47 sec)
Heartbeat CPU 3 instructions: 750000003 cycles: 468901546 heartbeat IPC: 1.086 cumulative IPC: 1.488 (Simulation time: 05 hr 04 min 15 sec)
Heartbeat CPU 1 instructions: 1090000000 cycles: 469321756 heartbeat IPC: 2.321 cumulative IPC: 2.246 (Simulation time: 05 hr 04 min 32 sec)
Heartbeat CPU 2 instructions: 910000001 cycles: 472539547 heartbeat IPC: 2.294 cumulative IPC: 1.831 (Simulation time: 05 hr 06 min 31 sec)
Heartbeat CPU 1 instructions: 1100000000 cycles: 473607210 heartbeat IPC: 2.333 cumulative IPC: 2.247 (Simulation time: 05 hr 07 min 13 sec)
Heartbeat CPU 3 instructions: 760000000 cycles: 475455554 heartbeat IPC: 1.526 cumulative IPC: 1.488 (Simulation time: 05 hr 08 min 23 sec)
Heartbeat CPU 2 instructions: 920000004 cycles: 476941895 heartbeat IPC: 2.272 cumulative IPC: 1.835 (Simulation time: 05 hr 09 min 15 sec)
Heartbeat CPU 1 instructions: 1110000001 cycles: 477948753 heartbeat IPC: 2.303 cumulative IPC: 2.247 (Simulation time: 05 hr 09 min 49 sec)
Heartbeat CPU 2 instructions: 930000000 cycles: 481308971 heartbeat IPC: 2.29 cumulative IPC: 1.839 (Simulation time: 05 hr 12 min 00 sec)
Heartbeat CPU 1 instructions: 1120000004 cycles: 482270578 heartbeat IPC: 2.314 cumulative IPC: 2.248 (Simulation time: 05 hr 12 min 34 sec)
Heartbeat CPU 3 instructions: 770000000 cycles: 484994614 heartbeat IPC: 1.048 cumulative IPC: 1.479 (Simulation time: 05 hr 13 min 52 sec)
Heartbeat CPU 1 instructions: 1130000000 cycles: 486686271 heartbeat IPC: 2.265 cumulative IPC: 2.248 (Simulation time: 05 hr 14 min 39 sec)
Heartbeat CPU 1 instructions: 1140000002 cycles: 491080431 heartbeat IPC: 2.276 cumulative IPC: 2.248 (Simulation time: 05 hr 16 min 48 sec)
Heartbeat CPU 1 instructions: 1150000000 cycles: 495358476 heartbeat IPC: 2.338 cumulative IPC: 2.249 (Simulation time: 05 hr 19 min 04 sec)
Heartbeat CPU 3 instructions: 780000002 cycles: 500056341 heartbeat IPC: 0.6639 cumulative IPC: 1.454 (Simulation time: 05 hr 21 min 21 sec)
Heartbeat CPU 1 instructions: 1160000001 cycles: 503273668 heartbeat IPC: 1.263 cumulative IPC: 2.233 (Simulation time: 05 hr 23 min 03 sec)
Heartbeat CPU 2 instructions: 940000000 cycles: 507024024 heartbeat IPC: 0.3889 cumulative IPC: 1.762 (Simulation time: 05 hr 25 min 12 sec)
Heartbeat CPU 1 instructions: 1170000004 cycles: 507690746 heartbeat IPC: 2.264 cumulative IPC: 2.233 (Simulation time: 05 hr 25 min 35 sec)
Heartbeat CPU 0 instructions: 200000001 cycles: 509257811 heartbeat IPC: 0.1425 cumulative IPC: 0.3071 (Simulation time: 05 hr 26 min 31 sec)
Simulation finished CPU 0 instructions: 150000003 cycles: 488385159 cumulative IPC: 0.3071 (Simulation time: 05 hr 26 min 31 sec)
Simulation complete CPU 0 instructions: 150000003 cycles: 488385159 cumulative IPC: 0.3071 (Simulation time: 05 hr 26 min 31 sec)
Simulation complete CPU 1 instructions: 1090851035 cycles: 488385159 cumulative IPC: 2.234 (Simulation time: 05 hr 26 min 31 sec)
Simulation complete CPU 2 instructions: 861852154 cycles: 488385159 cumulative IPC: 1.765 (Simulation time: 05 hr 26 min 31 sec)
Simulation complete CPU 3 instructions: 705119020 cycles: 488385159 cumulative IPC: 1.444 (Simulation time: 05 hr 26 min 31 sec)

ChampSim completed all CPUs

=== Simulation ===
CPU 0 runs /home/das/dpc3_traces/620.omnetpp_s-874B.champsimtrace.xzCPU 1 runs /home/das/dpc3_traces/603.bwaves_s-3699B.champsimtrace.xzCPU 2 runs /home/das/dpc3_traces/654.roms_s-842B.champsimtrace.xzCPU 3 runs /home/das/dpc3_traces/621.wrf_s-575B.champsimtrace.xz
Total Simulation Statistics (not including warmup)

CPU 0 cumulative IPC: 0.3071 instructions: 150000003 cycles: 488385159
CPU 0 Branch Prediction Accuracy: 94.9% MPKI: 10.6 Average ROB Occupancy at Mispredict: 80.69
Branch type MPKI
BRANCH_DIRECT_JUMP: 0.923
BRANCH_INDIRECT: 0.128
BRANCH_CONDITIONAL: 8.42
BRANCH_DIRECT_CALL: 0.00016
BRANCH_INDIRECT_CALL: 0.734
BRANCH_RETURN: 0.399


CPU 1 cumulative IPC: 2.234 instructions: 1090851035 cycles: 488385159
CPU 1 Branch Prediction Accuracy: 90.06% MPKI: 14.44 Average ROB Occupancy at Mispredict: 30.05
Branch type MPKI
BRANCH_DIRECT_JUMP: 0.0579
BRANCH_INDIRECT: 0
BRANCH_CONDITIONAL: 14.3
BRANCH_DIRECT_CALL: 0
BRANCH_INDIRECT_CALL: 0
BRANCH_RETURN: 0.0636


CPU 2 cumulative IPC: 1.765 instructions: 861852154 cycles: 488385159
CPU 2 Branch Prediction Accuracy: 91.39% MPKI: 11.32 Average ROB Occupancy at Mispredict: 89.34
Branch type MPKI
BRANCH_DIRECT_JUMP: 0.0724
BRANCH_INDIRECT: 0
BRANCH_CONDITIONAL: 6.94
BRANCH_DIRECT_CALL: 9.28e-06
BRANCH_INDIRECT_CALL: 0
BRANCH_RETURN: 4.31


CPU 3 cumulative IPC: 1.444 instructions: 705119020 cycles: 488385159
CPU 3 Branch Prediction Accuracy: 95.47% MPKI: 5.337 Average ROB Occupancy at Mispredict: 106.5
Branch type MPKI
BRANCH_DIRECT_JUMP: 0.000462
BRANCH_INDIRECT: 2.41e-05
BRANCH_CONDITIONAL: 4.94
BRANCH_DIRECT_CALL: 0.00261
BRANCH_INDIRECT_CALL: 0
BRANCH_RETURN: 0.397

LLC TOTAL        ACCESS:    5039633 HIT:    2368272 MISS:    2671361
LLC LOAD         ACCESS:    1680274 HIT:     635755 MISS:    1044519
LLC RFO          ACCESS:     257065 HIT:     156367 MISS:     100698
LLC PREFETCH     ACCESS:    1536284 HIT:     537996 MISS:     998288
LLC WRITE        ACCESS:     969201 HIT:     937508 MISS:      31693
LLC TRANSLATION  ACCESS:     596809 HIT:     100646 MISS:     496163
LLC PREFETCH REQUESTED:          0 ISSUED:          0 USEFUL:          0 USELESS:          0
LLC AVERAGE MISS LATENCY: 720.4 cycles
LLC TOTAL        ACCESS:     599485 HIT:     180344 MISS:     419141
LLC LOAD         ACCESS:      16740 HIT:      12780 MISS:       3960
LLC RFO          ACCESS:     176299 HIT:        174 MISS:     176125
LLC PREFETCH     ACCESS:     230150 HIT:      88726 MISS:     141424
LLC WRITE        ACCESS:     176273 HIT:      78663 MISS:      97610
LLC TRANSLATION  ACCESS:         23 HIT:          1 MISS:         22
LLC PREFETCH REQUESTED:          0 ISSUED:          0 USEFUL:          0 USELESS:          0
LLC AVERAGE MISS LATENCY: 720.4 cycles
LLC TOTAL        ACCESS:    6378887 HIT:    1779159 MISS:    4599728
LLC LOAD         ACCESS:     695844 HIT:     236775 MISS:     459069
LLC RFO          ACCESS:     692609 HIT:         47 MISS:     692562
LLC PREFETCH     ACCESS:    4290564 HIT:     872634 MISS:    3417930
LLC WRITE        ACCESS:     692765 HIT:     668041 MISS:      24724
LLC TRANSLATION  ACCESS:       7105 HIT:       1662 MISS:       5443
LLC PREFETCH REQUESTED:          0 ISSUED:          0 USEFUL:          0 USELESS:          0
LLC AVERAGE MISS LATENCY: 720.4 cycles
LLC TOTAL        ACCESS:   14966624 HIT:    9285729 MISS:    5680895
LLC LOAD         ACCESS:    1506017 HIT:    1026696 MISS:     479321
LLC RFO          ACCESS:     806638 HIT:     275454 MISS:     531184
LLC PREFETCH     ACCESS:   11184314 HIT:    6532575 MISS:    4651739
LLC WRITE        ACCESS:    1464954 HIT:    1449259 MISS:      15695
LLC TRANSLATION  ACCESS:       4701 HIT:       1745 MISS:       2956
LLC PREFETCH REQUESTED:          0 ISSUED:          0 USEFUL:          0 USELESS:          0
LLC AVERAGE MISS LATENCY: 720.4 cycles
cpu0_DTLB TOTAL        ACCESS:   38247407 HIT:   34957202 MISS:    3290205
cpu0_DTLB LOAD         ACCESS:   38247407 HIT:   34957202 MISS:    3290205
cpu0_DTLB RFO          ACCESS:          0 HIT:          0 MISS:          0
cpu0_DTLB PREFETCH     ACCESS:          0 HIT:          0 MISS:          0
cpu0_DTLB WRITE        ACCESS:          0 HIT:          0 MISS:          0
cpu0_DTLB TRANSLATION  ACCESS:          0 HIT:          0 MISS:          0
cpu0_DTLB PREFETCH REQUESTED:          0 ISSUED:          0 USEFUL:          0 USELESS:          0
cpu0_DTLB AVERAGE MISS LATENCY: 104 cycles
cpu0_DTLB TOTAL        ACCESS:          0 HIT:          0 MISS:          0
cpu0_DTLB LOAD         ACCESS:          0 HIT:          0 MISS:          0
cpu0_DTLB RFO          ACCESS:          0 HIT:          0 MISS:          0
cpu0_DTLB PREFETCH     ACCESS:          0 HIT:          0 MISS:          0
cpu0_DTLB WRITE        ACCESS:          0 HIT:          0 MISS:          0
cpu0_DTLB TRANSLATION  ACCESS:          0 HIT:          0 MISS:          0
cpu0_DTLB PREFETCH REQUESTED:          0 ISSUED:          0 USEFUL:          0 USELESS:          0
cpu0_DTLB AVERAGE MISS LATENCY: 104 cycles
cpu0_DTLB TOTAL        ACCESS:          0 HIT:          0 MISS:          0
cpu0_DTLB LOAD         ACCESS:          0 HIT:          0 MISS:          0
cpu0_DTLB RFO          ACCESS:          0 HIT:          0 MISS:          0
cpu0_DTLB PREFETCH     ACCESS:          0 HIT:          0 MISS:          0
cpu0_DTLB WRITE        ACCESS:          0 HIT:          0 MISS:          0
cpu0_DTLB TRANSLATION  ACCESS:          0 HIT:          0 MISS:          0
cpu0_DTLB PREFETCH REQUESTED:          0 ISSUED:          0 USEFUL:          0 USELESS:          0
cpu0_DTLB AVERAGE MISS LATENCY: 104 cycles
cpu0_DTLB TOTAL        ACCESS:          0 HIT:          0 MISS:          0
cpu0_DTLB LOAD         ACCESS:          0 HIT:          0 MISS:          0
cpu0_DTLB RFO          ACCESS:          0 HIT:          0 MISS:          0
cpu0_DTLB PREFETCH     ACCESS:          0 HIT:          0 MISS:          0
cpu0_DTLB WRITE        ACCESS:          0 HIT:          0 MISS:          0
cpu0_DTLB TRANSLATION  ACCESS:          0 HIT:          0 MISS:          0
cpu0_DTLB PREFETCH REQUESTED:          0 ISSUED:          0 USEFUL:          0 USELESS:          0
cpu0_DTLB AVERAGE MISS LATENCY: 104 cycles
cpu0_ITLB TOTAL        ACCESS:   10768604 HIT:   10497670 MISS:     270934
cpu0_ITLB LOAD         ACCESS:   10768604 HIT:   10497670 MISS:     270934
cpu0_ITLB RFO          ACCESS:          0 HIT:          0 MISS:          0
cpu0_ITLB PREFETCH     ACCESS:          0 HIT:          0 MISS:          0
cpu0_ITLB WRITE        ACCESS:          0 HIT:          0 MISS:          0
cpu0_ITLB TRANSLATION  ACCESS:          0 HIT:          0 MISS:          0
cpu0_ITLB PREFETCH REQUESTED:          0 ISSUED:          0 USEFUL:          0 USELESS:          0
cpu0_ITLB AVERAGE MISS LATENCY: 8.748 cycles
cpu0_ITLB TOTAL        ACCESS:          0 HIT:          0 MISS:          0
cpu0_ITLB LOAD         ACCESS:          0 HIT:          0 MISS:          0
cpu0_ITLB RFO          ACCESS:          0 HIT:          0 MISS:          0
cpu0_ITLB PREFETCH     ACCESS:          0 HIT:          0 MISS:          0
cpu0_ITLB WRITE        ACCESS:          0 HIT:          0 MISS:          0
cpu0_ITLB TRANSLATION  ACCESS:          0 HIT:          0 MISS:          0
cpu0_ITLB PREFETCH REQUESTED:          0 ISSUED:          0 USEFUL:          0 USELESS:          0
cpu0_ITLB AVERAGE MISS LATENCY: 8.748 cycles
cpu0_ITLB TOTAL        ACCESS:          0 HIT:          0 MISS:          0
cpu0_ITLB LOAD         ACCESS:          0 HIT:          0 MISS:          0
cpu0_ITLB RFO          ACCESS:          0 HIT:          0 MISS:          0
cpu0_ITLB PREFETCH     ACCESS:          0 HIT:          0 MISS:          0
cpu0_ITLB WRITE        ACCESS:          0 HIT:          0 MISS:          0
cpu0_ITLB TRANSLATION  ACCESS:          0 HIT:          0 MISS:          0
cpu0_ITLB PREFETCH REQUESTED:          0 ISSUED:          0 USEFUL:          0 USELESS:          0
cpu0_ITLB AVERAGE MISS LATENCY: 8.748 cycles
cpu0_ITLB TOTAL        ACCESS:          0 HIT:          0 MISS:          0
cpu0_ITLB LOAD         ACCESS:          0 HIT:          0 MISS:          0
cpu0_ITLB RFO          ACCESS:          0 HIT:          0 MISS:          0
cpu0_ITLB PREFETCH     ACCESS:          0 HIT:          0 MISS:          0
cpu0_ITLB WRITE        ACCESS:          0 HIT:          0 MISS:          0
cpu0_ITLB TRANSLATION  ACCESS:          0 HIT:          0 MISS:          0
cpu0_ITLB PREFETCH REQUESTED:          0 ISSUED:          0 USEFUL:          0 USELESS:          0
cpu0_ITLB AVERAGE MISS LATENCY: 8.748 cycles
cpu0_L1D TOTAL        ACCESS:   49791290 HIT:   44979231 MISS:    4812059
cpu0_L1D LOAD         ACCESS:   22914057 HIT:   19895375 MISS:    3018682
cpu0_L1D RFO          ACCESS:          0 HIT:          0 MISS:          0
cpu0_L1D PREFETCH     ACCESS:          0 HIT:          0 MISS:          0
cpu0_L1D WRITE        ACCESS:   25986042 HIT:   24938721 MISS:    1047321
cpu0_L1D TRANSLATION  ACCESS:     891191 HIT:     145135 MISS:     746056
cpu0_L1D PREFETCH REQUESTED:          0 ISSUED:          0 USEFUL:          0 USELESS:          0
cpu0_L1D AVERAGE MISS LATENCY: 229.2 cycles
cpu0_L1D TOTAL        ACCESS:          0 HIT:          0 MISS:          0
cpu0_L1D LOAD         ACCESS:          0 HIT:          0 MISS:          0
cpu0_L1D RFO          ACCESS:          0 HIT:          0 MISS:          0
cpu0_L1D PREFETCH     ACCESS:          0 HIT:          0 MISS:          0
cpu0_L1D WRITE        ACCESS:          0 HIT:          0 MISS:          0
cpu0_L1D TRANSLATION  ACCESS:          0 HIT:          0 MISS:          0
cpu0_L1D PREFETCH REQUESTED:          0 ISSUED:          0 USEFUL:          0 USELESS:          0
cpu0_L1D AVERAGE MISS LATENCY: 229.2 cycles
cpu0_L1D TOTAL        ACCESS:          0 HIT:          0 MISS:          0
cpu0_L1D LOAD         ACCESS:          0 HIT:          0 MISS:          0
cpu0_L1D RFO          ACCESS:          0 HIT:          0 MISS:          0
cpu0_L1D PREFETCH     ACCESS:          0 HIT:          0 MISS:          0
cpu0_L1D WRITE        ACCESS:          0 HIT:          0 MISS:          0
cpu0_L1D TRANSLATION  ACCESS:          0 HIT:          0 MISS:          0
cpu0_L1D PREFETCH REQUESTED:          0 ISSUED:          0 USEFUL:          0 USELESS:          0
cpu0_L1D AVERAGE MISS LATENCY: 229.2 cycles
cpu0_L1D TOTAL        ACCESS:          0 HIT:          0 MISS:          0
cpu0_L1D LOAD         ACCESS:          0 HIT:          0 MISS:          0
cpu0_L1D RFO          ACCESS:          0 HIT:          0 MISS:          0
cpu0_L1D PREFETCH     ACCESS:          0 HIT:          0 MISS:          0
cpu0_L1D WRITE        ACCESS:          0 HIT:          0 MISS:          0
cpu0_L1D TRANSLATION  ACCESS:          0 HIT:          0 MISS:          0
cpu0_L1D PREFETCH REQUESTED:          0 ISSUED:          0 USEFUL:          0 USELESS:          0
cpu0_L1D AVERAGE MISS LATENCY: 229.2 cycles
cpu0_L1I TOTAL        ACCESS:   12869949 HIT:   12795900 MISS:      74049
cpu0_L1I LOAD         ACCESS:   12869949 HIT:   12795900 MISS:      74049
cpu0_L1I RFO          ACCESS:          0 HIT:          0 MISS:          0
cpu0_L1I PREFETCH     ACCESS:          0 HIT:          0 MISS:          0
cpu0_L1I WRITE        ACCESS:          0 HIT:          0 MISS:          0
cpu0_L1I TRANSLATION  ACCESS:          0 HIT:          0 MISS:          0
cpu0_L1I PREFETCH REQUESTED:          0 ISSUED:          0 USEFUL:          0 USELESS:          0
cpu0_L1I AVERAGE MISS LATENCY: 39.19 cycles
cpu0_L1I TOTAL        ACCESS:          0 HIT:          0 MISS:          0
cpu0_L1I LOAD         ACCESS:          0 HIT:          0 MISS:          0
cpu0_L1I RFO          ACCESS:          0 HIT:          0 MISS:          0
cpu0_L1I PREFETCH     ACCESS:          0 HIT:          0 MISS:          0
cpu0_L1I WRITE        ACCESS:          0 HIT:          0 MISS:          0
cpu0_L1I TRANSLATION  ACCESS:          0 HIT:          0 MISS:          0
cpu0_L1I PREFETCH REQUESTED:          0 ISSUED:          0 USEFUL:          0 USELESS:          0
cpu0_L1I AVERAGE MISS LATENCY: 39.19 cycles
cpu0_L1I TOTAL        ACCESS:          0 HIT:          0 MISS:          0
cpu0_L1I LOAD         ACCESS:          0 HIT:          0 MISS:          0
cpu0_L1I RFO          ACCESS:          0 HIT:          0 MISS:          0
cpu0_L1I PREFETCH     ACCESS:          0 HIT:          0 MISS:          0
cpu0_L1I WRITE        ACCESS:          0 HIT:          0 MISS:          0
cpu0_L1I TRANSLATION  ACCESS:          0 HIT:          0 MISS:          0
cpu0_L1I PREFETCH REQUESTED:          0 ISSUED:          0 USEFUL:          0 USELESS:          0
cpu0_L1I AVERAGE MISS LATENCY: 39.19 cycles
cpu0_L1I TOTAL        ACCESS:          0 HIT:          0 MISS:          0
cpu0_L1I LOAD         ACCESS:          0 HIT:          0 MISS:          0
cpu0_L1I RFO          ACCESS:          0 HIT:          0 MISS:          0
cpu0_L1I PREFETCH     ACCESS:          0 HIT:          0 MISS:          0
cpu0_L1I WRITE        ACCESS:          0 HIT:          0 MISS:          0
cpu0_L1I TRANSLATION  ACCESS:          0 HIT:          0 MISS:          0
cpu0_L1I PREFETCH REQUESTED:          0 ISSUED:          0 USEFUL:          0 USELESS:          0
cpu0_L1I AVERAGE MISS LATENCY: 39.19 cycles
cpu0_L2C TOTAL        ACCESS:    8128000 HIT:    3198023 MISS:    4929977
cpu0_L2C LOAD         ACCESS:    2539743 HIT:     856860 MISS:    1682883
cpu0_L2C RFO          ACCESS:     365221 HIT:     107997 MISS:     257224
cpu0_L2C PREFETCH     ACCESS:    3076321 HIT:     685437 MISS:    2390884
cpu0_L2C WRITE        ACCESS:    1401448 HIT:    1399271 MISS:       2177
cpu0_L2C TRANSLATION  ACCESS:     745267 HIT:     148458 MISS:     596809
cpu0_L2C PREFETCH REQUESTED:    3077293 ISSUED:    3076321 USEFUL:       9010 USELESS:      16902
cpu0_L2C AVERAGE MISS LATENCY: 224.8 cycles
cpu0_L2C TOTAL        ACCESS:          0 HIT:          0 MISS:          0
cpu0_L2C LOAD         ACCESS:          0 HIT:          0 MISS:          0
cpu0_L2C RFO          ACCESS:          0 HIT:          0 MISS:          0
cpu0_L2C PREFETCH     ACCESS:          0 HIT:          0 MISS:          0
cpu0_L2C WRITE        ACCESS:          0 HIT:          0 MISS:          0
cpu0_L2C TRANSLATION  ACCESS:          0 HIT:          0 MISS:          0
cpu0_L2C PREFETCH REQUESTED:    3077293 ISSUED:    3076321 USEFUL:       9010 USELESS:      16902
cpu0_L2C AVERAGE MISS LATENCY: 224.8 cycles
cpu0_L2C TOTAL        ACCESS:          0 HIT:          0 MISS:          0
cpu0_L2C LOAD         ACCESS:          0 HIT:          0 MISS:          0
cpu0_L2C RFO          ACCESS:          0 HIT:          0 MISS:          0
cpu0_L2C PREFETCH     ACCESS:          0 HIT:          0 MISS:          0
cpu0_L2C WRITE        ACCESS:          0 HIT:          0 MISS:          0
cpu0_L2C TRANSLATION  ACCESS:          0 HIT:          0 MISS:          0
cpu0_L2C PREFETCH REQUESTED:    3077293 ISSUED:    3076321 USEFUL:       9010 USELESS:      16902
cpu0_L2C AVERAGE MISS LATENCY: 224.8 cycles
cpu0_L2C TOTAL        ACCESS:          0 HIT:          0 MISS:          0
cpu0_L2C LOAD         ACCESS:          0 HIT:          0 MISS:          0
cpu0_L2C RFO          ACCESS:          0 HIT:          0 MISS:          0
cpu0_L2C PREFETCH     ACCESS:          0 HIT:          0 MISS:          0
cpu0_L2C WRITE        ACCESS:          0 HIT:          0 MISS:          0
cpu0_L2C TRANSLATION  ACCESS:          0 HIT:          0 MISS:          0
cpu0_L2C PREFETCH REQUESTED:    3077293 ISSUED:    3076321 USEFUL:       9010 USELESS:      16902
cpu0_L2C AVERAGE MISS LATENCY: 224.8 cycles
cpu0_STLB TOTAL        ACCESS:    3013714 HIT:    2371270 MISS:     642444
cpu0_STLB LOAD         ACCESS:    3013714 HIT:    2371270 MISS:     642444
cpu0_STLB RFO          ACCESS:          0 HIT:          0 MISS:          0
cpu0_STLB PREFETCH     ACCESS:          0 HIT:          0 MISS:          0
cpu0_STLB WRITE        ACCESS:          0 HIT:          0 MISS:          0
cpu0_STLB TRANSLATION  ACCESS:          0 HIT:          0 MISS:          0
cpu0_STLB PREFETCH REQUESTED:          0 ISSUED:          0 USEFUL:          0 USELESS:          0
cpu0_STLB AVERAGE MISS LATENCY: 513.3 cycles
cpu0_STLB TOTAL        ACCESS:          0 HIT:          0 MISS:          0
cpu0_STLB LOAD         ACCESS:          0 HIT:          0 MISS:          0
cpu0_STLB RFO          ACCESS:          0 HIT:          0 MISS:          0
cpu0_STLB PREFETCH     ACCESS:          0 HIT:          0 MISS:          0
cpu0_STLB WRITE        ACCESS:          0 HIT:          0 MISS:          0
cpu0_STLB TRANSLATION  ACCESS:          0 HIT:          0 MISS:          0
cpu0_STLB PREFETCH REQUESTED:          0 ISSUED:          0 USEFUL:          0 USELESS:          0
cpu0_STLB AVERAGE MISS LATENCY: 513.3 cycles
cpu0_STLB TOTAL        ACCESS:          0 HIT:          0 MISS:          0
cpu0_STLB LOAD         ACCESS:          0 HIT:          0 MISS:          0
cpu0_STLB RFO          ACCESS:          0 HIT:          0 MISS:          0
cpu0_STLB PREFETCH     ACCESS:          0 HIT:          0 MISS:          0
cpu0_STLB WRITE        ACCESS:          0 HIT:          0 MISS:          0
cpu0_STLB TRANSLATION  ACCESS:          0 HIT:          0 MISS:          0
cpu0_STLB PREFETCH REQUESTED:          0 ISSUED:          0 USEFUL:          0 USELESS:          0
cpu0_STLB AVERAGE MISS LATENCY: 513.3 cycles
cpu0_STLB TOTAL        ACCESS:          0 HIT:          0 MISS:          0
cpu0_STLB LOAD         ACCESS:          0 HIT:          0 MISS:          0
cpu0_STLB RFO          ACCESS:          0 HIT:          0 MISS:          0
cpu0_STLB PREFETCH     ACCESS:          0 HIT:          0 MISS:          0
cpu0_STLB WRITE        ACCESS:          0 HIT:          0 MISS:          0
cpu0_STLB TRANSLATION  ACCESS:          0 HIT:          0 MISS:          0
cpu0_STLB PREFETCH REQUESTED:          0 ISSUED:          0 USEFUL:          0 USELESS:          0
cpu0_STLB AVERAGE MISS LATENCY: 513.3 cycles
cpu1_DTLB TOTAL        ACCESS:          0 HIT:          0 MISS:          0
cpu1_DTLB LOAD         ACCESS:          0 HIT:          0 MISS:          0
cpu1_DTLB RFO          ACCESS:          0 HIT:          0 MISS:          0
cpu1_DTLB PREFETCH     ACCESS:          0 HIT:          0 MISS:          0
cpu1_DTLB WRITE        ACCESS:          0 HIT:          0 MISS:          0
cpu1_DTLB TRANSLATION  ACCESS:          0 HIT:          0 MISS:          0
cpu1_DTLB PREFETCH REQUESTED:          0 ISSUED:          0 USEFUL:          0 USELESS:          0
cpu1_DTLB AVERAGE MISS LATENCY: 21.12 cycles
cpu1_DTLB TOTAL        ACCESS:  138231566 HIT:  138203638 MISS:      27928
cpu1_DTLB LOAD         ACCESS:  138231566 HIT:  138203638 MISS:      27928
cpu1_DTLB RFO          ACCESS:          0 HIT:          0 MISS:          0
cpu1_DTLB PREFETCH     ACCESS:          0 HIT:          0 MISS:          0
cpu1_DTLB WRITE        ACCESS:          0 HIT:          0 MISS:          0
cpu1_DTLB TRANSLATION  ACCESS:          0 HIT:          0 MISS:          0
cpu1_DTLB PREFETCH REQUESTED:          0 ISSUED:          0 USEFUL:          0 USELESS:          0
cpu1_DTLB AVERAGE MISS LATENCY: 21.12 cycles
cpu1_DTLB TOTAL        ACCESS:          0 HIT:          0 MISS:          0
cpu1_DTLB LOAD         ACCESS:          0 HIT:          0 MISS:          0
cpu1_DTLB RFO          ACCESS:          0 HIT:          0 MISS:          0
cpu1_DTLB PREFETCH     ACCESS:          0 HIT:          0 MISS:          0
cpu1_DTLB WRITE        ACCESS:          0 HIT:          0 MISS:          0
cpu1_DTLB TRANSLATION  ACCESS:          0 HIT:          0 MISS:          0
cpu1_DTLB PREFETCH REQUESTED:          0 ISSUED:          0 USEFUL:          0 USELESS:          0
cpu1_DTLB AVERAGE MISS LATENCY: 21.12 cycles
cpu1_DTLB TOTAL        ACCESS:          0 HIT:          0 MISS:          0
cpu1_DTLB LOAD         ACCESS:          0 HIT:          0 MISS:          0
cpu1_DTLB RFO          ACCESS:          0 HIT:          0 MISS:          0
cpu1_DTLB PREFETCH     ACCESS:          0 HIT:          0 MISS:          0
cpu1_DTLB WRITE        ACCESS:          0 HIT:          0 MISS:          0
cpu1_DTLB TRANSLATION  ACCESS:          0 HIT:          0 MISS:          0
cpu1_DTLB PREFETCH REQUESTED:          0 ISSUED:          0 USEFUL:          0 USELESS:          0
cpu1_DTLB AVERAGE MISS LATENCY: 21.12 cycles
cpu1_ITLB TOTAL        ACCESS:          0 HIT:          0 MISS:          0
cpu1_ITLB LOAD         ACCESS:          0 HIT:          0 MISS:          0
cpu1_ITLB RFO          ACCESS:          0 HIT:          0 MISS:          0
cpu1_ITLB PREFETCH     ACCESS:          0 HIT:          0 MISS:          0
cpu1_ITLB WRITE        ACCESS:          0 HIT:          0 MISS:          0
cpu1_ITLB TRANSLATION  ACCESS:          0 HIT:          0 MISS:          0
cpu1_ITLB PREFETCH REQUESTED:          0 ISSUED:          0 USEFUL:          0 USELESS:          0
cpu1_ITLB AVERAGE MISS LATENCY: -nan cycles
cpu1_ITLB TOTAL        ACCESS:    3452260 HIT:    3452260 MISS:          0
cpu1_ITLB LOAD         ACCESS:    3452260 HIT:    3452260 MISS:          0
cpu1_ITLB RFO          ACCESS:          0 HIT:          0 MISS:          0
cpu1_ITLB PREFETCH     ACCESS:          0 HIT:          0 MISS:          0
cpu1_ITLB WRITE        ACCESS:          0 HIT:          0 MISS:          0
cpu1_ITLB TRANSLATION  ACCESS:          0 HIT:          0 MISS:          0
cpu1_ITLB PREFETCH REQUESTED:          0 ISSUED:          0 USEFUL:          0 USELESS:          0
cpu1_ITLB AVERAGE MISS LATENCY: -nan cycles
cpu1_ITLB TOTAL        ACCESS:          0 HIT:          0 MISS:          0
cpu1_ITLB LOAD         ACCESS:          0 HIT:          0 MISS:          0
cpu1_ITLB RFO          ACCESS:          0 HIT:          0 MISS:          0
cpu1_ITLB PREFETCH     ACCESS:          0 HIT:          0 MISS:          0
cpu1_ITLB WRITE        ACCESS:          0 HIT:          0 MISS:          0
cpu1_ITLB TRANSLATION  ACCESS:          0 HIT:          0 MISS:          0
cpu1_ITLB PREFETCH REQUESTED:          0 ISSUED:          0 USEFUL:          0 USELESS:          0
cpu1_ITLB AVERAGE MISS LATENCY: -nan cycles
cpu1_ITLB TOTAL        ACCESS:          0 HIT:          0 MISS:          0
cpu1_ITLB LOAD         ACCESS:          0 HIT:          0 MISS:          0
cpu1_ITLB RFO          ACCESS:          0 HIT:          0 MISS:          0
cpu1_ITLB PREFETCH     ACCESS:          0 HIT:          0 MISS:          0
cpu1_ITLB WRITE        ACCESS:          0 HIT:          0 MISS:          0
cpu1_ITLB TRANSLATION  ACCESS:          0 HIT:          0 MISS:          0
cpu1_ITLB PREFETCH REQUESTED:          0 ISSUED:          0 USEFUL:          0 USELESS:          0
cpu1_ITLB AVERAGE MISS LATENCY: -nan cycles
cpu1_L1D TOTAL        ACCESS:          0 HIT:          0 MISS:          0
cpu1_L1D LOAD         ACCESS:          0 HIT:          0 MISS:          0
cpu1_L1D RFO          ACCESS:          0 HIT:          0 MISS:          0
cpu1_L1D PREFETCH     ACCESS:          0 HIT:          0 MISS:          0
cpu1_L1D WRITE        ACCESS:          0 HIT:          0 MISS:          0
cpu1_L1D TRANSLATION  ACCESS:          0 HIT:          0 MISS:          0
cpu1_L1D PREFETCH REQUESTED:          0 ISSUED:          0 USEFUL:          0 USELESS:          0
cpu1_L1D AVERAGE MISS LATENCY: 389 cycles
cpu1_L1D TOTAL        ACCESS:  204350370 HIT:  202924631 MISS:    1425739
cpu1_L1D LOAD         ACCESS:  162011954 HIT:  161965687 MISS:      46267
cpu1_L1D RFO          ACCESS:          0 HIT:          0 MISS:          0
cpu1_L1D PREFETCH     ACCESS:          0 HIT:          0 MISS:          0
cpu1_L1D WRITE        ACCESS:   42335097 HIT:   40956035 MISS:    1379062
cpu1_L1D TRANSLATION  ACCESS:       3319 HIT:       2909 MISS:        410
cpu1_L1D PREFETCH REQUESTED:          0 ISSUED:          0 USEFUL:          0 USELESS:          0
cpu1_L1D AVERAGE MISS LATENCY: 389 cycles
cpu1_L1D TOTAL        ACCESS:          0 HIT:          0 MISS:          0
cpu1_L1D LOAD         ACCESS:          0 HIT:          0 MISS:          0
cpu1_L1D RFO          ACCESS:          0 HIT:          0 MISS:          0
cpu1_L1D PREFETCH     ACCESS:          0 HIT:          0 MISS:          0
cpu1_L1D WRITE        ACCESS:          0 HIT:          0 MISS:          0
cpu1_L1D TRANSLATION  ACCESS:          0 HIT:          0 MISS:          0
cpu1_L1D PREFETCH REQUESTED:          0 ISSUED:          0 USEFUL:          0 USELESS:          0
cpu1_L1D AVERAGE MISS LATENCY: 389 cycles
cpu1_L1D TOTAL        ACCESS:          0 HIT:          0 MISS:          0
cpu1_L1D LOAD         ACCESS:          0 HIT:          0 MISS:          0
cpu1_L1D RFO          ACCESS:          0 HIT:          0 MISS:          0
cpu1_L1D PREFETCH     ACCESS:          0 HIT:          0 MISS:          0
cpu1_L1D WRITE        ACCESS:          0 HIT:          0 MISS:          0
cpu1_L1D TRANSLATION  ACCESS:          0 HIT:          0 MISS:          0
cpu1_L1D PREFETCH REQUESTED:          0 ISSUED:          0 USEFUL:          0 USELESS:          0
cpu1_L1D AVERAGE MISS LATENCY: 389 cycles
cpu1_L1I TOTAL        ACCESS:          0 HIT:          0 MISS:          0
cpu1_L1I LOAD         ACCESS:          0 HIT:          0 MISS:          0
cpu1_L1I RFO          ACCESS:          0 HIT:          0 MISS:          0
cpu1_L1I PREFETCH     ACCESS:          0 HIT:          0 MISS:          0
cpu1_L1I WRITE        ACCESS:          0 HIT:          0 MISS:          0
cpu1_L1I TRANSLATION  ACCESS:          0 HIT:          0 MISS:          0
cpu1_L1I PREFETCH REQUESTED:          0 ISSUED:          0 USEFUL:          0 USELESS:          0
cpu1_L1I AVERAGE MISS LATENCY: -nan cycles
cpu1_L1I TOTAL        ACCESS:    4186570 HIT:    4186570 MISS:          0
cpu1_L1I LOAD         ACCESS:    4186570 HIT:    4186570 MISS:          0
cpu1_L1I RFO          ACCESS:          0 HIT:          0 MISS:          0
cpu1_L1I PREFETCH     ACCESS:          0 HIT:          0 MISS:          0
cpu1_L1I WRITE        ACCESS:          0 HIT:          0 MISS:          0
cpu1_L1I TRANSLATION  ACCESS:          0 HIT:          0 MISS:          0
cpu1_L1I PREFETCH REQUESTED:          0 ISSUED:          0 USEFUL:          0 USELESS:          0
cpu1_L1I AVERAGE MISS LATENCY: -nan cycles
cpu1_L1I TOTAL        ACCESS:          0 HIT:          0 MISS:          0
cpu1_L1I LOAD         ACCESS:          0 HIT:          0 MISS:          0
cpu1_L1I RFO          ACCESS:          0 HIT:          0 MISS:          0
cpu1_L1I PREFETCH     ACCESS:          0 HIT:          0 MISS:          0
cpu1_L1I WRITE        ACCESS:          0 HIT:          0 MISS:          0
cpu1_L1I TRANSLATION  ACCESS:          0 HIT:          0 MISS:          0
cpu1_L1I PREFETCH REQUESTED:          0 ISSUED:          0 USEFUL:          0 USELESS:          0
cpu1_L1I AVERAGE MISS LATENCY: -nan cycles
cpu1_L1I TOTAL        ACCESS:          0 HIT:          0 MISS:          0
cpu1_L1I LOAD         ACCESS:          0 HIT:          0 MISS:          0
cpu1_L1I RFO          ACCESS:          0 HIT:          0 MISS:          0
cpu1_L1I PREFETCH     ACCESS:          0 HIT:          0 MISS:          0
cpu1_L1I WRITE        ACCESS:          0 HIT:          0 MISS:          0
cpu1_L1I TRANSLATION  ACCESS:          0 HIT:          0 MISS:          0
cpu1_L1I PREFETCH REQUESTED:          0 ISSUED:          0 USEFUL:          0 USELESS:          0
cpu1_L1I AVERAGE MISS LATENCY: -nan cycles
cpu1_L2C TOTAL        ACCESS:          0 HIT:          0 MISS:          0
cpu1_L2C LOAD         ACCESS:          0 HIT:          0 MISS:          0
cpu1_L2C RFO          ACCESS:          0 HIT:          0 MISS:          0
cpu1_L2C PREFETCH     ACCESS:          0 HIT:          0 MISS:          0
cpu1_L2C WRITE        ACCESS:          0 HIT:          0 MISS:          0
cpu1_L2C TRANSLATION  ACCESS:          0 HIT:          0 MISS:          0
cpu1_L2C PREFETCH REQUESTED:     267038 ISSUED:     266750 USEFUL:      18605 USELESS:         13
cpu1_L2C AVERAGE MISS LATENCY: 1268 cycles
cpu1_L2C TOTAL        ACCESS:     660225 HIT:     200735 MISS:     459490
cpu1_L2C LOAD         ACCESS:      37650 HIT:      18854 MISS:      18796
cpu1_L2C RFO          ACCESS:     177607 HIT:       1308 MISS:     176299
cpu1_L2C PREFETCH     ACCESS:     266750 HIT:       2600 MISS:     264150
cpu1_L2C WRITE        ACCESS:     177808 HIT:     177586 MISS:        222
cpu1_L2C TRANSLATION  ACCESS:        410 HIT:        387 MISS:         23
cpu1_L2C PREFETCH REQUESTED:     267038 ISSUED:     266750 USEFUL:      18605 USELESS:         13
cpu1_L2C AVERAGE MISS LATENCY: 1268 cycles
cpu1_L2C TOTAL        ACCESS:          0 HIT:          0 MISS:          0
cpu1_L2C LOAD         ACCESS:          0 HIT:          0 MISS:          0
cpu1_L2C RFO          ACCESS:          0 HIT:          0 MISS:          0
cpu1_L2C PREFETCH     ACCESS:          0 HIT:          0 MISS:          0
cpu1_L2C WRITE        ACCESS:          0 HIT:          0 MISS:          0
cpu1_L2C TRANSLATION  ACCESS:          0 HIT:          0 MISS:          0
cpu1_L2C PREFETCH REQUESTED:     267038 ISSUED:     266750 USEFUL:      18605 USELESS:         13
cpu1_L2C AVERAGE MISS LATENCY: 1268 cycles
cpu1_L2C TOTAL        ACCESS:          0 HIT:          0 MISS:          0
cpu1_L2C LOAD         ACCESS:          0 HIT:          0 MISS:          0
cpu1_L2C RFO          ACCESS:          0 HIT:          0 MISS:          0
cpu1_L2C PREFETCH     ACCESS:          0 HIT:          0 MISS:          0
cpu1_L2C WRITE        ACCESS:          0 HIT:          0 MISS:          0
cpu1_L2C TRANSLATION  ACCESS:          0 HIT:          0 MISS:          0
cpu1_L2C PREFETCH REQUESTED:     267038 ISSUED:     266750 USEFUL:      18605 USELESS:         13
cpu1_L2C AVERAGE MISS LATENCY: 1268 cycles
cpu1_STLB TOTAL        ACCESS:          0 HIT:          0 MISS:          0
cpu1_STLB LOAD         ACCESS:          0 HIT:          0 MISS:          0
cpu1_STLB RFO          ACCESS:          0 HIT:          0 MISS:          0
cpu1_STLB PREFETCH     ACCESS:          0 HIT:          0 MISS:          0
cpu1_STLB WRITE        ACCESS:          0 HIT:          0 MISS:          0
cpu1_STLB TRANSLATION  ACCESS:          0 HIT:          0 MISS:          0
cpu1_STLB PREFETCH REQUESTED:          0 ISSUED:          0 USEFUL:          0 USELESS:          0
cpu1_STLB AVERAGE MISS LATENCY: 229.1 cycles
cpu1_STLB TOTAL        ACCESS:       3459 HIT:        146 MISS:       3313
cpu1_STLB LOAD         ACCESS:       3459 HIT:        146 MISS:       3313
cpu1_STLB RFO          ACCESS:          0 HIT:          0 MISS:          0
cpu1_STLB PREFETCH     ACCESS:          0 HIT:          0 MISS:          0
cpu1_STLB WRITE        ACCESS:          0 HIT:          0 MISS:          0
cpu1_STLB TRANSLATION  ACCESS:          0 HIT:          0 MISS:          0
cpu1_STLB PREFETCH REQUESTED:          0 ISSUED:          0 USEFUL:          0 USELESS:          0
cpu1_STLB AVERAGE MISS LATENCY: 229.1 cycles
cpu1_STLB TOTAL        ACCESS:          0 HIT:          0 MISS:          0
cpu1_STLB LOAD         ACCESS:          0 HIT:          0 MISS:          0
cpu1_STLB RFO          ACCESS:          0 HIT:          0 MISS:          0
cpu1_STLB PREFETCH     ACCESS:          0 HIT:          0 MISS:          0
cpu1_STLB WRITE        ACCESS:          0 HIT:          0 MISS:          0
cpu1_STLB TRANSLATION  ACCESS:          0 HIT:          0 MISS:          0
cpu1_STLB PREFETCH REQUESTED:          0 ISSUED:          0 USEFUL:          0 USELESS:          0
cpu1_STLB AVERAGE MISS LATENCY: 229.1 cycles
cpu1_STLB TOTAL        ACCESS:          0 HIT:          0 MISS:          0
cpu1_STLB LOAD         ACCESS:          0 HIT:          0 MISS:          0
cpu1_STLB RFO          ACCESS:          0 HIT:          0 MISS:          0
cpu1_STLB PREFETCH     ACCESS:          0 HIT:          0 MISS:          0
cpu1_STLB WRITE        ACCESS:          0 HIT:          0 MISS:          0
cpu1_STLB TRANSLATION  ACCESS:          0 HIT:          0 MISS:          0
cpu1_STLB PREFETCH REQUESTED:          0 ISSUED:          0 USEFUL:          0 USELESS:          0
cpu1_STLB AVERAGE MISS LATENCY: 229.1 cycles
cpu2_DTLB TOTAL        ACCESS:          0 HIT:          0 MISS:          0
cpu2_DTLB LOAD         ACCESS:          0 HIT:          0 MISS:          0
cpu2_DTLB RFO          ACCESS:          0 HIT:          0 MISS:          0
cpu2_DTLB PREFETCH     ACCESS:          0 HIT:          0 MISS:          0
cpu2_DTLB WRITE        ACCESS:          0 HIT:          0 MISS:          0
cpu2_DTLB TRANSLATION  ACCESS:          0 HIT:          0 MISS:          0
cpu2_DTLB PREFETCH REQUESTED:          0 ISSUED:          0 USEFUL:          0 USELESS:          0
cpu2_DTLB AVERAGE MISS LATENCY: 54.95 cycles
cpu2_DTLB TOTAL        ACCESS:          0 HIT:          0 MISS:          0
cpu2_DTLB LOAD         ACCESS:          0 HIT:          0 MISS:          0
cpu2_DTLB RFO          ACCESS:          0 HIT:          0 MISS:          0
cpu2_DTLB PREFETCH     ACCESS:          0 HIT:          0 MISS:          0
cpu2_DTLB WRITE        ACCESS:          0 HIT:          0 MISS:          0
cpu2_DTLB TRANSLATION  ACCESS:          0 HIT:          0 MISS:          0
cpu2_DTLB PREFETCH REQUESTED:          0 ISSUED:          0 USEFUL:          0 USELESS:          0
cpu2_DTLB AVERAGE MISS LATENCY: 54.95 cycles
cpu2_DTLB TOTAL        ACCESS:  122617736 HIT:  122419843 MISS:     197893
[...]
cpu2_L1I WRITE        ACCESS:          0 HIT:          0 MISS:          0
cpu2_L1I TRANSLATION  ACCESS:          0 HIT:          0 MISS:          0
cpu2_L1I PREFETCH REQUESTED:          0 ISSUED:          0 USEFUL:          0 USELESS:          0
cpu2_L1I AVERAGE MISS LATENCY: 526.9 cycles
cpu2_L1I TOTAL        ACCESS:          0 HIT:          0 MISS:          0
cpu2_L1I LOAD         ACCESS:          0 HIT:          0 MISS:          0
cpu2_L1I RFO          ACCESS:          0 HIT:          0 MISS:          0
cpu2_L1I PREFETCH     ACCESS:          0 HIT:          0 MISS:          0
cpu2_L1I WRITE        ACCESS:          0 HIT:          0 MISS:          0
cpu2_L1I TRANSLATION  ACCESS:          0 HIT:          0 MISS:          0
cpu2_L1I PREFETCH REQUESTED:          0 ISSUED:          0 USEFUL:          0 USELESS:          0
cpu2_L1I AVERAGE MISS LATENCY: 526.9 cycles
cpu2_L2C TOTAL        ACCESS:          0 HIT:          0 MISS:          0
cpu2_L2C LOAD         ACCESS:          0 HIT:          0 MISS:          0
cpu2_L2C RFO          ACCESS:          0 HIT:          0 MISS:          0
cpu2_L2C PREFETCH     ACCESS:          0 HIT:          0 MISS:          0
cpu2_L2C WRITE        ACCESS:          0 HIT:          0 MISS:          0
cpu2_L2C TRANSLATION  ACCESS:          0 HIT:          0 MISS:          0
cpu2_L2C PREFETCH REQUESTED:    7442683 ISSUED:    6038077 USEFUL:     345694 USELESS:       7184
cpu2_L2C AVERAGE MISS LATENCY: 328.7 cycles
cpu2_L2C TOTAL        ACCESS:          0 HIT:          0 MISS:          0
cpu2_L2C LOAD         ACCESS:          0 HIT:          0 MISS:          0
cpu2_L2C RFO          ACCESS:          0 HIT:          0 MISS:          0
cpu2_L2C PREFETCH     ACCESS:          0 HIT:          0 MISS:          0
cpu2_L2C WRITE        ACCESS:          0 HIT:          0 MISS:          0
cpu2_L2C TRANSLATION  ACCESS:          0 HIT:          0 MISS:          0
cpu2_L2C PREFETCH REQUESTED:    7442683 ISSUED:    6038077 USEFUL:     345694 USELESS:       7184
cpu2_L2C AVERAGE MISS LATENCY: 328.7 cycles
cpu2_L2C TOTAL        ACCESS:      42843 HIT:      13752 MISS:      29091
cpu2_L2C LOAD         ACCESS:      12736 HIT:       4542 MISS:       8194
cpu2_L2C RFO          ACCESS:       8730 HIT:        367 MISS:       8363
cpu2_L2C PREFETCH     ACCESS:      12592 HIT:        107 MISS:      12485
cpu2_L2C WRITE        ACCESS:       8736 HIT:       8736 MISS:          0
cpu2_L2C TRANSLATION  ACCESS:         49 HIT:          0 MISS:         49
cpu2_L2C PREFETCH REQUESTED:    7442683 ISSUED:    6038077 USEFUL:     345694 USELESS:       7184
cpu2_L2C AVERAGE MISS LATENCY: 328.7 cycles
cpu2_L2C TOTAL        ACCESS:          0 HIT:          0 MISS:          0
cpu2_L2C LOAD         ACCESS:          0 HIT:          0 MISS:          0
cpu2_L2C RFO          ACCESS:          0 HIT:          0 MISS:          0
cpu2_L2C PREFETCH     ACCESS:          0 HIT:          0 MISS:          0
cpu2_L2C WRITE        ACCESS:          0 HIT:          0 MISS:          0
cpu2_L2C TRANSLATION  ACCESS:          0 HIT:          0 MISS:          0
cpu2_L2C PREFETCH REQUESTED:    7442683 ISSUED:    6038077 USEFUL:     345694 USELESS:       7184
cpu2_L2C AVERAGE MISS LATENCY: 328.7 cycles
cpu2_STLB TOTAL        ACCESS:          0 HIT:          0 MISS:          0
cpu2_STLB LOAD         ACCESS:          0 HIT:          0 MISS:          0
cpu2_STLB RFO          ACCESS:          0 HIT:          0 MISS:          0
cpu2_STLB PREFETCH     ACCESS:          0 HIT:          0 MISS:          0
cpu2_STLB WRITE        ACCESS:          0 HIT:          0 MISS:          0
cpu2_STLB TRANSLATION  ACCESS:          0 HIT:          0 MISS:          0
cpu2_STLB PREFETCH REQUESTED:          0 ISSUED:          0 USEFUL:          0 USELESS:          0
cpu2_STLB AVERAGE MISS LATENCY: 458.1 cycles
cpu2_STLB TOTAL        ACCESS:          0 HIT:          0 MISS:          0
cpu2_STLB LOAD         ACCESS:          0 HIT:          0 MISS:          0
cpu2_STLB RFO          ACCESS:          0 HIT:          0 MISS:          0
cpu2_STLB PREFETCH     ACCESS:          0 HIT:          0 MISS:          0
cpu2_STLB WRITE        ACCESS:          0 HIT:          0 MISS:          0
cpu2_STLB TRANSLATION  ACCESS:          0 HIT:          0 MISS:          0
cpu2_STLB PREFETCH REQUESTED:          0 ISSUED:          0 USEFUL:          0 USELESS:          0
cpu2_STLB AVERAGE MISS LATENCY: 458.1 cycles
cpu2_STLB TOTAL        ACCESS:        484 HIT:         49 MISS:        435
cpu2_STLB LOAD         ACCESS:        484 HIT:         49 MISS:        435
cpu2_STLB RFO          ACCESS:          0 HIT:          0 MISS:          0
cpu2_STLB PREFETCH     ACCESS:          0 HIT:          0 MISS:          0
cpu2_STLB WRITE        ACCESS:          0 HIT:          0 MISS:          0
cpu2_STLB TRANSLATION  ACCESS:          0 HIT:          0 MISS:          0
cpu2_STLB PREFETCH REQUESTED:          0 ISSUED:          0 USEFUL:          0 USELESS:          0
cpu2_STLB AVERAGE MISS LATENCY: 458.1 cycles
cpu2_STLB TOTAL        ACCESS:          0 HIT:          0 MISS:          0
cpu2_STLB LOAD         ACCESS:          0 HIT:          0 MISS:          0
cpu2_STLB RFO          ACCESS:          0 HIT:          0 MISS:          0
cpu2_STLB PREFETCH     ACCESS:          0 HIT:          0 MISS:          0
cpu2_STLB WRITE        ACCESS:          0 HIT:          0 MISS:          0
cpu2_STLB TRANSLATION  ACCESS:          0 HIT:          0 MISS:          0
cpu2_STLB PREFETCH REQUESTED:          0 ISSUED:          0 USEFUL:          0 USELESS:          0
cpu2_STLB AVERAGE MISS LATENCY: 458.1 cycles
cpu3_DTLB TOTAL        ACCESS:          0 HIT:          0 MISS:          0
cpu3_DTLB LOAD         ACCESS:          0 HIT:          0 MISS:          0
cpu3_DTLB RFO          ACCESS:          0 HIT:          0 MISS:          0
cpu3_DTLB PREFETCH     ACCESS:          0 HIT:          0 MISS:          0
cpu3_DTLB WRITE        ACCESS:          0 HIT:          0 MISS:          0
cpu3_DTLB TRANSLATION  ACCESS:          0 HIT:          0 MISS:          0
cpu3_DTLB PREFETCH REQUESTED:          0 ISSUED:          0 USEFUL:          0 USELESS:          0
cpu3_DTLB AVERAGE MISS LATENCY: 9.984 cycles
cpu3_DTLB TOTAL        ACCESS:          0 HIT:          0 MISS:          0
cpu3_DTLB LOAD         ACCESS:          0 HIT:          0 MISS:          0
cpu3_DTLB RFO          ACCESS:          0 HIT:          0 MISS:          0
cpu3_DTLB PREFETCH     ACCESS:          0 HIT:          0 MISS:          0
cpu3_DTLB WRITE        ACCESS:          0 HIT:          0 MISS:          0
cpu3_DTLB TRANSLATION  ACCESS:          0 HIT:          0 MISS:          0
cpu3_DTLB PREFETCH REQUESTED:          0 ISSUED:          0 USEFUL:          0 USELESS:          0
cpu3_DTLB AVERAGE MISS LATENCY: 9.984 cycles
cpu3_DTLB TOTAL        ACCESS:          0 HIT:          0 MISS:          0
cpu3_DTLB LOAD         ACCESS:          0 HIT:          0 MISS:          0
cpu3_DTLB RFO          ACCESS:          0 HIT:          0 MISS:          0
cpu3_DTLB PREFETCH     ACCESS:          0 HIT:          0 MISS:          0
cpu3_DTLB WRITE        ACCESS:          0 HIT:          0 MISS:          0
cpu3_DTLB TRANSLATION  ACCESS:          0 HIT:          0 MISS:          0
cpu3_DTLB PREFETCH REQUESTED:          0 ISSUED:          0 USEFUL:          0 USELESS:          0
cpu3_DTLB AVERAGE MISS LATENCY: 9.984 cycles
cpu3_DTLB TOTAL        ACCESS:   17700688 HIT:   17690235 MISS:      10453
cpu3_DTLB LOAD         ACCESS:   17700688 HIT:   17690235 MISS:      10453
cpu3_DTLB RFO          ACCESS:          0 HIT:          0 MISS:          0
cpu3_DTLB PREFETCH     ACCESS:          0 HIT:          0 MISS:          0
cpu3_DTLB WRITE        ACCESS:          0 HIT:          0 MISS:          0
cpu3_DTLB TRANSLATION  ACCESS:          0 HIT:          0 MISS:          0
cpu3_DTLB PREFETCH REQUESTED:          0 ISSUED:          0 USEFUL:          0 USELESS:          0
cpu3_DTLB AVERAGE MISS LATENCY: 9.984 cycles
cpu3_ITLB TOTAL        ACCESS:          0 HIT:          0 MISS:          0
cpu3_ITLB LOAD         ACCESS:          0 HIT:          0 MISS:          0
cpu3_ITLB RFO          ACCESS:          0 HIT:          0 MISS:          0
cpu3_ITLB PREFETCH     ACCESS:          0 HIT:          0 MISS:          0
cpu3_ITLB WRITE        ACCESS:          0 HIT:          0 MISS:          0
cpu3_ITLB TRANSLATION  ACCESS:          0 HIT:          0 MISS:          0
cpu3_ITLB PREFETCH REQUESTED:          0 ISSUED:          0 USEFUL:          0 USELESS:          0
cpu3_ITLB AVERAGE MISS LATENCY: 464 cycles
cpu3_ITLB TOTAL        ACCESS:          0 HIT:          0 MISS:          0
cpu3_ITLB LOAD         ACCESS:          0 HIT:          0 MISS:          0
cpu3_ITLB RFO          ACCESS:          0 HIT:          0 MISS:          0
cpu3_ITLB PREFETCH     ACCESS:          0 HIT:          0 MISS:          0
cpu3_ITLB WRITE        ACCESS:          0 HIT:          0 MISS:          0
cpu3_ITLB TRANSLATION  ACCESS:          0 HIT:          0 MISS:          0
cpu3_ITLB PREFETCH REQUESTED:          0 ISSUED:          0 USEFUL:          0 USELESS:          0
cpu3_ITLB AVERAGE MISS LATENCY: 464 cycles
cpu3_ITLB TOTAL        ACCESS:          0 HIT:          0 MISS:          0
cpu3_ITLB LOAD         ACCESS:          0 HIT:          0 MISS:          0
cpu3_ITLB RFO          ACCESS:          0 HIT:          0 MISS:          0
cpu3_ITLB PREFETCH     ACCESS:          0 HIT:          0 MISS:          0
cpu3_ITLB WRITE        ACCESS:          0 HIT:          0 MISS:          0
cpu3_ITLB TRANSLATION  ACCESS:          0 HIT:          0 MISS:          0
cpu3_ITLB PREFETCH REQUESTED:          0 ISSUED:          0 USEFUL:          0 USELESS:          0
cpu3_ITLB AVERAGE MISS LATENCY: 464 cycles
cpu3_ITLB TOTAL        ACCESS:     512738 HIT:     512738 MISS:          0
cpu3_ITLB LOAD         ACCESS:     512738 HIT:     512738 MISS:          0
cpu3_ITLB RFO          ACCESS:          0 HIT:          0 MISS:          0
cpu3_ITLB PREFETCH     ACCESS:          0 HIT:          0 MISS:          0
cpu3_ITLB WRITE        ACCESS:          0 HIT:          0 MISS:          0
cpu3_ITLB TRANSLATION  ACCESS:          0 HIT:          0 MISS:          0
cpu3_ITLB PREFETCH REQUESTED:          0 ISSUED:          0 USEFUL:          0 USELESS:          0
cpu3_ITLB AVERAGE MISS LATENCY: 464 cycles
cpu3_L1D TOTAL        ACCESS:          0 HIT:          0 MISS:          0
cpu3_L1D LOAD         ACCESS:          0 HIT:          0 MISS:          0
cpu3_L1D RFO          ACCESS:          0 HIT:          0 MISS:          0
cpu3_L1D PREFETCH     ACCESS:          0 HIT:          0 MISS:          0
cpu3_L1D WRITE        ACCESS:          0 HIT:          0 MISS:          0
cpu3_L1D TRANSLATION  ACCESS:          0 HIT:          0 MISS:          0
cpu3_L1D PREFETCH REQUESTED:          0 ISSUED:          0 USEFUL:          0 USELESS:          0
cpu3_L1D AVERAGE MISS LATENCY: 173.3 cycles
cpu3_L1D TOTAL        ACCESS:          0 HIT:          0 MISS:          0
cpu3_L1D LOAD         ACCESS:          0 HIT:          0 MISS:          0
cpu3_L1D RFO          ACCESS:          0 HIT:          0 MISS:          0
cpu3_L1D PREFETCH     ACCESS:          0 HIT:          0 MISS:          0
cpu3_L1D WRITE        ACCESS:          0 HIT:          0 MISS:          0
cpu3_L1D TRANSLATION  ACCESS:          0 HIT:          0 MISS:          0
cpu3_L1D PREFETCH REQUESTED:          0 ISSUED:          0 USEFUL:          0 USELESS:          0
cpu3_L1D AVERAGE MISS LATENCY: 173.3 cycles
cpu3_L1D TOTAL        ACCESS:          0 HIT:          0 MISS:          0
cpu3_L1D LOAD         ACCESS:          0 HIT:          0 MISS:          0
cpu3_L1D RFO          ACCESS:          0 HIT:          0 MISS:          0
cpu3_L1D PREFETCH     ACCESS:          0 HIT:          0 MISS:          0
cpu3_L1D WRITE        ACCESS:          0 HIT:          0 MISS:          0
cpu3_L1D TRANSLATION  ACCESS:          0 HIT:          0 MISS:          0
cpu3_L1D PREFETCH REQUESTED:          0 ISSUED:          0 USEFUL:          0 USELESS:          0
cpu3_L1D AVERAGE MISS LATENCY: 173.3 cycles
cpu3_L1D TOTAL        ACCESS:   22016025 HIT:   22007167 MISS:       8858
cpu3_L1D LOAD         ACCESS:   16453474 HIT:   16450767 MISS:       2707
cpu3_L1D RFO          ACCESS:          0 HIT:          0 MISS:          0
cpu3_L1D PREFETCH     ACCESS:          0 HIT:          0 MISS:          0
cpu3_L1D WRITE        ACCESS:    5562380 HIT:    5556382 MISS:       5998
cpu3_L1D TRANSLATION  ACCESS:        171 HIT:         18 MISS:        153
cpu3_L1D PREFETCH REQUESTED:          0 ISSUED:          0 USEFUL:          0 USELESS:          0
cpu3_L1D AVERAGE MISS LATENCY: 173.3 cycles
cpu3_L1I TOTAL        ACCESS:          0 HIT:          0 MISS:          0
cpu3_L1I LOAD         ACCESS:          0 HIT:          0 MISS:          0
cpu3_L1I RFO          ACCESS:          0 HIT:          0 MISS:          0
cpu3_L1I PREFETCH     ACCESS:          0 HIT:          0 MISS:          0
cpu3_L1I WRITE        ACCESS:          0 HIT:          0 MISS:          0
cpu3_L1I TRANSLATION  ACCESS:          0 HIT:          0 MISS:          0
cpu3_L1I PREFETCH REQUESTED:          0 ISSUED:          0 USEFUL:          0 USELESS:          0
cpu3_L1I AVERAGE MISS LATENCY: 12.95 cycles
cpu3_L1I TOTAL        ACCESS:          0 HIT:          0 MISS:          0
cpu3_L1I LOAD         ACCESS:          0 HIT:          0 MISS:          0
cpu3_L1I RFO          ACCESS:          0 HIT:          0 MISS:          0
cpu3_L1I PREFETCH     ACCESS:          0 HIT:          0 MISS:          0
cpu3_L1I WRITE        ACCESS:          0 HIT:          0 MISS:          0
cpu3_L1I TRANSLATION  ACCESS:          0 HIT:          0 MISS:          0
cpu3_L1I PREFETCH REQUESTED:          0 ISSUED:          0 USEFUL:          0 USELESS:          0
cpu3_L1I AVERAGE MISS LATENCY: 12.95 cycles
cpu3_L1I TOTAL        ACCESS:          0 HIT:          0 MISS:          0
cpu3_L1I LOAD         ACCESS:          0 HIT:          0 MISS:          0
cpu3_L1I RFO          ACCESS:          0 HIT:          0 MISS:          0
cpu3_L1I PREFETCH     ACCESS:          0 HIT:          0 MISS:          0
cpu3_L1I WRITE        ACCESS:          0 HIT:          0 MISS:          0
cpu3_L1I TRANSLATION  ACCESS:          0 HIT:          0 MISS:          0
cpu3_L1I PREFETCH REQUESTED:          0 ISSUED:          0 USEFUL:          0 USELESS:          0
cpu3_L1I AVERAGE MISS LATENCY: 12.95 cycles
cpu3_L1I TOTAL        ACCESS:     550976 HIT:     549539 MISS:       1437
cpu3_L1I LOAD         ACCESS:     550976 HIT:     549539 MISS:       1437
cpu3_L1I RFO          ACCESS:          0 HIT:          0 MISS:          0
cpu3_L1I PREFETCH     ACCESS:          0 HIT:          0 MISS:          0
cpu3_L1I WRITE        ACCESS:          0 HIT:          0 MISS:          0
cpu3_L1I TRANSLATION  ACCESS:          0 HIT:          0 MISS:          0
cpu3_L1I PREFETCH REQUESTED:          0 ISSUED:          0 USEFUL:          0 USELESS:          0
cpu3_L1I AVERAGE MISS LATENCY: 12.95 cycles
cpu3_L2C TOTAL        ACCESS:          0 HIT:          0 MISS:          0
cpu3_L2C LOAD         ACCESS:          0 HIT:          0 MISS:          0
cpu3_L2C RFO          ACCESS:          0 HIT:          0 MISS:          0
cpu3_L2C PREFETCH     ACCESS:          0 HIT:          0 MISS:          0
cpu3_L2C WRITE        ACCESS:          0 HIT:          0 MISS:          0
cpu3_L2C TRANSLATION  ACCESS:          0 HIT:          0 MISS:          0
cpu3_L2C PREFETCH REQUESTED:   28568499 ISSUED:   21954458 USEFUL:     877982 USELESS:      11569
cpu3_L2C AVERAGE MISS LATENCY: 152.1 cycles
cpu3_L2C TOTAL        ACCESS:          0 HIT:          0 MISS:          0
cpu3_L2C LOAD         ACCESS:          0 HIT:          0 MISS:          0
cpu3_L2C RFO          ACCESS:          0 HIT:          0 MISS:          0
cpu3_L2C PREFETCH     ACCESS:          0 HIT:          0 MISS:          0
cpu3_L2C WRITE        ACCESS:          0 HIT:          0 MISS:          0
cpu3_L2C TRANSLATION  ACCESS:          0 HIT:          0 MISS:          0
cpu3_L2C PREFETCH REQUESTED:   28568499 ISSUED:   21954458 USEFUL:     877982 USELESS:      11569
cpu3_L2C AVERAGE MISS LATENCY: 152.1 cycles
cpu3_L2C TOTAL        ACCESS:          0 HIT:          0 MISS:          0
cpu3_L2C LOAD         ACCESS:          0 HIT:          0 MISS:          0
cpu3_L2C RFO          ACCESS:          0 HIT:          0 MISS:          0
cpu3_L2C PREFETCH     ACCESS:          0 HIT:          0 MISS:          0
cpu3_L2C WRITE        ACCESS:          0 HIT:          0 MISS:          0
cpu3_L2C TRANSLATION  ACCESS:          0 HIT:          0 MISS:          0
cpu3_L2C PREFETCH REQUESTED:   28568499 ISSUED:   21954458 USEFUL:     877982 USELESS:      11569
cpu3_L2C AVERAGE MISS LATENCY: 152.1 cycles
cpu3_L2C TOTAL        ACCESS:      11369 HIT:       5532 MISS:       5837
cpu3_L2C LOAD         ACCESS:       2784 HIT:       1231 MISS:       1553
cpu3_L2C RFO          ACCESS:       2553 HIT:         71 MISS:       2482
cpu3_L2C PREFETCH     ACCESS:       2828 HIT:       1122 MISS:       1706
cpu3_L2C WRITE        ACCESS:       3051 HIT:       3050 MISS:          1
cpu3_L2C TRANSLATION  ACCESS:        153 HIT:         58 MISS:         95
cpu3_L2C PREFETCH REQUESTED:   28568499 ISSUED:   21954458 USEFUL:     877982 USELESS:      11569
cpu3_L2C AVERAGE MISS LATENCY: 152.1 cycles
cpu3_STLB TOTAL        ACCESS:          0 HIT:          0 MISS:          0
cpu3_STLB LOAD         ACCESS:          0 HIT:          0 MISS:          0
cpu3_STLB RFO          ACCESS:          0 HIT:          0 MISS:          0
cpu3_STLB PREFETCH     ACCESS:          0 HIT:          0 MISS:          0
cpu3_STLB WRITE        ACCESS:          0 HIT:          0 MISS:          0
cpu3_STLB TRANSLATION  ACCESS:          0 HIT:          0 MISS:          0
cpu3_STLB PREFETCH REQUESTED:          0 ISSUED:          0 USEFUL:          0 USELESS:          0
cpu3_STLB AVERAGE MISS LATENCY: 375 cycles
cpu3_STLB TOTAL        ACCESS:          0 HIT:          0 MISS:          0
cpu3_STLB LOAD         ACCESS:          0 HIT:          0 MISS:          0
cpu3_STLB RFO          ACCESS:          0 HIT:          0 MISS:          0
cpu3_STLB PREFETCH     ACCESS:          0 HIT:          0 MISS:          0
cpu3_STLB WRITE        ACCESS:          0 HIT:          0 MISS:          0
cpu3_STLB TRANSLATION  ACCESS:          0 HIT:          0 MISS:          0
cpu3_STLB PREFETCH REQUESTED:          0 ISSUED:          0 USEFUL:          0 USELESS:          0
cpu3_STLB AVERAGE MISS LATENCY: 375 cycles
cpu3_STLB TOTAL        ACCESS:          0 HIT:          0 MISS:          0
cpu3_STLB LOAD         ACCESS:          0 HIT:          0 MISS:          0
cpu3_STLB RFO          ACCESS:          0 HIT:          0 MISS:          0
cpu3_STLB PREFETCH     ACCESS:          0 HIT:          0 MISS:          0
cpu3_STLB WRITE        ACCESS:          0 HIT:          0 MISS:          0
cpu3_STLB TRANSLATION  ACCESS:          0 HIT:          0 MISS:          0
cpu3_STLB PREFETCH REQUESTED:          0 ISSUED:          0 USEFUL:          0 USELESS:          0
cpu3_STLB AVERAGE MISS LATENCY: 375 cycles
cpu3_STLB TOTAL        ACCESS:       9196 HIT:       9026 MISS:        170
cpu3_STLB LOAD         ACCESS:       9196 HIT:       9026 MISS:        170
cpu3_STLB RFO          ACCESS:          0 HIT:          0 MISS:          0
cpu3_STLB PREFETCH     ACCESS:          0 HIT:          0 MISS:          0
cpu3_STLB WRITE        ACCESS:          0 HIT:          0 MISS:          0
cpu3_STLB TRANSLATION  ACCESS:          0 HIT:          0 MISS:          0
cpu3_STLB PREFETCH REQUESTED:          0 ISSUED:          0 USEFUL:          0 USELESS:          0
cpu3_STLB AVERAGE MISS LATENCY: 375 cycles

DRAM Statistics

Channel 0 RQ ROW_BUFFER_HIT:     893620
  ROW_BUFFER_MISS:    5351863
 AVG DBUS CONGESTED CYCLE: 3.976
WQ ROW_BUFFER_HIT: Channel 0 
  ROW_BUFFER_MISS:      69615
  FULL:    2342677
