WARNING: physical memory size is smaller than virtual memory size.
WARNING: option --warmup_instructions is deprecated. Use --warmup-instructions instead.
WARNING: option --simulation_instructions is deprecated. Use --simulation-instructions instead.

*** ChampSim Multicore Out-of-Order Simulator ***
Warmup Instructions: 50000000
Simulation Instructions: 150000000
Number of CPUs: 4
Page size: 4096

Initialize SIGNATURE TABLE
ST_SET: 1
ST_WAY: 256
ST_TAG_BIT: 16
ST_TAG_MASK: ffff

Initialize PATTERN TABLE
PT_SET: 512
PT_WAY: 4
SIG_DELTA_BIT: 7
C_SIG_BIT: 4
C_DELTA_BIT: 4

Initialize PREFETCH FILTER
FILTER_SET: 1024
Initialize SIGNATURE TABLE
ST_SET: 1
ST_WAY: 256
ST_TAG_BIT: 16
ST_TAG_MASK: ffff

Initialize PATTERN TABLE
PT_SET: 512
PT_WAY: 4
SIG_DELTA_BIT: 7
C_SIG_BIT: 4
C_DELTA_BIT: 4

Initialize PREFETCH FILTER
FILTER_SET: 1024
Initialize SIGNATURE TABLE
ST_SET: 1
ST_WAY: 256
ST_TAG_BIT: 16
ST_TAG_MASK: ffff

Initialize PATTERN TABLE
PT_SET: 512
PT_WAY: 4
SIG_DELTA_BIT: 7
C_SIG_BIT: 4
C_DELTA_BIT: 4

Initialize PREFETCH FILTER
FILTER_SET: 1024
Initialize SIGNATURE TABLE
ST_SET: 1
ST_WAY: 256
ST_TAG_BIT: 16
ST_TAG_MASK: ffff

Initialize PATTERN TABLE
PT_SET: 512
PT_WAY: 4
SIG_DELTA_BIT: 7
C_SIG_BIT: 4
C_DELTA_BIT: 4

Initialize PREFETCH FILTER
FILTER_SET: 1024
Off-chip DRAM Size: 4 GiB Channels: 1 Width: 64-bit Data Race: 3200 MT/s
Heartbeat CPU 1 instructions: 10000003 cycles: 2521875 heartbeat IPC: 3.965 cumulative IPC: 3.965 (Simulation time: 00 hr 02 min 11 sec)
Heartbeat CPU 3 instructions: 10000003 cycles: 3382930 heartbeat IPC: 2.956 cumulative IPC: 2.956 (Simulation time: 00 hr 02 min 56 sec)
Heartbeat CPU 2 instructions: 10000002 cycles: 3769330 heartbeat IPC: 2.653 cumulative IPC: 2.653 (Simulation time: 00 hr 03 min 15 sec)
Heartbeat CPU 0 instructions: 10000004 cycles: 4175642 heartbeat IPC: 2.395 cumulative IPC: 2.395 (Simulation time: 00 hr 03 min 36 sec)
Heartbeat CPU 1 instructions: 20000001 cycles: 5038237 heartbeat IPC: 3.974 cumulative IPC: 3.97 (Simulation time: 00 hr 04 min 22 sec)
Heartbeat CPU 3 instructions: 20000002 cycles: 6757842 heartbeat IPC: 2.963 cumulative IPC: 2.96 (Simulation time: 00 hr 05 min 51 sec)
Heartbeat CPU 2 instructions: 20000003 cycles: 7536121 heartbeat IPC: 2.655 cumulative IPC: 2.654 (Simulation time: 00 hr 06 min 30 sec)
Heartbeat CPU 1 instructions: 30000000 cycles: 7553266 heartbeat IPC: 3.976 cumulative IPC: 3.972 (Simulation time: 00 hr 06 min 31 sec)
Heartbeat CPU 0 instructions: 20000004 cycles: 8346962 heartbeat IPC: 2.397 cumulative IPC: 2.396 (Simulation time: 00 hr 07 min 12 sec)
Heartbeat CPU 1 instructions: 40000003 cycles: 10077277 heartbeat IPC: 3.962 cumulative IPC: 3.969 (Simulation time: 00 hr 08 min 39 sec)
Heartbeat CPU 3 instructions: 30000002 cycles: 10116816 heartbeat IPC: 2.977 cumulative IPC: 2.965 (Simulation time: 00 hr 08 min 41 sec)
Heartbeat CPU 2 instructions: 30000001 cycles: 11303108 heartbeat IPC: 2.655 cumulative IPC: 2.654 (Simulation time: 00 hr 09 min 39 sec)
Heartbeat CPU 0 instructions: 30000001 cycles: 12521105 heartbeat IPC: 2.396 cumulative IPC: 2.396 (Simulation time: 00 hr 10 min 41 sec)
Heartbeat CPU 1 instructions: 50000000 cycles: 12599099 heartbeat IPC: 3.965 cumulative IPC: 3.969 (Simulation time: 00 hr 10 min 45 sec)
Warmup finished CPU 1 instructions: 50000000 cycles: 12599100 cumulative IPC: 3.969 (Simulation time: 00 hr 10 min 45 sec)
Heartbeat CPU 3 instructions: 40000000 cycles: 13510060 heartbeat IPC: 2.947 cumulative IPC: 2.961 (Simulation time: 00 hr 11 min 32 sec)
Heartbeat CPU 2 instructions: 40000001 cycles: 15071202 heartbeat IPC: 2.654 cumulative IPC: 2.654 (Simulation time: 00 hr 12 min 52 sec)
Heartbeat CPU 1 instructions: 60000002 cycles: 15124094 heartbeat IPC: 3.96 cumulative IPC: 3.967 (Simulation time: 00 hr 12 min 55 sec)
Heartbeat CPU 0 instructions: 40000000 cycles: 16707337 heartbeat IPC: 2.389 cumulative IPC: 2.394 (Simulation time: 00 hr 14 min 15 sec)
Heartbeat CPU 3 instructions: 50000002 cycles: 16908697 heartbeat IPC: 2.942 cumulative IPC: 2.957 (Simulation time: 00 hr 14 min 25 sec)
Warmup finished CPU 3 instructions: 50000002 cycles: 16908698 cumulative IPC: 2.957 (Simulation time: 00 hr 14 min 25 sec)
Heartbeat CPU 1 instructions: 70000000 cycles: 17648868 heartbeat IPC: 3.961 cumulative IPC: 3.966 (Simulation time: 00 hr 15 min 02 sec)
Heartbeat CPU 2 instructions: 50000003 cycles: 18837984 heartbeat IPC: 2.655 cumulative IPC: 2.654 (Simulation time: 00 hr 16 min 03 sec)
Warmup finished CPU 2 instructions: 50000003 cycles: 18837985 cumulative IPC: 2.654 (Simulation time: 00 hr 16 min 03 sec)
Heartbeat CPU 1 instructions: 80000001 cycles: 20174084 heartbeat IPC: 3.96 cumulative IPC: 3.965 (Simulation time: 00 hr 17 min 09 sec)
Heartbeat CPU 3 instructions: 60000001 cycles: 20331222 heartbeat IPC: 2.922 cumulative IPC: 2.951 (Simulation time: 00 hr 17 min 17 sec)
Heartbeat CPU 0 instructions: 50000003 cycles: 20874376 heartbeat IPC: 2.4 cumulative IPC: 2.395 (Simulation time: 00 hr 17 min 47 sec)
Warmup finished CPU 0 instructions: 50000003 cycles: 20874377 cumulative IPC: 2.395 (Simulation time: 00 hr 17 min 47 sec)
Warmup complete CPU 0 instructions: 50000003 cycles: 20874377 cumulative IPC: 2.395 (Simulation time: 00 hr 17 min 47 sec)
Warmup complete CPU 1 instructions: 82772318 cycles: 20874377 cumulative IPC: 3.965 (Simulation time: 00 hr 17 min 47 sec)
Warmup complete CPU 2 instructions: 55221239 cycles: 20874377 cumulative IPC: 2.645 (Simulation time: 00 hr 17 min 47 sec)
Warmup complete CPU 3 instructions: 61609238 cycles: 20874377 cumulative IPC: 2.951 (Simulation time: 00 hr 17 min 47 sec)
Heartbeat CPU 1 instructions: 90000001 cycles: 24249061 heartbeat IPC: 2.454 cumulative IPC: 2.142 (Simulation time: 00 hr 19 min 16 sec)
Heartbeat CPU 1 instructions: 100000002 cycles: 28693284 heartbeat IPC: 2.25 cumulative IPC: 2.203 (Simulation time: 00 hr 21 min 15 sec)
Heartbeat CPU 2 instructions: 60000004 cycles: 31286781 heartbeat IPC: 0.8033 cumulative IPC: 0.4589 (Simulation time: 00 hr 22 min 24 sec)
Heartbeat CPU 1 instructions: 110000002 cycles: 33501785 heartbeat IPC: 2.08 cumulative IPC: 2.156 (Simulation time: 00 hr 23 min 21 sec)
Heartbeat CPU 1 instructions: 120000001 cycles: 38049533 heartbeat IPC: 2.199 cumulative IPC: 2.168 (Simulation time: 00 hr 25 min 22 sec)
Heartbeat CPU 1 instructions: 130000000 cycles: 42891841 heartbeat IPC: 2.065 cumulative IPC: 2.145 (Simulation time: 00 hr 27 min 30 sec)
Heartbeat CPU 1 instructions: 140000000 cycles: 47801617 heartbeat IPC: 2.037 cumulative IPC: 2.125 (Simulation time: 00 hr 29 min 38 sec)
Heartbeat CPU 2 instructions: 70000000 cycles: 50798658 heartbeat IPC: 0.5125 cumulative IPC: 0.4939 (Simulation time: 00 hr 30 min 56 sec)
Heartbeat CPU 1 instructions: 150000002 cycles: 52591515 heartbeat IPC: 2.088 cumulative IPC: 2.12 (Simulation time: 00 hr 31 min 47 sec)
Heartbeat CPU 1 instructions: 160000001 cycles: 57396607 heartbeat IPC: 2.081 cumulative IPC: 2.115 (Simulation time: 00 hr 33 min 59 sec)
Heartbeat CPU 1 instructions: 170000000 cycles: 62194015 heartbeat IPC: 2.084 cumulative IPC: 2.111 (Simulation time: 00 hr 36 min 00 sec)
Heartbeat CPU 1 instructions: 180000002 cycles: 67092040 heartbeat IPC: 2.042 cumulative IPC: 2.104 (Simulation time: 00 hr 38 min 13 sec)
Heartbeat CPU 2 instructions: 80000000 cycles: 69885513 heartbeat IPC: 0.5239 cumulative IPC: 0.5056 (Simulation time: 00 hr 39 min 27 sec)
Heartbeat CPU 1 instructions: 190000000 cycles: 71898291 heartbeat IPC: 2.081 cumulative IPC: 2.102 (Simulation time: 00 hr 40 min 22 sec)
Heartbeat CPU 1 instructions: 200000004 cycles: 76501276 heartbeat IPC: 2.173 cumulative IPC: 2.107 (Simulation time: 00 hr 42 min 27 sec)
Heartbeat CPU 1 instructions: 210000001 cycles: 81612966 heartbeat IPC: 1.956 cumulative IPC: 2.095 (Simulation time: 00 hr 44 min 40 sec)
Heartbeat CPU 1 instructions: 220000002 cycles: 86756745 heartbeat IPC: 1.944 cumulative IPC: 2.083 (Simulation time: 00 hr 46 min 50 sec)
Heartbeat CPU 3 instructions: 70000000 cycles: 87973041 heartbeat IPC: 0.1478 cumulative IPC: 0.1251 (Simulation time: 00 hr 47 min 22 sec)
Heartbeat CPU 2 instructions: 90000000 cycles: 89371474 heartbeat IPC: 0.5132 cumulative IPC: 0.5077 (Simulation time: 00 hr 47 min 58 sec)
Heartbeat CPU 1 instructions: 230000000 cycles: 91710083 heartbeat IPC: 2.019 cumulative IPC: 2.078 (Simulation time: 00 hr 49 min 00 sec)
Simulation finished CPU 1 instructions: 150000001 cycles: 72161418 cumulative IPC: 2.079 (Simulation time: 00 hr 49 min 39 sec)
Heartbeat CPU 1 instructions: 240000001 cycles: 96585642 heartbeat IPC: 2.051 cumulative IPC: 2.077 (Simulation time: 00 hr 51 min 14 sec)
Heartbeat CPU 1 instructions: 250000001 cycles: 101492959 heartbeat IPC: 2.038 cumulative IPC: 2.074 (Simulation time: 00 hr 53 min 26 sec)
Heartbeat CPU 1 instructions: 260000000 cycles: 106250505 heartbeat IPC: 2.102 cumulative IPC: 2.076 (Simulation time: 00 hr 55 min 39 sec)
Heartbeat CPU 2 instructions: 100000002 cycles: 108815152 heartbeat IPC: 0.5143 cumulative IPC: 0.5092 (Simulation time: 00 hr 56 min 46 sec)
Heartbeat CPU 1 instructions: 270000003 cycles: 111105885 heartbeat IPC: 2.06 cumulative IPC: 2.075 (Simulation time: 00 hr 57 min 43 sec)
Heartbeat CPU 1 instructions: 280000003 cycles: 115851563 heartbeat IPC: 2.107 cumulative IPC: 2.077 (Simulation time: 00 hr 59 min 56 sec)
Heartbeat CPU 1 instructions: 290000001 cycles: 120547788 heartbeat IPC: 2.129 cumulative IPC: 2.079 (Simulation time: 01 hr 01 min 57 sec)
Heartbeat CPU 1 instructions: 300000001 cycles: 125442458 heartbeat IPC: 2.043 cumulative IPC: 2.077 (Simulation time: 01 hr 04 min 17 sec)
Heartbeat CPU 2 instructions: 110000003 cycles: 128827335 heartbeat IPC: 0.4997 cumulative IPC: 0.5074 (Simulation time: 01 hr 05 min 42 sec)
Heartbeat CPU 1 instructions: 310000003 cycles: 130270790 heartbeat IPC: 2.071 cumulative IPC: 2.077 (Simulation time: 01 hr 06 min 17 sec)
Heartbeat CPU 1 instructions: 320000002 cycles: 135173292 heartbeat IPC: 2.04 cumulative IPC: 2.076 (Simulation time: 01 hr 08 min 28 sec)
Heartbeat CPU 1 instructions: 330000004 cycles: 139986451 heartbeat IPC: 2.078 cumulative IPC: 2.076 (Simulation time: 01 hr 10 min 39 sec)
Heartbeat CPU 1 instructions: 340000001 cycles: 144932246 heartbeat IPC: 2.022 cumulative IPC: 2.073 (Simulation time: 01 hr 12 min 53 sec)
Heartbeat CPU 2 instructions: 120000002 cycles: 149167198 heartbeat IPC: 0.4916 cumulative IPC: 0.5049 (Simulation time: 01 hr 14 min 44 sec)
Heartbeat CPU 1 instructions: 350000001 cycles: 149829904 heartbeat IPC: 2.042 cumulative IPC: 2.072 (Simulation time: 01 hr 15 min 02 sec)
Heartbeat CPU 1 instructions: 360000004 cycles: 155209856 heartbeat IPC: 1.859 cumulative IPC: 2.064 (Simulation time: 01 hr 17 min 19 sec)
Heartbeat CPU 1 instructions: 370000000 cycles: 159983085 heartbeat IPC: 2.095 cumulative IPC: 2.065 (Simulation time: 01 hr 19 min 28 sec)
Heartbeat CPU 1 instructions: 380000000 cycles: 164834494 heartbeat IPC: 2.061 cumulative IPC: 2.065 (Simulation time: 01 hr 21 min 36 sec)
Heartbeat CPU 3 instructions: 80000000 cycles: 165028940 heartbeat IPC: 0.1298 cumulative IPC: 0.1276 (Simulation time: 01 hr 21 min 41 sec)
Heartbeat CPU 2 instructions: 130000004 cycles: 168646108 heartbeat IPC: 0.5134 cumulative IPC: 0.506 (Simulation time: 01 hr 23 min 18 sec)
Heartbeat CPU 1 instructions: 390000000 cycles: 169600433 heartbeat IPC: 2.098 cumulative IPC: 2.066 (Simulation time: 01 hr 23 min 46 sec)
Heartbeat CPU 1 instructions: 400000000 cycles: 174464980 heartbeat IPC: 2.056 cumulative IPC: 2.065 (Simulation time: 01 hr 25 min 53 sec)
Heartbeat CPU 1 instructions: 410000000 cycles: 179339289 heartbeat IPC: 2.052 cumulative IPC: 2.065 (Simulation time: 01 hr 28 min 07 sec)
Heartbeat CPU 1 instructions: 420000004 cycles: 184032441 heartbeat IPC: 2.131 cumulative IPC: 2.067 (Simulation time: 01 hr 30 min 13 sec)
Heartbeat CPU 2 instructions: 140000000 cycles: 187887523 heartbeat IPC: 0.5197 cumulative IPC: 0.5076 (Simulation time: 01 hr 31 min 57 sec)
Heartbeat CPU 1 instructions: 430000002 cycles: 188950926 heartbeat IPC: 2.033 cumulative IPC: 2.066 (Simulation time: 01 hr 32 min 25 sec)
Heartbeat CPU 1 instructions: 440000003 cycles: 193819167 heartbeat IPC: 2.054 cumulative IPC: 2.066 (Simulation time: 01 hr 34 min 44 sec)
Heartbeat CPU 1 instructions: 450000003 cycles: 198443783 heartbeat IPC: 2.162 cumulative IPC: 2.068 (Simulation time: 01 hr 36 min 55 sec)
Heartbeat CPU 1 instructions: 460000003 cycles: 203397214 heartbeat IPC: 2.019 cumulative IPC: 2.067 (Simulation time: 01 hr 39 min 08 sec)
Heartbeat CPU 1 instructions: 470000002 cycles: 207778538 heartbeat IPC: 2.282 cumulative IPC: 2.072 (Simulation time: 01 hr 41 min 01 sec)
Heartbeat CPU 2 instructions: 150000004 cycles: 208328860 heartbeat IPC: 0.4892 cumulative IPC: 0.5056 (Simulation time: 01 hr 41 min 15 sec)
Heartbeat CPU 0 instructions: 60000000 cycles: 210542164 heartbeat IPC: 0.05272 cumulative IPC: 0.05272 (Simulation time: 01 hr 42 min 13 sec)
Heartbeat CPU 1 instructions: 480000000 cycles: 212472880 heartbeat IPC: 2.13 cumulative IPC: 2.073 (Simulation time: 01 hr 43 min 01 sec)
Heartbeat CPU 1 instructions: 490000002 cycles: 216930706 heartbeat IPC: 2.243 cumulative IPC: 2.077 (Simulation time: 01 hr 45 min 04 sec)
Heartbeat CPU 1 instructions: 500000000 cycles: 221410533 heartbeat IPC: 2.232 cumulative IPC: 2.081 (Simulation time: 01 hr 47 min 00 sec)
Heartbeat CPU 1 instructions: 510000004 cycles: 225813651 heartbeat IPC: 2.271 cumulative IPC: 2.085 (Simulation time: 01 hr 49 min 02 sec)
Heartbeat CPU 2 instructions: 160000004 cycles: 227398830 heartbeat IPC: 0.5244 cumulative IPC: 0.5073 (Simulation time: 01 hr 49 min 46 sec)
Heartbeat CPU 1 instructions: 520000000 cycles: 230381401 heartbeat IPC: 2.189 cumulative IPC: 2.087 (Simulation time: 01 hr 51 min 06 sec)
Heartbeat CPU 1 instructions: 530000002 cycles: 239848505 heartbeat IPC: 1.056 cumulative IPC: 2.042 (Simulation time: 01 hr 54 min 52 sec)
Heartbeat CPU 3 instructions: 90000003 cycles: 247772388 heartbeat IPC: 0.1209 cumulative IPC: 0.1251 (Simulation time: 01 hr 57 min 52 sec)
Heartbeat CPU 1 instructions: 540000003 cycles: 247924309 heartbeat IPC: 1.238 cumulative IPC: 2.014 (Simulation time: 01 hr 57 min 55 sec)
Heartbeat CPU 2 instructions: 170000000 cycles: 249590299 heartbeat IPC: 0.4506 cumulative IPC: 0.5018 (Simulation time: 01 hr 58 min 37 sec)
Heartbeat CPU 1 instructions: 550000002 cycles: 252331038 heartbeat IPC: 2.269 cumulative IPC: 2.019 (Simulation time: 01 hr 59 min 44 sec)
Heartbeat CPU 1 instructions: 560000000 cycles: 256924239 heartbeat IPC: 2.177 cumulative IPC: 2.022 (Simulation time: 02 hr 01 min 39 sec)
Heartbeat CPU 1 instructions: 570000001 cycles: 261346961 heartbeat IPC: 2.261 cumulative IPC: 2.026 (Simulation time: 02 hr 03 min 26 sec)
Heartbeat CPU 1 instructions: 580000002 cycles: 265857135 heartbeat IPC: 2.217 cumulative IPC: 2.03 (Simulation time: 02 hr 05 min 11 sec)
Heartbeat CPU 2 instructions: 180000000 cycles: 268972744 heartbeat IPC: 0.5159 cumulative IPC: 0.5029 (Simulation time: 02 hr 06 min 25 sec)
Heartbeat CPU 1 instructions: 590000002 cycles: 270165383 heartbeat IPC: 2.321 cumulative IPC: 2.035 (Simulation time: 02 hr 06 min 58 sec)
Heartbeat CPU 1 instructions: 600000000 cycles: 274473418 heartbeat IPC: 2.321 cumulative IPC: 2.04 (Simulation time: 02 hr 08 min 40 sec)
Heartbeat CPU 1 instructions: 610000000 cycles: 279009775 heartbeat IPC: 2.204 cumulative IPC: 2.042 (Simulation time: 02 hr 10 min 31 sec)
Heartbeat CPU 1 instructions: 620000001 cycles: 283522642 heartbeat IPC: 2.216 cumulative IPC: 2.045 (Simulation time: 02 hr 12 min 18 sec)
Heartbeat CPU 2 instructions: 190000002 cycles: 288024188 heartbeat IPC: 0.5249 cumulative IPC: 0.5045 (Simulation time: 02 hr 14 min 04 sec)
Heartbeat CPU 1 instructions: 630000001 cycles: 288057360 heartbeat IPC: 2.205 cumulative IPC: 2.048 (Simulation time: 02 hr 14 min 04 sec)
Heartbeat CPU 1 instructions: 640000001 cycles: 292469552 heartbeat IPC: 2.266 cumulative IPC: 2.052 (Simulation time: 02 hr 16 min 01 sec)
Heartbeat CPU 1 instructions: 650000000 cycles: 296938213 heartbeat IPC: 2.238 cumulative IPC: 2.055 (Simulation time: 02 hr 17 min 55 sec)
Heartbeat CPU 1 instructions: 660000002 cycles: 301596303 heartbeat IPC: 2.147 cumulative IPC: 2.056 (Simulation time: 02 hr 19 min 48 sec)
Heartbeat CPU 1 instructions: 670000001 cycles: 306303650 heartbeat IPC: 2.124 cumulative IPC: 2.057 (Simulation time: 02 hr 21 min 44 sec)
Heartbeat CPU 2 instructions: 200000002 cycles: 307724856 heartbeat IPC: 0.5076 cumulative IPC: 0.5047 (Simulation time: 02 hr 22 min 15 sec)
Heartbeat CPU 1 instructions: 680000004 cycles: 311257500 heartbeat IPC: 2.019 cumulative IPC: 2.057 (Simulation time: 02 hr 23 min 42 sec)
Heartbeat CPU 1 instructions: 690000001 cycles: 315920936 heartbeat IPC: 2.144 cumulative IPC: 2.058 (Simulation time: 02 hr 25 min 37 sec)
Simulation finished CPU 2 instructions: 150000001 cycles: 296481944 cumulative IPC: 0.5059 (Simulation time: 02 hr 26 min 10 sec)
Heartbeat CPU 1 instructions: 700000000 cycles: 320659094 heartbeat IPC: 2.111 cumulative IPC: 2.059 (Simulation time: 02 hr 27 min 28 sec)
Heartbeat CPU 3 instructions: 100000000 cycles: 323305089 heartbeat IPC: 0.1324 cumulative IPC: 0.1269 (Simulation time: 02 hr 28 min 47 sec)
Heartbeat CPU 1 instructions: 710000002 cycles: 325434586 heartbeat IPC: 2.094 cumulative IPC: 2.059 (Simulation time: 02 hr 29 min 37 sec)
Heartbeat CPU 2 instructions: 210000002 cycles: 326867082 heartbeat IPC: 0.5224 cumulative IPC: 0.5058 (Simulation time: 02 hr 30 min 11 sec)
Heartbeat CPU 1 instructions: 720000004 cycles: 330371005 heartbeat IPC: 2.026 cumulative IPC: 2.059 (Simulation time: 02 hr 31 min 42 sec)
Heartbeat CPU 1 instructions: 730000002 cycles: 335152413 heartbeat IPC: 2.091 cumulative IPC: 2.059 (Simulation time: 02 hr 33 min 42 sec)
Heartbeat CPU 1 instructions: 740000004 cycles: 340125529 heartbeat IPC: 2.011 cumulative IPC: 2.059 (Simulation time: 02 hr 35 min 41 sec)
Heartbeat CPU 1 instructions: 750000001 cycles: 345314006 heartbeat IPC: 1.927 cumulative IPC: 2.057 (Simulation time: 02 hr 37 min 43 sec)
Heartbeat CPU 2 instructions: 220000003 cycles: 347125486 heartbeat IPC: 0.4936 cumulative IPC: 0.5051 (Simulation time: 02 hr 38 min 24 sec)
Heartbeat CPU 1 instructions: 760000000 cycles: 350124284 heartbeat IPC: 2.079 cumulative IPC: 2.057 (Simulation time: 02 hr 39 min 39 sec)
Heartbeat CPU 1 instructions: 770000002 cycles: 354878901 heartbeat IPC: 2.103 cumulative IPC: 2.058 (Simulation time: 02 hr 41 min 32 sec)
Heartbeat CPU 1 instructions: 780000002 cycles: 359573755 heartbeat IPC: 2.13 cumulative IPC: 2.059 (Simulation time: 02 hr 43 min 23 sec)
Heartbeat CPU 1 instructions: 790000002 cycles: 364326053 heartbeat IPC: 2.104 cumulative IPC: 2.059 (Simulation time: 02 hr 45 min 22 sec)
Heartbeat CPU 2 instructions: 230000000 cycles: 366622264 heartbeat IPC: 0.5129 cumulative IPC: 0.5055 (Simulation time: 02 hr 46 min 18 sec)
Heartbeat CPU 1 instructions: 800000001 cycles: 369147652 heartbeat IPC: 2.074 cumulative IPC: 2.059 (Simulation time: 02 hr 47 min 19 sec)
Heartbeat CPU 1 instructions: 810000000 cycles: 374054911 heartbeat IPC: 2.038 cumulative IPC: 2.059 (Simulation time: 02 hr 49 min 22 sec)
Heartbeat CPU 1 instructions: 820000000 cycles: 378742221 heartbeat IPC: 2.133 cumulative IPC: 2.06 (Simulation time: 02 hr 51 min 13 sec)
Heartbeat CPU 1 instructions: 830000004 cycles: 383536719 heartbeat IPC: 2.086 cumulative IPC: 2.06 (Simulation time: 02 hr 53 min 05 sec)
Heartbeat CPU 2 instructions: 240000003 cycles: 386739231 heartbeat IPC: 0.4971 cumulative IPC: 0.505 (Simulation time: 02 hr 54 min 22 sec)
Heartbeat CPU 1 instructions: 840000003 cycles: 388393807 heartbeat IPC: 2.059 cumulative IPC: 2.06 (Simulation time: 02 hr 55 min 03 sec)
Heartbeat CPU 1 instructions: 850000001 cycles: 393151131 heartbeat IPC: 2.102 cumulative IPC: 2.061 (Simulation time: 02 hr 56 min 56 sec)
Heartbeat CPU 1 instructions: 860000003 cycles: 397845974 heartbeat IPC: 2.13 cumulative IPC: 2.062 (Simulation time: 02 hr 58 min 55 sec)
Heartbeat CPU 0 instructions: 70000002 cycles: 398038713 heartbeat IPC: 0.05333 cumulative IPC: 0.05303 (Simulation time: 02 hr 58 min 59 sec)
Heartbeat CPU 3 instructions: 110000002 cycles: 401231937 heartbeat IPC: 0.1283 cumulative IPC: 0.1272 (Simulation time: 03 hr 00 min 16 sec)
Heartbeat CPU 1 instructions: 870000003 cycles: 402676171 heartbeat IPC: 2.07 cumulative IPC: 2.062 (Simulation time: 03 hr 00 min 47 sec)
Heartbeat CPU 2 instructions: 250000002 cycles: 406484200 heartbeat IPC: 0.5065 cumulative IPC: 0.5051 (Simulation time: 03 hr 02 min 11 sec)
Heartbeat CPU 1 instructions: 880000000 cycles: 407556070 heartbeat IPC: 2.049 cumulative IPC: 2.062 (Simulation time: 03 hr 02 min 40 sec)
Heartbeat CPU 1 instructions: 890000004 cycles: 412260512 heartbeat IPC: 2.126 cumulative IPC: 2.062 (Simulation time: 03 hr 04 min 33 sec)
Heartbeat CPU 1 instructions: 900000000 cycles: 417096659 heartbeat IPC: 2.068 cumulative IPC: 2.063 (Simulation time: 03 hr 06 min 30 sec)
Heartbeat CPU 1 instructions: 910000003 cycles: 422003285 heartbeat IPC: 2.038 cumulative IPC: 2.062 (Simulation time: 03 hr 08 min 26 sec)
Heartbeat CPU 2 instructions: 260000000 cycles: 426157791 heartbeat IPC: 0.5083 cumulative IPC: 0.5053 (Simulation time: 03 hr 10 min 01 sec)
Heartbeat CPU 1 instructions: 920000001 cycles: 426718169 heartbeat IPC: 2.121 cumulative IPC: 2.063 (Simulation time: 03 hr 10 min 14 sec)
Heartbeat CPU 1 instructions: 930000001 cycles: 431506885 heartbeat IPC: 2.088 cumulative IPC: 2.063 (Simulation time: 03 hr 12 min 12 sec)
Heartbeat CPU 1 instructions: 940000000 cycles: 436673178 heartbeat IPC: 1.936 cumulative IPC: 2.062 (Simulation time: 03 hr 14 min 13 sec)
Heartbeat CPU 1 instructions: 950000000 cycles: 441513710 heartbeat IPC: 2.066 cumulative IPC: 2.062 (Simulation time: 03 hr 16 min 01 sec)
Heartbeat CPU 2 instructions: 270000003 cycles: 446048292 heartbeat IPC: 0.5028 cumulative IPC: 0.5052 (Simulation time: 03 hr 17 min 41 sec)
Heartbeat CPU 1 instructions: 960000003 cycles: 446536246 heartbeat IPC: 1.991 cumulative IPC: 2.061 (Simulation time: 03 hr 17 min 53 sec)
Heartbeat CPU 1 instructions: 970000001 cycles: 451323501 heartbeat IPC: 2.089 cumulative IPC: 2.061 (Simulation time: 03 hr 19 min 45 sec)
Heartbeat CPU 1 instructions: 980000000 cycles: 456374756 heartbeat IPC: 1.98 cumulative IPC: 2.06 (Simulation time: 03 hr 21 min 37 sec)
Heartbeat CPU 1 instructions: 990000004 cycles: 461153060 heartbeat IPC: 2.093 cumulative IPC: 2.061 (Simulation time: 03 hr 23 min 22 sec)
Heartbeat CPU 2 instructions: 280000002 cycles: 465923198 heartbeat IPC: 0.5031 cumulative IPC: 0.5051 (Simulation time: 03 hr 25 min 07 sec)
Heartbeat CPU 1 instructions: 1000000004 cycles: 465951097 heartbeat IPC: 2.084 cumulative IPC: 2.061 (Simulation time: 03 hr 25 min 08 sec)
Heartbeat CPU 1 instructions: 1010000000 cycles: 470849468 heartbeat IPC: 2.041 cumulative IPC: 2.061 (Simulation time: 03 hr 27 min 01 sec)
Heartbeat CPU 1 instructions: 1020000002 cycles: 475543191 heartbeat IPC: 2.131 cumulative IPC: 2.061 (Simulation time: 03 hr 28 min 45 sec)
Heartbeat CPU 3 instructions: 120000004 cycles: 479244364 heartbeat IPC: 0.1282 cumulative IPC: 0.1274 (Simulation time: 03 hr 30 min 07 sec)
Heartbeat CPU 1 instructions: 1030000004 cycles: 480360456 heartbeat IPC: 2.076 cumulative IPC: 2.061 (Simulation time: 03 hr 30 min 34 sec)
Heartbeat CPU 1 instructions: 1040000001 cycles: 484902078 heartbeat IPC: 2.202 cumulative IPC: 2.063 (Simulation time: 03 hr 32 min 19 sec)
Heartbeat CPU 2 instructions: 290000001 cycles: 485475529 heartbeat IPC: 0.5114 cumulative IPC: 0.5053 (Simulation time: 03 hr 32 min 35 sec)
Heartbeat CPU 1 instructions: 1050000004 cycles: 489244604 heartbeat IPC: 2.303 cumulative IPC: 2.065 (Simulation time: 03 hr 34 min 05 sec)
Heartbeat CPU 1 instructions: 1060000000 cycles: 493652386 heartbeat IPC: 2.269 cumulative IPC: 2.067 (Simulation time: 03 hr 35 min 50 sec)
Heartbeat CPU 1 instructions: 1070000000 cycles: 498272612 heartbeat IPC: 2.164 cumulative IPC: 2.068 (Simulation time: 03 hr 37 min 34 sec)
Heartbeat CPU 1 instructions: 1080000000 cycles: 502735231 heartbeat IPC: 2.241 cumulative IPC: 2.07 (Simulation time: 03 hr 39 min 17 sec)
Heartbeat CPU 2 instructions: 300000003 cycles: 504808512 heartbeat IPC: 0.5173 cumulative IPC: 0.5058 (Simulation time: 03 hr 40 min 09 sec)
Heartbeat CPU 1 instructions: 1090000003 cycles: 507090246 heartbeat IPC: 2.296 cumulative IPC: 2.072 (Simulation time: 03 hr 41 min 10 sec)
Heartbeat CPU 1 instructions: 1100000000 cycles: 511439286 heartbeat IPC: 2.299 cumulative IPC: 2.074 (Simulation time: 03 hr 43 min 12 sec)
Heartbeat CPU 1 instructions: 1110000001 cycles: 516008678 heartbeat IPC: 2.188 cumulative IPC: 2.075 (Simulation time: 03 hr 45 min 15 sec)
Heartbeat CPU 1 instructions: 1120000004 cycles: 520398084 heartbeat IPC: 2.278 cumulative IPC: 2.076 (Simulation time: 03 hr 47 min 09 sec)
Heartbeat CPU 2 instructions: 310000000 cycles: 523965847 heartbeat IPC: 0.522 cumulative IPC: 0.5064 (Simulation time: 03 hr 48 min 40 sec)
Heartbeat CPU 1 instructions: 1130000000 cycles: 525033785 heartbeat IPC: 2.157 cumulative IPC: 2.077 (Simulation time: 03 hr 49 min 06 sec)
Heartbeat CPU 1 instructions: 1140000002 cycles: 529610499 heartbeat IPC: 2.185 cumulative IPC: 2.078 (Simulation time: 03 hr 50 min 57 sec)
Heartbeat CPU 1 instructions: 1150000000 cycles: 533947072 heartbeat IPC: 2.306 cumulative IPC: 2.08 (Simulation time: 03 hr 52 min 42 sec)
Heartbeat CPU 2 instructions: 320000002 cycles: 546181767 heartbeat IPC: 0.4501 cumulative IPC: 0.504 (Simulation time: 03 hr 57 min 32 sec)
Heartbeat CPU 1 instructions: 1160000001 cycles: 547712172 heartbeat IPC: 0.7265 cumulative IPC: 2.045 (Simulation time: 03 hr 58 min 07 sec)
Heartbeat CPU 1 instructions: 1170000004 cycles: 552433282 heartbeat IPC: 2.118 cumulative IPC: 2.045 (Simulation time: 04 hr 00 min 14 sec)
Heartbeat CPU 1 instructions: 1180000001 cycles: 556814549 heartbeat IPC: 2.282 cumulative IPC: 2.047 (Simulation time: 04 hr 01 min 58 sec)
Heartbeat CPU 3 instructions: 130000000 cycles: 559573999 heartbeat IPC: 0.1245 cumulative IPC: 0.127 (Simulation time: 04 hr 03 min 14 sec)
Heartbeat CPU 1 instructions: 1190000001 cycles: 561329788 heartbeat IPC: 2.215 cumulative IPC: 2.049 (Simulation time: 04 hr 03 min 55 sec)
Heartbeat CPU 1 instructions: 1200000001 cycles: 565637914 heartbeat IPC: 2.321 cumulative IPC: 2.051 (Simulation time: 04 hr 05 min 31 sec)
Heartbeat CPU 2 instructions: 330000001 cycles: 566346477 heartbeat IPC: 0.4959 cumulative IPC: 0.5037 (Simulation time: 04 hr 05 min 46 sec)
Heartbeat CPU 1 instructions: 1210000002 cycles: 569973337 heartbeat IPC: 2.307 cumulative IPC: 2.053 (Simulation time: 04 hr 07 min 14 sec)
Heartbeat CPU 1 instructions: 1220000003 cycles: 574534903 heartbeat IPC: 2.192 cumulative IPC: 2.054 (Simulation time: 04 hr 09 min 00 sec)
Heartbeat CPU 1 instructions: 1230000002 cycles: 578870752 heartbeat IPC: 2.306 cumulative IPC: 2.056 (Simulation time: 04 hr 10 min 39 sec)
Heartbeat CPU 1 instructions: 1240000002 cycles: 583265235 heartbeat IPC: 2.276 cumulative IPC: 2.058 (Simulation time: 04 hr 12 min 26 sec)
Heartbeat CPU 2 instructions: 340000003 cycles: 585437714 heartbeat IPC: 0.5238 cumulative IPC: 0.5044 (Simulation time: 04 hr 13 min 23 sec)
Heartbeat CPU 1 instructions: 1250000003 cycles: 587719289 heartbeat IPC: 2.245 cumulative IPC: 2.059 (Simulation time: 04 hr 14 min 17 sec)
Heartbeat CPU 0 instructions: 80000002 cycles: 591041757 heartbeat IPC: 0.05181 cumulative IPC: 0.05262 (Simulation time: 04 hr 15 min 31 sec)
Heartbeat CPU 1 instructions: 1260000000 cycles: 592049306 heartbeat IPC: 2.309 cumulative IPC: 2.061 (Simulation time: 04 hr 15 min 53 sec)
Heartbeat CPU 1 instructions: 1270000000 cycles: 596357895 heartbeat IPC: 2.321 cumulative IPC: 2.063 (Simulation time: 04 hr 17 min 31 sec)
Heartbeat CPU 1 instructions: 1280000001 cycles: 600693311 heartbeat IPC: 2.307 cumulative IPC: 2.065 (Simulation time: 04 hr 19 min 12 sec)
Heartbeat CPU 2 instructions: 350000000 cycles: 605222462 heartbeat IPC: 0.5054 cumulative IPC: 0.5045 (Simulation time: 04 hr 20 min 56 sec)
Heartbeat CPU 1 instructions: 1290000003 cycles: 605228400 heartbeat IPC: 2.205 cumulative IPC: 2.066 (Simulation time: 04 hr 20 min 57 sec)
Heartbeat CPU 1 instructions: 1300000001 cycles: 609687746 heartbeat IPC: 2.242 cumulative IPC: 2.067 (Simulation time: 04 hr 22 min 49 sec)
Heartbeat CPU 1 instructions: 1310000003 cycles: 614328818 heartbeat IPC: 2.155 cumulative IPC: 2.068 (Simulation time: 04 hr 24 min 40 sec)
Heartbeat CPU 1 instructions: 1320000003 cycles: 619018767 heartbeat IPC: 2.132 cumulative IPC: 2.068 (Simulation time: 04 hr 26 min 34 sec)
Heartbeat CPU 1 instructions: 1330000004 cycles: 623766742 heartbeat IPC: 2.106 cumulative IPC: 2.069 (Simulation time: 04 hr 28 min 32 sec)
Heartbeat CPU 2 instructions: 360000000 cycles: 625122459 heartbeat IPC: 0.5025 cumulative IPC: 0.5044 (Simulation time: 04 hr 29 min 06 sec)
Heartbeat CPU 1 instructions: 1340000000 cycles: 628448900 heartbeat IPC: 2.136 cumulative IPC: 2.069 (Simulation time: 04 hr 30 min 27 sec)
Heartbeat CPU 1 instructions: 1350000001 cycles: 633437457 heartbeat IPC: 2.005 cumulative IPC: 2.069 (Simulation time: 04 hr 32 min 26 sec)
Heartbeat CPU 3 instructions: 140000002 cycles: 635892812 heartbeat IPC: 0.131 cumulative IPC: 0.1275 (Simulation time: 04 hr 33 min 32 sec)
Heartbeat CPU 1 instructions: 1360000003 cycles: 638168999 heartbeat IPC: 2.113 cumulative IPC: 2.069 (Simulation time: 04 hr 34 min 34 sec)
Heartbeat CPU 1 instructions: 1370000003 cycles: 643118822 heartbeat IPC: 2.02 cumulative IPC: 2.069 (Simulation time: 04 hr 36 min 38 sec)
Heartbeat CPU 2 instructions: 370000001 cycles: 645106178 heartbeat IPC: 0.5004 cumulative IPC: 0.5043 (Simulation time: 04 hr 37 min 25 sec)
Heartbeat CPU 1 instructions: 1380000002 cycles: 647958666 heartbeat IPC: 2.066 cumulative IPC: 2.069 (Simulation time: 04 hr 38 min 35 sec)
Heartbeat CPU 1 instructions: 1390000000 cycles: 652956096 heartbeat IPC: 2.001 cumulative IPC: 2.068 (Simulation time: 04 hr 40 min 39 sec)
Heartbeat CPU 1 instructions: 1400000003 cycles: 657707946 heartbeat IPC: 2.104 cumulative IPC: 2.068 (Simulation time: 04 hr 42 min 27 sec)
Heartbeat CPU 1 instructions: 1410000002 cycles: 662373354 heartbeat IPC: 2.143 cumulative IPC: 2.069 (Simulation time: 04 hr 44 min 22 sec)
Heartbeat CPU 2 instructions: 380000002 cycles: 664821456 heartbeat IPC: 0.5072 cumulative IPC: 0.5044 (Simulation time: 04 hr 45 min 23 sec)
Heartbeat CPU 1 instructions: 1420000001 cycles: 667164533 heartbeat IPC: 2.087 cumulative IPC: 2.069 (Simulation time: 04 hr 46 min 26 sec)
Heartbeat CPU 1 instructions: 1430000000 cycles: 671878252 heartbeat IPC: 2.121 cumulative IPC: 2.069 (Simulation time: 04 hr 48 min 20 sec)
Heartbeat CPU 1 instructions: 1440000000 cycles: 676730310 heartbeat IPC: 2.061 cumulative IPC: 2.069 (Simulation time: 04 hr 50 min 13 sec)
Heartbeat CPU 1 instructions: 1450000001 cycles: 681628703 heartbeat IPC: 2.041 cumulative IPC: 2.069 (Simulation time: 04 hr 52 min 11 sec)
Heartbeat CPU 2 instructions: 390000004 cycles: 683614353 heartbeat IPC: 0.5321 cumulative IPC: 0.5051 (Simulation time: 04 hr 52 min 59 sec)
Heartbeat CPU 1 instructions: 1460000004 cycles: 686319552 heartbeat IPC: 2.132 cumulative IPC: 2.07 (Simulation time: 04 hr 54 min 05 sec)
Heartbeat CPU 1 instructions: 1470000004 cycles: 691070784 heartbeat IPC: 2.105 cumulative IPC: 2.07 (Simulation time: 04 hr 56 min 05 sec)
Heartbeat CPU 1 instructions: 1480000001 cycles: 695919942 heartbeat IPC: 2.062 cumulative IPC: 2.07 (Simulation time: 04 hr 58 min 00 sec)
Heartbeat CPU 1 instructions: 1490000000 cycles: 700669755 heartbeat IPC: 2.105 cumulative IPC: 2.07 (Simulation time: 04 hr 59 min 56 sec)
Heartbeat CPU 2 instructions: 400000001 cycles: 703390891 heartbeat IPC: 0.5056 cumulative IPC: 0.5052 (Simulation time: 05 hr 01 min 04 sec)
Heartbeat CPU 1 instructions: 1500000003 cycles: 705423806 heartbeat IPC: 2.103 cumulative IPC: 2.07 (Simulation time: 05 hr 01 min 52 sec)
Heartbeat CPU 1 instructions: 1510000002 cycles: 710198430 heartbeat IPC: 2.094 cumulative IPC: 2.07 (Simulation time: 05 hr 03 min 49 sec)
Heartbeat CPU 3 instructions: 150000001 cycles: 714104254 heartbeat IPC: 0.1279 cumulative IPC: 0.1275 (Simulation time: 05 hr 05 min 22 sec)
Heartbeat CPU 1 instructions: 1520000003 cycles: 714874957 heartbeat IPC: 2.138 cumulative IPC: 2.071 (Simulation time: 05 hr 05 min 39 sec)
Heartbeat CPU 1 instructions: 1530000002 cycles: 719646119 heartbeat IPC: 2.096 cumulative IPC: 2.071 (Simulation time: 05 hr 07 min 34 sec)
Heartbeat CPU 2 instructions: 410000002 cycles: 722625585 heartbeat IPC: 0.5199 cumulative IPC: 0.5056 (Simulation time: 05 hr 08 min 47 sec)
Heartbeat CPU 1 instructions: 1540000002 cycles: 724345694 heartbeat IPC: 2.128 cumulative IPC: 2.071 (Simulation time: 05 hr 09 min 26 sec)
Heartbeat CPU 1 instructions: 1550000003 cycles: 729149441 heartbeat IPC: 2.082 cumulative IPC: 2.072 (Simulation time: 05 hr 11 min 26 sec)
Heartbeat CPU 1 instructions: 1560000002 cycles: 733849827 heartbeat IPC: 2.127 cumulative IPC: 2.072 (Simulation time: 05 hr 13 min 21 sec)
Heartbeat CPU 1 instructions: 1570000000 cycles: 738533430 heartbeat IPC: 2.135 cumulative IPC: 2.072 (Simulation time: 05 hr 15 min 14 sec)
Heartbeat CPU 2 instructions: 420000000 cycles: 742136275 heartbeat IPC: 0.5125 cumulative IPC: 0.5058 (Simulation time: 05 hr 16 min 49 sec)
Heartbeat CPU 1 instructions: 1580000000 cycles: 743126896 heartbeat IPC: 2.177 cumulative IPC: 2.073 (Simulation time: 05 hr 17 min 12 sec)
Heartbeat CPU 1 instructions: 1590000000 cycles: 747905117 heartbeat IPC: 2.093 cumulative IPC: 2.073 (Simulation time: 05 hr 19 min 13 sec)
Heartbeat CPU 1 instructions: 1600000003 cycles: 752593704 heartbeat IPC: 2.133 cumulative IPC: 2.074 (Simulation time: 05 hr 21 min 13 sec)
Heartbeat CPU 1 instructions: 1610000001 cycles: 757511352 heartbeat IPC: 2.033 cumulative IPC: 2.073 (Simulation time: 05 hr 23 min 03 sec)
Heartbeat CPU 2 instructions: 430000003 cycles: 762154010 heartbeat IPC: 0.4996 cumulative IPC: 0.5056 (Simulation time: 05 hr 24 min 58 sec)
Heartbeat CPU 1 instructions: 1620000004 cycles: 762291020 heartbeat IPC: 2.092 cumulative IPC: 2.073 (Simulation time: 05 hr 25 min 01 sec)
Heartbeat CPU 1 instructions: 1630000000 cycles: 767172894 heartbeat IPC: 2.048 cumulative IPC: 2.073 (Simulation time: 05 hr 27 min 01 sec)
Heartbeat CPU 1 instructions: 1640000001 cycles: 771817269 heartbeat IPC: 2.153 cumulative IPC: 2.074 (Simulation time: 05 hr 28 min 50 sec)
Heartbeat CPU 0 instructions: 90000001 cycles: 774302899 heartbeat IPC: 0.05457 cumulative IPC: 0.05309 (Simulation time: 05 hr 29 min 50 sec)
Heartbeat CPU 1 instructions: 1650000001 cycles: 776576522 heartbeat IPC: 2.101 cumulative IPC: 2.074 (Simulation time: 05 hr 30 min 44 sec)
Heartbeat CPU 1 instructions: 1660000004 cycles: 781312618 heartbeat IPC: 2.111 cumulative IPC: 2.074 (Simulation time: 05 hr 32 min 36 sec)
Heartbeat CPU 2 instructions: 440000002 cycles: 782529780 heartbeat IPC: 0.4908 cumulative IPC: 0.5052 (Simulation time: 05 hr 33 min 04 sec)
Heartbeat CPU 1 instructions: 1670000004 cycles: 786072730 heartbeat IPC: 2.101 cumulative IPC: 2.074 (Simulation time: 05 hr 34 min 36 sec)
Heartbeat CPU 1 instructions: 1680000000 cycles: 791027706 heartbeat IPC: 2.018 cumulative IPC: 2.074 (Simulation time: 05 hr 36 min 35 sec)
Heartbeat CPU 3 instructions: 160000003 cycles: 793122822 heartbeat IPC: 0.1266 cumulative IPC: 0.1274 (Simulation time: 05 hr 37 min 22 sec)
Heartbeat CPU 1 instructions: 1690000003 cycles: 795809095 heartbeat IPC: 2.091 cumulative IPC: 2.074 (Simulation time: 05 hr 38 min 24 sec)
Heartbeat CPU 1 instructions: 1700000002 cycles: 800495004 heartbeat IPC: 2.134 cumulative IPC: 2.074 (Simulation time: 05 hr 40 min 12 sec)
Heartbeat CPU 2 instructions: 450000000 cycles: 801370447 heartbeat IPC: 0.5308 cumulative IPC: 0.5058 (Simulation time: 05 hr 40 min 33 sec)
Heartbeat CPU 1 instructions: 1710000000 cycles: 805224845 heartbeat IPC: 2.114 cumulative IPC: 2.075 (Simulation time: 05 hr 42 min 01 sec)
Heartbeat CPU 1 instructions: 1720000002 cycles: 810127362 heartbeat IPC: 2.04 cumulative IPC: 2.074 (Simulation time: 05 hr 43 min 53 sec)
Heartbeat CPU 1 instructions: 1730000001 cycles: 814689151 heartbeat IPC: 2.192 cumulative IPC: 2.075 (Simulation time: 05 hr 45 min 42 sec)
Heartbeat CPU 1 instructions: 1740000002 cycles: 819212575 heartbeat IPC: 2.211 cumulative IPC: 2.076 (Simulation time: 05 hr 47 min 30 sec)
Heartbeat CPU 2 instructions: 460000001 cycles: 820486276 heartbeat IPC: 0.5231 cumulative IPC: 0.5062 (Simulation time: 05 hr 47 min 58 sec)
Heartbeat CPU 1 instructions: 1750000001 cycles: 823505109 heartbeat IPC: 2.33 cumulative IPC: 2.077 (Simulation time: 05 hr 49 min 14 sec)
Heartbeat CPU 1 instructions: 1760000003 cycles: 827824857 heartbeat IPC: 2.315 cumulative IPC: 2.078 (Simulation time: 05 hr 51 min 00 sec)
Heartbeat CPU 1 instructions: 1770000001 cycles: 832306977 heartbeat IPC: 2.231 cumulative IPC: 2.079 (Simulation time: 05 hr 52 min 43 sec)
Heartbeat CPU 1 instructions: 1780000001 cycles: 836533761 heartbeat IPC: 2.366 cumulative IPC: 2.081 (Simulation time: 05 hr 54 min 25 sec)
Heartbeat CPU 2 instructions: 470000001 cycles: 840415936 heartbeat IPC: 0.5018 cumulative IPC: 0.5061 (Simulation time: 05 hr 55 min 57 sec)
Heartbeat CPU 1 instructions: 1790000004 cycles: 840804491 heartbeat IPC: 2.342 cumulative IPC: 2.082 (Simulation time: 05 hr 56 min 05 sec)
Heartbeat CPU 1 instructions: 1800000003 cycles: 845142903 heartbeat IPC: 2.305 cumulative IPC: 2.083 (Simulation time: 05 hr 57 min 44 sec)
Heartbeat CPU 1 instructions: 1810000002 cycles: 849677352 heartbeat IPC: 2.205 cumulative IPC: 2.084 (Simulation time: 05 hr 59 min 26 sec)
Heartbeat CPU 1 instructions: 1820000002 cycles: 853932102 heartbeat IPC: 2.35 cumulative IPC: 2.085 (Simulation time: 06 hr 01 min 06 sec)
Heartbeat CPU 1 instructions: 1830000002 cycles: 858445540 heartbeat IPC: 2.216 cumulative IPC: 2.086 (Simulation time: 06 hr 02 min 51 sec)
Heartbeat CPU 2 instructions: 480000000 cycles: 859670023 heartbeat IPC: 0.5194 cumulative IPC: 0.5064 (Simulation time: 06 hr 03 min 17 sec)
Heartbeat CPU 1 instructions: 1840000001 cycles: 862725283 heartbeat IPC: 2.337 cumulative IPC: 2.087 (Simulation time: 06 hr 04 min 22 sec)
Heartbeat CPU 1 instructions: 1850000001 cycles: 866985294 heartbeat IPC: 2.347 cumulative IPC: 2.089 (Simulation time: 06 hr 05 min 57 sec)
Heartbeat CPU 3 instructions: 170000000 cycles: 870548915 heartbeat IPC: 0.1292 cumulative IPC: 0.1276 (Simulation time: 06 hr 07 min 19 sec)
Heartbeat CPU 1 instructions: 1860000001 cycles: 871246352 heartbeat IPC: 2.347 cumulative IPC: 2.09 (Simulation time: 06 hr 07 min 36 sec)
Heartbeat CPU 1 instructions: 1870000002 cycles: 875762370 heartbeat IPC: 2.214 cumulative IPC: 2.091 (Simulation time: 06 hr 09 min 22 sec)
Heartbeat CPU 2 instructions: 490000001 cycles: 878242835 heartbeat IPC: 0.5384 cumulative IPC: 0.5071 (Simulation time: 06 hr 10 min 26 sec)
Heartbeat CPU 1 instructions: 1880000003 cycles: 880063217 heartbeat IPC: 2.325 cumulative IPC: 2.092 (Simulation time: 06 hr 11 min 02 sec)
Heartbeat CPU 1 instructions: 1890000000 cycles: 884642724 heartbeat IPC: 2.184 cumulative IPC: 2.092 (Simulation time: 06 hr 12 min 41 sec)
Heartbeat CPU 1 instructions: 1900000000 cycles: 889051970 heartbeat IPC: 2.268 cumulative IPC: 2.093 (Simulation time: 06 hr 14 min 23 sec)
Heartbeat CPU 2 instructions: 500000003 cycles: 900470054 heartbeat IPC: 0.4499 cumulative IPC: 0.5057 (Simulation time: 06 hr 18 min 21 sec)
Heartbeat CPU 1 instructions: 1910000002 cycles: 903217488 heartbeat IPC: 0.7059 cumulative IPC: 2.071 (Simulation time: 06 hr 19 min 18 sec)
Heartbeat CPU 1 instructions: 1920000004 cycles: 907735743 heartbeat IPC: 2.213 cumulative IPC: 2.072 (Simulation time: 06 hr 20 min 59 sec)
Heartbeat CPU 1 instructions: 1930000002 cycles: 912101660 heartbeat IPC: 2.29 cumulative IPC: 2.073 (Simulation time: 06 hr 22 min 39 sec)
Heartbeat CPU 1 instructions: 1940000002 cycles: 916616132 heartbeat IPC: 2.215 cumulative IPC: 2.073 (Simulation time: 06 hr 24 min 22 sec)
Heartbeat CPU 2 instructions: 510000004 cycles: 920602006 heartbeat IPC: 0.4967 cumulative IPC: 0.5055 (Simulation time: 06 hr 25 min 51 sec)
Heartbeat CPU 1 instructions: 1950000004 cycles: 920903930 heartbeat IPC: 2.332 cumulative IPC: 2.075 (Simulation time: 06 hr 25 min 59 sec)
Heartbeat CPU 1 instructions: 1960000000 cycles: 925181151 heartbeat IPC: 2.338 cumulative IPC: 2.076 (Simulation time: 06 hr 27 min 42 sec)
Heartbeat CPU 1 instructions: 1970000004 cycles: 929656800 heartbeat IPC: 2.234 cumulative IPC: 2.077 (Simulation time: 06 hr 29 min 21 sec)
Heartbeat CPU 1 instructions: 1980000000 cycles: 933912100 heartbeat IPC: 2.35 cumulative IPC: 2.078 (Simulation time: 06 hr 31 min 01 sec)
Heartbeat CPU 1 instructions: 1990000002 cycles: 938180044 heartbeat IPC: 2.343 cumulative IPC: 2.079 (Simulation time: 06 hr 32 min 36 sec)
Heartbeat CPU 2 instructions: 520000003 cycles: 940462295 heartbeat IPC: 0.5035 cumulative IPC: 0.5054 (Simulation time: 06 hr 33 min 27 sec)
*** Reached end of trace: (1, "/home/das/dpc3_traces/603.bwaves_s-3699B.champsimtrace.xz")
Heartbeat CPU 1 instructions: 2000000001 cycles: 942504301 heartbeat IPC: 2.313 cumulative IPC: 2.08 (Simulation time: 06 hr 34 min 16 sec)
Heartbeat CPU 1 instructions: 2010000004 cycles: 946872032 heartbeat IPC: 2.29 cumulative IPC: 2.081 (Simulation time: 06 hr 35 min 54 sec)
Heartbeat CPU 1 instructions: 2020000004 cycles: 954764301 heartbeat IPC: 1.267 cumulative IPC: 2.074 (Simulation time: 06 hr 38 min 43 sec)
Heartbeat CPU 3 instructions: 180000002 cycles: 956799795 heartbeat IPC: 0.1159 cumulative IPC: 0.1265 (Simulation time: 06 hr 39 min 25 sec)
Heartbeat CPU 2 instructions: 530000001 cycles: 961417492 heartbeat IPC: 0.4772 cumulative IPC: 0.5048 (Simulation time: 06 hr 41 min 13 sec)
Heartbeat CPU 1 instructions: 2030000000 cycles: 963466761 heartbeat IPC: 1.149 cumulative IPC: 2.066 (Simulation time: 06 hr 41 min 58 sec)
Heartbeat CPU 1 instructions: 2040000001 cycles: 968032762 heartbeat IPC: 2.19 cumulative IPC: 2.066 (Simulation time: 06 hr 43 min 36 sec)
Heartbeat CPU 1 instructions: 2050000000 cycles: 972516129 heartbeat IPC: 2.23 cumulative IPC: 2.067 (Simulation time: 06 hr 45 min 19 sec)
Heartbeat CPU 1 instructions: 2060000001 cycles: 976852257 heartbeat IPC: 2.306 cumulative IPC: 2.068 (Simulation time: 06 hr 46 min 57 sec)
Heartbeat CPU 0 instructions: 100000000 cycles: 978344065 heartbeat IPC: 0.04901 cumulative IPC: 0.05222 (Simulation time: 06 hr 47 min 32 sec)
Heartbeat CPU 1 instructions: 2070000003 cycles: 981328772 heartbeat IPC: 2.234 cumulative IPC: 2.069 (Simulation time: 06 hr 48 min 44 sec)
Heartbeat CPU 2 instructions: 540000000 cycles: 981719186 heartbeat IPC: 0.4926 cumulative IPC: 0.5045 (Simulation time: 06 hr 48 min 52 sec)
Heartbeat CPU 1 instructions: 2080000002 cycles: 985645855 heartbeat IPC: 2.316 cumulative IPC: 2.07 (Simulation time: 06 hr 50 min 31 sec)
Heartbeat CPU 1 instructions: 2090000003 cycles: 990110990 heartbeat IPC: 2.24 cumulative IPC: 2.071 (Simulation time: 06 hr 52 min 21 sec)
Heartbeat CPU 1 instructions: 2100000003 cycles: 994623819 heartbeat IPC: 2.216 cumulative IPC: 2.072 (Simulation time: 06 hr 54 min 02 sec)
Heartbeat CPU 1 instructions: 2110000001 cycles: 999461603 heartbeat IPC: 2.067 cumulative IPC: 2.072 (Simulation time: 06 hr 55 min 54 sec)
Heartbeat CPU 2 instructions: 550000000 cycles: 1000843929 heartbeat IPC: 0.5229 cumulative IPC: 0.5049 (Simulation time: 06 hr 56 min 27 sec)
Heartbeat CPU 1 instructions: 2120000000 cycles: 1003987562 heartbeat IPC: 2.209 cumulative IPC: 2.072 (Simulation time: 06 hr 57 min 41 sec)
Heartbeat CPU 1 instructions: 2130000004 cycles: 1008822840 heartbeat IPC: 2.068 cumulative IPC: 2.072 (Simulation time: 06 hr 59 min 27 sec)
Heartbeat CPU 1 instructions: 2140000001 cycles: 1013612999 heartbeat IPC: 2.088 cumulative IPC: 2.072 (Simulation time: 07 hr 01 min 22 sec)
Heartbeat CPU 1 instructions: 2150000001 cycles: 1018276975 heartbeat IPC: 2.144 cumulative IPC: 2.073 (Simulation time: 07 hr 03 min 15 sec)
Heartbeat CPU 2 instructions: 560000004 cycles: 1020575412 heartbeat IPC: 0.5068 cumulative IPC: 0.5049 (Simulation time: 07 hr 04 min 06 sec)
Heartbeat CPU 1 instructions: 2160000000 cycles: 1022974813 heartbeat IPC: 2.129 cumulative IPC: 2.073 (Simulation time: 07 hr 04 min 59 sec)
Heartbeat CPU 1 instructions: 2170000000 cycles: 1027710391 heartbeat IPC: 2.112 cumulative IPC: 2.073 (Simulation time: 07 hr 06 min 40 sec)
Heartbeat CPU 1 instructions: 2180000001 cycles: 1032632041 heartbeat IPC: 2.032 cumulative IPC: 2.073 (Simulation time: 07 hr 08 min 36 sec)
Heartbeat CPU 1 instructions: 2190000000 cycles: 1037402343 heartbeat IPC: 2.096 cumulative IPC: 2.073 (Simulation time: 07 hr 10 min 28 sec)
Heartbeat CPU 3 instructions: 190000000 cycles: 1037642920 heartbeat IPC: 0.1237 cumulative IPC: 0.1263 (Simulation time: 07 hr 10 min 33 sec)
Heartbeat CPU 2 instructions: 570000000 cycles: 1039329245 heartbeat IPC: 0.5332 cumulative IPC: 0.5055 (Simulation time: 07 hr 11 min 12 sec)
Heartbeat CPU 1 instructions: 2200000003 cycles: 1041992686 heartbeat IPC: 2.178 cumulative IPC: 2.073 (Simulation time: 07 hr 12 min 10 sec)
Heartbeat CPU 1 instructions: 2210000000 cycles: 1047036663 heartbeat IPC: 1.983 cumulative IPC: 2.073 (Simulation time: 07 hr 14 min 11 sec)
Heartbeat CPU 1 instructions: 2220000001 cycles: 1052124666 heartbeat IPC: 1.965 cumulative IPC: 2.072 (Simulation time: 07 hr 16 min 06 sec)
Heartbeat CPU 1 instructions: 2230000004 cycles: 1057015639 heartbeat IPC: 2.045 cumulative IPC: 2.072 (Simulation time: 07 hr 18 min 21 sec)
Heartbeat CPU 2 instructions: 580000000 cycles: 1059202439 heartbeat IPC: 0.5032 cumulative IPC: 0.5054 (Simulation time: 07 hr 19 min 19 sec)
Heartbeat CPU 1 instructions: 2240000000 cycles: 1062044435 heartbeat IPC: 1.989 cumulative IPC: 2.072 (Simulation time: 07 hr 20 min 23 sec)
Heartbeat CPU 1 instructions: 2250000004 cycles: 1066889336 heartbeat IPC: 2.064 cumulative IPC: 2.072 (Simulation time: 07 hr 22 min 15 sec)
Heartbeat CPU 1 instructions: 2260000000 cycles: 1071659567 heartbeat IPC: 2.096 cumulative IPC: 2.072 (Simulation time: 07 hr 24 min 05 sec)
Heartbeat CPU 1 instructions: 2270000002 cycles: 1076613349 heartbeat IPC: 2.019 cumulative IPC: 2.072 (Simulation time: 07 hr 26 min 00 sec)
Heartbeat CPU 2 instructions: 590000003 cycles: 1078193832 heartbeat IPC: 0.5266 cumulative IPC: 0.5058 (Simulation time: 07 hr 26 min 33 sec)
Heartbeat CPU 1 instructions: 2280000002 cycles: 1081371066 heartbeat IPC: 2.102 cumulative IPC: 2.072 (Simulation time: 07 hr 27 min 46 sec)
Heartbeat CPU 1 instructions: 2290000000 cycles: 1086159775 heartbeat IPC: 2.088 cumulative IPC: 2.072 (Simulation time: 07 hr 29 min 35 sec)
Heartbeat CPU 1 instructions: 2300000001 cycles: 1091150898 heartbeat IPC: 2.004 cumulative IPC: 2.072 (Simulation time: 07 hr 31 min 32 sec)
Heartbeat CPU 1 instructions: 2310000002 cycles: 1095967162 heartbeat IPC: 2.076 cumulative IPC: 2.072 (Simulation time: 07 hr 33 min 23 sec)
Heartbeat CPU 2 instructions: 600000004 cycles: 1096319547 heartbeat IPC: 0.5517 cumulative IPC: 0.5066 (Simulation time: 07 hr 33 min 32 sec)
Heartbeat CPU 1 instructions: 2320000001 cycles: 1100839409 heartbeat IPC: 2.052 cumulative IPC: 2.072 (Simulation time: 07 hr 35 min 21 sec)
Heartbeat CPU 1 instructions: 2330000003 cycles: 1105711441 heartbeat IPC: 2.053 cumulative IPC: 2.071 (Simulation time: 07 hr 37 min 10 sec)
Heartbeat CPU 1 instructions: 2340000000 cycles: 1110572500 heartbeat IPC: 2.057 cumulative IPC: 2.071 (Simulation time: 07 hr 38 min 56 sec)
Heartbeat CPU 2 instructions: 610000001 cycles: 1115549882 heartbeat IPC: 0.52 cumulative IPC: 0.5068 (Simulation time: 07 hr 40 min 46 sec)
Heartbeat CPU 1 instructions: 2350000000 cycles: 1115571829 heartbeat IPC: 2 cumulative IPC: 2.071 (Simulation time: 07 hr 40 min 47 sec)
Heartbeat CPU 3 instructions: 200000000 cycles: 1117757810 heartbeat IPC: 0.1248 cumulative IPC: 0.1262 (Simulation time: 07 hr 41 min 34 sec)
Heartbeat CPU 1 instructions: 2360000003 cycles: 1120651310 heartbeat IPC: 1.969 cumulative IPC: 2.071 (Simulation time: 07 hr 42 min 39 sec)
Heartbeat CPU 1 instructions: 2370000001 cycles: 1125490682 heartbeat IPC: 2.066 cumulative IPC: 2.071 (Simulation time: 07 hr 44 min 28 sec)
Heartbeat CPU 1 instructions: 2380000001 cycles: 1130274237 heartbeat IPC: 2.09 cumulative IPC: 2.071 (Simulation time: 07 hr 46 min 17 sec)
Heartbeat CPU 1 instructions: 2390000004 cycles: 1135009245 heartbeat IPC: 2.112 cumulative IPC: 2.071 (Simulation time: 07 hr 48 min 09 sec)
Heartbeat CPU 2 instructions: 620000000 cycles: 1135526981 heartbeat IPC: 0.5006 cumulative IPC: 0.5067 (Simulation time: 07 hr 48 min 20 sec)
Heartbeat CPU 1 instructions: 2400000000 cycles: 1139808586 heartbeat IPC: 2.084 cumulative IPC: 2.071 (Simulation time: 07 hr 50 min 03 sec)
Heartbeat CPU 1 instructions: 2410000000 cycles: 1144564811 heartbeat IPC: 2.103 cumulative IPC: 2.071 (Simulation time: 07 hr 51 min 48 sec)
Heartbeat CPU 1 instructions: 2420000003 cycles: 1149276249 heartbeat IPC: 2.122 cumulative IPC: 2.071 (Simulation time: 07 hr 53 min 39 sec)
Heartbeat CPU 1 instructions: 2430000003 cycles: 1154143991 heartbeat IPC: 2.054 cumulative IPC: 2.071 (Simulation time: 07 hr 55 min 30 sec)
Heartbeat CPU 2 instructions: 630000003 cycles: 1154314642 heartbeat IPC: 0.5323 cumulative IPC: 0.5071 (Simulation time: 07 hr 55 min 34 sec)
Heartbeat CPU 1 instructions: 2440000004 cycles: 1158895891 heartbeat IPC: 2.104 cumulative IPC: 2.071 (Simulation time: 07 hr 57 min 19 sec)
Heartbeat CPU 1 instructions: 2450000002 cycles: 1163609990 heartbeat IPC: 2.121 cumulative IPC: 2.072 (Simulation time: 07 hr 59 min 06 sec)
Heartbeat CPU 1 instructions: 2460000001 cycles: 1168405381 heartbeat IPC: 2.085 cumulative IPC: 2.072 (Simulation time: 08 hr 01 min 02 sec)
Heartbeat CPU 0 instructions: 110000004 cycles: 1168847682 heartbeat IPC: 0.05249 cumulative IPC: 0.05227 (Simulation time: 08 hr 01 min 13 sec)
Heartbeat CPU 1 instructions: 2470000001 cycles: 1172685551 heartbeat IPC: 2.336 cumulative IPC: 2.073 (Simulation time: 08 hr 02 min 38 sec)
Heartbeat CPU 2 instructions: 640000004 cycles: 1173284882 heartbeat IPC: 0.5271 cumulative IPC: 0.5074 (Simulation time: 08 hr 02 min 53 sec)
Heartbeat CPU 1 instructions: 2480000004 cycles: 1177258494 heartbeat IPC: 2.187 cumulative IPC: 2.073 (Simulation time: 08 hr 04 min 28 sec)
Heartbeat CPU 1 instructions: 2490000001 cycles: 1181616599 heartbeat IPC: 2.295 cumulative IPC: 2.074 (Simulation time: 08 hr 06 min 06 sec)
Heartbeat CPU 1 instructions: 2500000000 cycles: 1186077918 heartbeat IPC: 2.241 cumulative IPC: 2.075 (Simulation time: 08 hr 07 min 50 sec)
Heartbeat CPU 1 instructions: 2510000003 cycles: 1190517423 heartbeat IPC: 2.253 cumulative IPC: 2.075 (Simulation time: 08 hr 09 min 32 sec)
Heartbeat CPU 2 instructions: 650000002 cycles: 1192318993 heartbeat IPC: 0.5254 cumulative IPC: 0.5077 (Simulation time: 08 hr 10 min 10 sec)
Heartbeat CPU 1 instructions: 2520000004 cycles: 1195031244 heartbeat IPC: 2.215 cumulative IPC: 2.076 (Simulation time: 08 hr 11 min 13 sec)
Heartbeat CPU 3 instructions: 210000003 cycles: 1197733816 heartbeat IPC: 0.125 cumulative IPC: 0.1261 (Simulation time: 08 hr 12 min 12 sec)
Heartbeat CPU 1 instructions: 2530000001 cycles: 1205012563 heartbeat IPC: 1.002 cumulative IPC: 2.067 (Simulation time: 08 hr 14 min 41 sec)
Heartbeat CPU 1 instructions: 2540000003 cycles: 1213292393 heartbeat IPC: 1.208 cumulative IPC: 2.061 (Simulation time: 08 hr 17 min 41 sec)
Heartbeat CPU 2 instructions: 660000000 cycles: 1215078937 heartbeat IPC: 0.4394 cumulative IPC: 0.5064 (Simulation time: 08 hr 18 min 22 sec)
Simulation finished CPU 3 instructions: 150000002 cycles: 1194914664 cumulative IPC: 0.1255 (Simulation time: 08 hr 18 min 40 sec)
Heartbeat CPU 1 instructions: 2550000001 cycles: 1217649868 heartbeat IPC: 2.295 cumulative IPC: 2.062 (Simulation time: 08 hr 19 min 30 sec)
Heartbeat CPU 1 instructions: 2560000001 cycles: 1222205724 heartbeat IPC: 2.195 cumulative IPC: 2.062 (Simulation time: 08 hr 21 min 11 sec)
Heartbeat CPU 1 instructions: 2570000000 cycles: 1226554044 heartbeat IPC: 2.3 cumulative IPC: 2.063 (Simulation time: 08 hr 22 min 49 sec)
Heartbeat CPU 1 instructions: 2580000001 cycles: 1231103093 heartbeat IPC: 2.198 cumulative IPC: 2.063 (Simulation time: 08 hr 24 min 43 sec)
Heartbeat CPU 2 instructions: 670000001 cycles: 1233987218 heartbeat IPC: 0.5289 cumulative IPC: 0.5068 (Simulation time: 08 hr 25 min 51 sec)
Heartbeat CPU 1 instructions: 2590000001 cycles: 1235409199 heartbeat IPC: 2.322 cumulative IPC: 2.064 (Simulation time: 08 hr 26 min 24 sec)
Heartbeat CPU 1 instructions: 2600000004 cycles: 1239715455 heartbeat IPC: 2.322 cumulative IPC: 2.065 (Simulation time: 08 hr 28 min 08 sec)
Heartbeat CPU 1 instructions: 2610000000 cycles: 1244251314 heartbeat IPC: 2.205 cumulative IPC: 2.066 (Simulation time: 08 hr 29 min 55 sec)
Heartbeat CPU 1 instructions: 2620000000 cycles: 1248726798 heartbeat IPC: 2.234 cumulative IPC: 2.066 (Simulation time: 08 hr 31 min 50 sec)
Heartbeat CPU 1 instructions: 2630000000 cycles: 1253232932 heartbeat IPC: 2.219 cumulative IPC: 2.067 (Simulation time: 08 hr 33 min 49 sec)
Heartbeat CPU 2 instructions: 680000002 cycles: 1253901621 heartbeat IPC: 0.5021 cumulative IPC: 0.5067 (Simulation time: 08 hr 34 min 05 sec)
Heartbeat CPU 1 instructions: 2640000000 cycles: 1257609054 heartbeat IPC: 2.285 cumulative IPC: 2.068 (Simulation time: 08 hr 35 min 41 sec)
Heartbeat CPU 1 instructions: 2650000004 cycles: 1262158844 heartbeat IPC: 2.198 cumulative IPC: 2.068 (Simulation time: 08 hr 37 min 31 sec)
Heartbeat CPU 1 instructions: 2660000000 cycles: 1266892083 heartbeat IPC: 2.113 cumulative IPC: 2.068 (Simulation time: 08 hr 39 min 33 sec)
Heartbeat CPU 1 instructions: 2670000000 cycles: 1271565657 heartbeat IPC: 2.14 cumulative IPC: 2.069 (Simulation time: 08 hr 41 min 17 sec)
Heartbeat CPU 2 instructions: 690000004 cycles: 1272918189 heartbeat IPC: 0.5259 cumulative IPC: 0.507 (Simulation time: 08 hr 41 min 51 sec)
Heartbeat CPU 1 instructions: 2680000001 cycles: 1276331802 heartbeat IPC: 2.098 cumulative IPC: 2.069 (Simulation time: 08 hr 43 min 08 sec)
Heartbeat CPU 1 instructions: 2690000000 cycles: 1281034290 heartbeat IPC: 2.127 cumulative IPC: 2.069 (Simulation time: 08 hr 45 min 07 sec)
Heartbeat CPU 3 instructions: 220000000 cycles: 1282075419 heartbeat IPC: 0.1186 cumulative IPC: 0.1256 (Simulation time: 08 hr 45 min 33 sec)
Heartbeat CPU 1 instructions: 2700000004 cycles: 1285777730 heartbeat IPC: 2.108 cumulative IPC: 2.069 (Simulation time: 08 hr 47 min 05 sec)
Heartbeat CPU 1 instructions: 2710000001 cycles: 1290460116 heartbeat IPC: 2.136 cumulative IPC: 2.069 (Simulation time: 08 hr 48 min 52 sec)
Heartbeat CPU 2 instructions: 700000003 cycles: 1292323397 heartbeat IPC: 0.5153 cumulative IPC: 0.5071 (Simulation time: 08 hr 49 min 36 sec)
Heartbeat CPU 1 instructions: 2720000003 cycles: 1295278975 heartbeat IPC: 2.075 cumulative IPC: 2.069 (Simulation time: 08 hr 50 min 45 sec)
Heartbeat CPU 1 instructions: 2730000001 cycles: 1300052379 heartbeat IPC: 2.095 cumulative IPC: 2.069 (Simulation time: 08 hr 52 min 42 sec)
Heartbeat CPU 1 instructions: 2740000003 cycles: 1304936448 heartbeat IPC: 2.047 cumulative IPC: 2.069 (Simulation time: 08 hr 54 min 33 sec)
Heartbeat CPU 1 instructions: 2750000000 cycles: 1309869780 heartbeat IPC: 2.027 cumulative IPC: 2.069 (Simulation time: 08 hr 56 min 36 sec)
Heartbeat CPU 2 instructions: 710000000 cycles: 1312887269 heartbeat IPC: 0.4863 cumulative IPC: 0.5068 (Simulation time: 08 hr 57 min 51 sec)
Heartbeat CPU 1 instructions: 2760000000 cycles: 1314631044 heartbeat IPC: 2.1 cumulative IPC: 2.069 (Simulation time: 08 hr 58 min 29 sec)
Heartbeat CPU 1 instructions: 2770000001 cycles: 1319433162 heartbeat IPC: 2.082 cumulative IPC: 2.069 (Simulation time: 09 hr 00 min 10 sec)
Heartbeat CPU 1 instructions: 2780000001 cycles: 1324219084 heartbeat IPC: 2.089 cumulative IPC: 2.069 (Simulation time: 09 hr 01 min 52 sec)
Heartbeat CPU 1 instructions: 2790000001 cycles: 1329085553 heartbeat IPC: 2.055 cumulative IPC: 2.069 (Simulation time: 09 hr 03 min 37 sec)
Heartbeat CPU 2 instructions: 720000000 cycles: 1332394706 heartbeat IPC: 0.5126 cumulative IPC: 0.5069 (Simulation time: 09 hr 04 min 43 sec)
Heartbeat CPU 1 instructions: 2800000000 cycles: 1333801780 heartbeat IPC: 2.12 cumulative IPC: 2.07 (Simulation time: 09 hr 05 min 17 sec)
Heartbeat CPU 1 instructions: 2810000004 cycles: 1338631100 heartbeat IPC: 2.071 cumulative IPC: 2.07 (Simulation time: 09 hr 06 min 59 sec)
Heartbeat CPU 1 instructions: 2820000002 cycles: 1343376543 heartbeat IPC: 2.107 cumulative IPC: 2.07 (Simulation time: 09 hr 08 min 44 sec)
Heartbeat CPU 1 instructions: 2830000003 cycles: 1348081857 heartbeat IPC: 2.125 cumulative IPC: 2.07 (Simulation time: 09 hr 10 min 21 sec)
Heartbeat CPU 2 instructions: 730000003 cycles: 1352635482 heartbeat IPC: 0.4941 cumulative IPC: 0.5067 (Simulation time: 09 hr 12 min 00 sec)
Heartbeat CPU 1 instructions: 2840000002 cycles: 1353042453 heartbeat IPC: 2.016 cumulative IPC: 2.07 (Simulation time: 09 hr 12 min 08 sec)
Heartbeat CPU 1 instructions: 2850000000 cycles: 1357750954 heartbeat IPC: 2.124 cumulative IPC: 2.07 (Simulation time: 09 hr 13 min 45 sec)
Heartbeat CPU 3 instructions: 230000000 cycles: 1361823364 heartbeat IPC: 0.1254 cumulative IPC: 0.1256 (Simulation time: 09 hr 15 min 07 sec)
Heartbeat CPU 1 instructions: 2860000002 cycles: 1362430442 heartbeat IPC: 2.137 cumulative IPC: 2.07 (Simulation time: 09 hr 15 min 21 sec)
Heartbeat CPU 0 instructions: 120000004 cycles: 1364527712 heartbeat IPC: 0.0511 cumulative IPC: 0.0521 (Simulation time: 09 hr 16 min 05 sec)
Heartbeat CPU 1 instructions: 2870000002 cycles: 1367060767 heartbeat IPC: 2.16 cumulative IPC: 2.07 (Simulation time: 09 hr 16 min 56 sec)
Heartbeat CPU 2 instructions: 740000001 cycles: 1371266129 heartbeat IPC: 0.5367 cumulative IPC: 0.5071 (Simulation time: 09 hr 18 min 31 sec)
Heartbeat CPU 1 instructions: 2880000004 cycles: 1371807265 heartbeat IPC: 2.107 cumulative IPC: 2.071 (Simulation time: 09 hr 18 min 43 sec)
Heartbeat CPU 1 instructions: 2890000003 cycles: 1376492335 heartbeat IPC: 2.134 cumulative IPC: 2.071 (Simulation time: 09 hr 20 min 22 sec)
Heartbeat CPU 1 instructions: 2900000001 cycles: 1381217516 heartbeat IPC: 2.116 cumulative IPC: 2.071 (Simulation time: 09 hr 22 min 02 sec)
Heartbeat CPU 1 instructions: 2910000002 cycles: 1386082252 heartbeat IPC: 2.056 cumulative IPC: 2.071 (Simulation time: 09 hr 25 min 01 sec)
Heartbeat CPU 1 instructions: 2920000000 cycles: 1390702733 heartbeat IPC: 2.164 cumulative IPC: 2.071 (Simulation time: 09 hr 27 min 51 sec)
Heartbeat CPU 2 instructions: 750000001 cycles: 1390871496 heartbeat IPC: 0.5101 cumulative IPC: 0.5071 (Simulation time: 09 hr 27 min 57 sec)
Heartbeat CPU 1 instructions: 2930000000 cycles: 1395513336 heartbeat IPC: 2.079 cumulative IPC: 2.071 (Simulation time: 09 hr 30 min 49 sec)
Heartbeat CPU 1 instructions: 2940000004 cycles: 1400630788 heartbeat IPC: 1.954 cumulative IPC: 2.071 (Simulation time: 09 hr 33 min 48 sec)
Heartbeat CPU 1 instructions: 2950000004 cycles: 1405497936 heartbeat IPC: 2.055 cumulative IPC: 2.071 (Simulation time: 09 hr 37 min 01 sec)
Heartbeat CPU 1 instructions: 2960000004 cycles: 1410326736 heartbeat IPC: 2.071 cumulative IPC: 2.071 (Simulation time: 09 hr 40 min 01 sec)
Heartbeat CPU 2 instructions: 760000004 cycles: 1410376789 heartbeat IPC: 0.5127 cumulative IPC: 0.5072 (Simulation time: 09 hr 40 min 03 sec)
Heartbeat CPU 1 instructions: 2970000000 cycles: 1415006597 heartbeat IPC: 2.137 cumulative IPC: 2.071 (Simulation time: 09 hr 43 min 02 sec)
Heartbeat CPU 1 instructions: 2980000004 cycles: 1419996663 heartbeat IPC: 2.004 cumulative IPC: 2.071 (Simulation time: 09 hr 46 min 19 sec)
Heartbeat CPU 1 instructions: 2990000003 cycles: 1424799676 heartbeat IPC: 2.082 cumulative IPC: 2.071 (Simulation time: 09 hr 49 min 43 sec)
Heartbeat CPU 2 instructions: 770000003 cycles: 1429560979 heartbeat IPC: 0.5213 cumulative IPC: 0.5074 (Simulation time: 09 hr 52 min 58 sec)
Heartbeat CPU 1 instructions: 3000000003 cycles: 1429615590 heartbeat IPC: 2.076 cumulative IPC: 2.071 (Simulation time: 09 hr 53 min 00 sec)
Heartbeat CPU 1 instructions: 3010000004 cycles: 1434487687 heartbeat IPC: 2.053 cumulative IPC: 2.071 (Simulation time: 09 hr 55 min 40 sec)
Heartbeat CPU 1 instructions: 3020000001 cycles: 1439166699 heartbeat IPC: 2.137 cumulative IPC: 2.071 (Simulation time: 09 hr 58 min 50 sec)
Heartbeat CPU 3 instructions: 240000003 cycles: 1440747135 heartbeat IPC: 0.1267 cumulative IPC: 0.1256 (Simulation time: 10 hr 00 min 00 sec)
Heartbeat CPU 1 instructions: 3030000003 cycles: 1443729745 heartbeat IPC: 2.192 cumulative IPC: 2.071 (Simulation time: 10 hr 02 min 20 sec)
Heartbeat CPU 1 instructions: 3040000000 cycles: 1448381330 heartbeat IPC: 2.15 cumulative IPC: 2.072 (Simulation time: 10 hr 04 min 54 sec)
Heartbeat CPU 2 instructions: 780000002 cycles: 1448963986 heartbeat IPC: 0.5154 cumulative IPC: 0.5075 (Simulation time: 10 hr 05 min 12 sec)
Heartbeat CPU 1 instructions: 3050000000 cycles: 1452740849 heartbeat IPC: 2.294 cumulative IPC: 2.072 (Simulation time: 10 hr 07 min 24 sec)
Heartbeat CPU 1 instructions: 3060000000 cycles: 1457086427 heartbeat IPC: 2.301 cumulative IPC: 2.073 (Simulation time: 10 hr 09 min 55 sec)
Heartbeat CPU 1 instructions: 3070000004 cycles: 1461589283 heartbeat IPC: 2.221 cumulative IPC: 2.073 (Simulation time: 10 hr 13 min 09 sec)
Heartbeat CPU 1 instructions: 3080000002 cycles: 1466063478 heartbeat IPC: 2.235 cumulative IPC: 2.074 (Simulation time: 10 hr 15 min 52 sec)
Heartbeat CPU 2 instructions: 790000004 cycles: 1467641950 heartbeat IPC: 0.5354 cumulative IPC: 0.5079 (Simulation time: 10 hr 16 min 42 sec)
Heartbeat CPU 1 instructions: 3090000004 cycles: 1470442516 heartbeat IPC: 2.284 cumulative IPC: 2.075 (Simulation time: 10 hr 18 min 22 sec)
Heartbeat CPU 1 instructions: 3100000004 cycles: 1474821356 heartbeat IPC: 2.284 cumulative IPC: 2.075 (Simulation time: 10 hr 20 min 55 sec)
Heartbeat CPU 1 instructions: 3110000000 cycles: 1479366655 heartbeat IPC: 2.2 cumulative IPC: 2.076 (Simulation time: 10 hr 23 min 34 sec)
Heartbeat CPU 1 instructions: 3120000003 cycles: 1483702000 heartbeat IPC: 2.307 cumulative IPC: 2.076 (Simulation time: 10 hr 25 min 59 sec)
Heartbeat CPU 2 instructions: 800000003 cycles: 1487655268 heartbeat IPC: 0.4997 cumulative IPC: 0.5078 (Simulation time: 10 hr 28 min 10 sec)
Heartbeat CPU 1 instructions: 3130000002 cycles: 1488208145 heartbeat IPC: 2.219 cumulative IPC: 2.077 (Simulation time: 10 hr 28 min 32 sec)
Heartbeat CPU 1 instructions: 3140000001 cycles: 1492766908 heartbeat IPC: 2.194 cumulative IPC: 2.077 (Simulation time: 10 hr 31 min 01 sec)
Heartbeat CPU 1 instructions: 3150000002 cycles: 1497084403 heartbeat IPC: 2.316 cumulative IPC: 2.078 (Simulation time: 10 hr 33 min 34 sec)
Heartbeat CPU 2 instructions: 810000003 cycles: 1509984459 heartbeat IPC: 0.4478 cumulative IPC: 0.5069 (Simulation time: 10 hr 40 min 36 sec)
Heartbeat CPU 1 instructions: 3160000000 cycles: 1510554406 heartbeat IPC: 0.7424 cumulative IPC: 2.066 (Simulation time: 10 hr 40 min 56 sec)
Heartbeat CPU 1 instructions: 3170000003 cycles: 1515397478 heartbeat IPC: 2.065 cumulative IPC: 2.066 (Simulation time: 10 hr 43 min 39 sec)
Heartbeat CPU 1 instructions: 3180000000 cycles: 1519726670 heartbeat IPC: 2.31 cumulative IPC: 2.066 (Simulation time: 10 hr 46 min 11 sec)
Heartbeat CPU 3 instructions: 250000000 cycles: 1522933989 heartbeat IPC: 0.1217 cumulative IPC: 0.1254 (Simulation time: 10 hr 48 min 13 sec)
Heartbeat CPU 1 instructions: 3190000000 cycles: 1524221467 heartbeat IPC: 2.225 cumulative IPC: 2.067 (Simulation time: 10 hr 48 min 55 sec)
Heartbeat CPU 1 instructions: 3200000000 cycles: 1528536250 heartbeat IPC: 2.318 cumulative IPC: 2.068 (Simulation time: 10 hr 52 min 04 sec)
Heartbeat CPU 2 instructions: 820000002 cycles: 1529334732 heartbeat IPC: 0.5168 cumulative IPC: 0.507 (Simulation time: 10 hr 52 min 41 sec)
Heartbeat CPU 1 instructions: 3210000001 cycles: 1532859419 heartbeat IPC: 2.313 cumulative IPC: 2.068 (Simulation time: 10 hr 55 min 23 sec)
Heartbeat CPU 1 instructions: 3220000002 cycles: 1537324077 heartbeat IPC: 2.24 cumulative IPC: 2.069 (Simulation time: 10 hr 59 min 03 sec)
Heartbeat CPU 1 instructions: 3230000001 cycles: 1541659590 heartbeat IPC: 2.307 cumulative IPC: 2.069 (Simulation time: 11 hr 02 min 32 sec)
Heartbeat CPU 1 instructions: 3240000001 cycles: 1546021682 heartbeat IPC: 2.292 cumulative IPC: 2.07 (Simulation time: 11 hr 05 min 22 sec)
Heartbeat CPU 2 instructions: 830000003 cycles: 1549120889 heartbeat IPC: 0.5054 cumulative IPC: 0.507 (Simulation time: 11 hr 07 min 08 sec)
Heartbeat CPU 1 instructions: 3250000002 cycles: 1550447256 heartbeat IPC: 2.26 cumulative IPC: 2.071 (Simulation time: 11 hr 07 min 52 sec)
Heartbeat CPU 1 instructions: 3260000004 cycles: 1554749217 heartbeat IPC: 2.325 cumulative IPC: 2.071 (Simulation time: 11 hr 10 min 09 sec)
Heartbeat CPU 0 instructions: 130000002 cycles: 1557626244 heartbeat IPC: 0.05179 cumulative IPC: 0.05206 (Simulation time: 11 hr 11 min 40 sec)
Heartbeat CPU 1 instructions: 3270000004 cycles: 1559034108 heartbeat IPC: 2.334 cumulative IPC: 2.072 (Simulation time: 11 hr 12 min 24 sec)
Heartbeat CPU 1 instructions: 3280000000 cycles: 1563402333 heartbeat IPC: 2.289 cumulative IPC: 2.073 (Simulation time: 11 hr 14 min 45 sec)
Heartbeat CPU 1 instructions: 3290000002 cycles: 1567920892 heartbeat IPC: 2.213 cumulative IPC: 2.073 (Simulation time: 11 hr 17 min 15 sec)
Heartbeat CPU 2 instructions: 840000001 cycles: 1568247056 heartbeat IPC: 0.5228 cumulative IPC: 0.5072 (Simulation time: 11 hr 17 min 25 sec)
Heartbeat CPU 1 instructions: 3300000000 cycles: 1572324969 heartbeat IPC: 2.271 cumulative IPC: 2.074 (Simulation time: 11 hr 20 min 10 sec)
Heartbeat CPU 1 instructions: 3310000002 cycles: 1576904736 heartbeat IPC: 2.184 cumulative IPC: 2.074 (Simulation time: 11 hr 22 min 40 sec)
Heartbeat CPU 1 instructions: 3320000002 cycles: 1581475897 heartbeat IPC: 2.188 cumulative IPC: 2.074 (Simulation time: 11 hr 25 min 16 sec)
Heartbeat CPU 1 instructions: 3330000003 cycles: 1586161593 heartbeat IPC: 2.134 cumulative IPC: 2.075 (Simulation time: 11 hr 27 min 47 sec)
Heartbeat CPU 2 instructions: 850000000 cycles: 1586646788 heartbeat IPC: 0.5435 cumulative IPC: 0.5076 (Simulation time: 11 hr 28 min 02 sec)
Heartbeat CPU 1 instructions: 3340000004 cycles: 1590878364 heartbeat IPC: 2.12 cumulative IPC: 2.075 (Simulation time: 11 hr 30 min 14 sec)
Heartbeat CPU 1 instructions: 3350000000 cycles: 1595783356 heartbeat IPC: 2.039 cumulative IPC: 2.075 (Simulation time: 11 hr 33 min 13 sec)
Heartbeat CPU 3 instructions: 260000001 cycles: 1599339659 heartbeat IPC: 0.1309 cumulative IPC: 0.1257 (Simulation time: 11 hr 35 min 58 sec)
Heartbeat CPU 1 instructions: 3360000002 cycles: 1600481107 heartbeat IPC: 2.129 cumulative IPC: 2.075 (Simulation time: 11 hr 36 min 41 sec)
Heartbeat CPU 1 instructions: 3370000002 cycles: 1605427352 heartbeat IPC: 2.022 cumulative IPC: 2.075 (Simulation time: 11 hr 39 min 31 sec)
Heartbeat CPU 2 instructions: 860000002 cycles: 1606022123 heartbeat IPC: 0.5161 cumulative IPC: 0.5077 (Simulation time: 11 hr 39 min 53 sec)
Heartbeat CPU 1 instructions: 3380000001 cycles: 1610316013 heartbeat IPC: 2.046 cumulative IPC: 2.074 (Simulation time: 11 hr 42 min 31 sec)
Heartbeat CPU 1 instructions: 3390000004 cycles: 1615282976 heartbeat IPC: 2.013 cumulative IPC: 2.074 (Simulation time: 11 hr 45 min 25 sec)
Heartbeat CPU 1 instructions: 3400000002 cycles: 1619982476 heartbeat IPC: 2.128 cumulative IPC: 2.074 (Simulation time: 11 hr 48 min 11 sec)
Heartbeat CPU 1 instructions: 3410000001 cycles: 1624764777 heartbeat IPC: 2.091 cumulative IPC: 2.074 (Simulation time: 11 hr 51 min 00 sec)
Heartbeat CPU 2 instructions: 870000004 cycles: 1625695373 heartbeat IPC: 0.5083 cumulative IPC: 0.5077 (Simulation time: 11 hr 51 min 34 sec)
Heartbeat CPU 1 instructions: 3420000000 cycles: 1629557067 heartbeat IPC: 2.087 cumulative IPC: 2.075 (Simulation time: 11 hr 53 min 50 sec)
Heartbeat CPU 1 instructions: 3430000001 cycles: 1634266424 heartbeat IPC: 2.123 cumulative IPC: 2.075 (Simulation time: 11 hr 56 min 23 sec)
Heartbeat CPU 1 instructions: 3440000001 cycles: 1639164247 heartbeat IPC: 2.042 cumulative IPC: 2.075 (Simulation time: 11 hr 59 min 00 sec)
Heartbeat CPU 1 instructions: 3450000000 cycles: 1644118552 heartbeat IPC: 2.018 cumulative IPC: 2.074 (Simulation time: 12 hr 02 min 01 sec)
Heartbeat CPU 2 instructions: 880000000 cycles: 1644998673 heartbeat IPC: 0.518 cumulative IPC: 0.5078 (Simulation time: 12 hr 02 min 37 sec)
Heartbeat CPU 1 instructions: 3460000003 cycles: 1648775155 heartbeat IPC: 2.147 cumulative IPC: 2.075 (Simulation time: 12 hr 05 min 06 sec)
Heartbeat CPU 1 instructions: 3470000003 cycles: 1653517033 heartbeat IPC: 2.109 cumulative IPC: 2.075 (Simulation time: 12 hr 08 min 15 sec)
Heartbeat CPU 1 instructions: 3480000000 cycles: 1658339926 heartbeat IPC: 2.073 cumulative IPC: 2.075 (Simulation time: 12 hr 11 min 29 sec)
Heartbeat CPU 1 instructions: 3490000003 cycles: 1663111208 heartbeat IPC: 2.096 cumulative IPC: 2.075 (Simulation time: 12 hr 14 min 12 sec)
Heartbeat CPU 2 instructions: 890000002 cycles: 1663920706 heartbeat IPC: 0.5285 cumulative IPC: 0.5081 (Simulation time: 12 hr 14 min 38 sec)
Heartbeat CPU 1 instructions: 3500000002 cycles: 1667820494 heartbeat IPC: 2.123 cumulative IPC: 2.075 (Simulation time: 12 hr 16 min 42 sec)
Heartbeat CPU 1 instructions: 3510000001 cycles: 1672606774 heartbeat IPC: 2.089 cumulative IPC: 2.075 (Simulation time: 12 hr 19 min 18 sec)
Heartbeat CPU 1 instructions: 3520000002 cycles: 1677310344 heartbeat IPC: 2.126 cumulative IPC: 2.075 (Simulation time: 12 hr 22 min 10 sec)
Heartbeat CPU 3 instructions: 270000002 cycles: 1677463194 heartbeat IPC: 0.128 cumulative IPC: 0.1258 (Simulation time: 12 hr 22 min 16 sec)
Heartbeat CPU 1 instructions: 3530000002 cycles: 1682029805 heartbeat IPC: 2.119 cumulative IPC: 2.075 (Simulation time: 12 hr 25 min 12 sec)
Heartbeat CPU 2 instructions: 900000000 cycles: 1683873687 heartbeat IPC: 0.5012 cumulative IPC: 0.508 (Simulation time: 12 hr 26 min 14 sec)
Heartbeat CPU 1 instructions: 3540000000 cycles: 1686683024 heartbeat IPC: 2.149 cumulative IPC: 2.075 (Simulation time: 12 hr 27 min 55 sec)
Heartbeat CPU 1 instructions: 3550000002 cycles: 1691576847 heartbeat IPC: 2.043 cumulative IPC: 2.075 (Simulation time: 12 hr 30 min 39 sec)
Heartbeat CPU 1 instructions: 3560000004 cycles: 1696339043 heartbeat IPC: 2.1 cumulative IPC: 2.075 (Simulation time: 12 hr 33 min 15 sec)
Heartbeat CPU 1 instructions: 3570000004 cycles: 1700908260 heartbeat IPC: 2.189 cumulative IPC: 2.076 (Simulation time: 12 hr 35 min 41 sec)
Heartbeat CPU 2 instructions: 910000002 cycles: 1703169710 heartbeat IPC: 0.5182 cumulative IPC: 0.5081 (Simulation time: 12 hr 36 min 58 sec)
Heartbeat CPU 1 instructions: 3580000004 cycles: 1705526803 heartbeat IPC: 2.165 cumulative IPC: 2.076 (Simulation time: 12 hr 38 min 15 sec)
Heartbeat CPU 1 instructions: 3590000003 cycles: 1710335218 heartbeat IPC: 2.08 cumulative IPC: 2.076 (Simulation time: 12 hr 40 min 57 sec)
Heartbeat CPU 1 instructions: 3600000002 cycles: 1715093820 heartbeat IPC: 2.101 cumulative IPC: 2.076 (Simulation time: 12 hr 43 min 31 sec)
Heartbeat CPU 1 instructions: 3610000000 cycles: 1720025570 heartbeat IPC: 2.028 cumulative IPC: 2.076 (Simulation time: 12 hr 46 min 07 sec)
Heartbeat CPU 2 instructions: 920000004 cycles: 1722731622 heartbeat IPC: 0.5112 cumulative IPC: 0.5081 (Simulation time: 12 hr 47 min 31 sec)
Heartbeat CPU 1 instructions: 3620000003 cycles: 1724671160 heartbeat IPC: 2.153 cumulative IPC: 2.076 (Simulation time: 12 hr 48 min 33 sec)
Heartbeat CPU 1 instructions: 3630000001 cycles: 1729434301 heartbeat IPC: 2.099 cumulative IPC: 2.076 (Simulation time: 12 hr 51 min 06 sec)
Heartbeat CPU 1 instructions: 3640000000 cycles: 1734078185 heartbeat IPC: 2.153 cumulative IPC: 2.076 (Simulation time: 12 hr 53 min 38 sec)
Heartbeat CPU 1 instructions: 3650000000 cycles: 1738818141 heartbeat IPC: 2.11 cumulative IPC: 2.076 (Simulation time: 12 hr 56 min 20 sec)
Heartbeat CPU 2 instructions: 930000001 cycles: 1742207455 heartbeat IPC: 0.5135 cumulative IPC: 0.5082 (Simulation time: 12 hr 58 min 16 sec)
Heartbeat CPU 1 instructions: 3660000003 cycles: 1743572779 heartbeat IPC: 2.103 cumulative IPC: 2.077 (Simulation time: 12 hr 59 min 01 sec)
Heartbeat CPU 0 instructions: 140000001 cycles: 1745530676 heartbeat IPC: 0.05322 cumulative IPC: 0.05218 (Simulation time: 13 hr 00 min 06 sec)
Heartbeat CPU 1 instructions: 3670000003 cycles: 1748412547 heartbeat IPC: 2.066 cumulative IPC: 2.076 (Simulation time: 13 hr 01 min 38 sec)
Heartbeat CPU 3 instructions: 280000002 cycles: 1753259320 heartbeat IPC: 0.1319 cumulative IPC: 0.1261 (Simulation time: 13 hr 04 min 26 sec)
Heartbeat CPU 1 instructions: 3680000000 cycles: 1753263001 heartbeat IPC: 2.062 cumulative IPC: 2.076 (Simulation time: 13 hr 04 min 26 sec)
Heartbeat CPU 1 instructions: 3690000002 cycles: 1758046755 heartbeat IPC: 2.09 cumulative IPC: 2.076 (Simulation time: 13 hr 07 min 21 sec)
Heartbeat CPU 2 instructions: 940000003 cycles: 1761531347 heartbeat IPC: 0.5175 cumulative IPC: 0.5083 (Simulation time: 13 hr 09 min 19 sec)
Heartbeat CPU 1 instructions: 3700000001 cycles: 1762750637 heartbeat IPC: 2.126 cumulative IPC: 2.077 (Simulation time: 13 hr 09 min 57 sec)
Heartbeat CPU 1 instructions: 3710000002 cycles: 1767565954 heartbeat IPC: 2.077 cumulative IPC: 2.077 (Simulation time: 13 hr 12 min 31 sec)
Heartbeat CPU 1 instructions: 3720000001 cycles: 1772168247 heartbeat IPC: 2.173 cumulative IPC: 2.077 (Simulation time: 13 hr 14 min 53 sec)
Heartbeat CPU 1 instructions: 3730000000 cycles: 1776791065 heartbeat IPC: 2.163 cumulative IPC: 2.077 (Simulation time: 13 hr 17 min 24 sec)
Heartbeat CPU 2 instructions: 950000001 cycles: 1781177708 heartbeat IPC: 0.509 cumulative IPC: 0.5083 (Simulation time: 13 hr 19 min 40 sec)
Heartbeat CPU 1 instructions: 3740000001 cycles: 1781397717 heartbeat IPC: 2.171 cumulative IPC: 2.077 (Simulation time: 13 hr 19 min 47 sec)
Heartbeat CPU 1 instructions: 3750000000 cycles: 1785674337 heartbeat IPC: 2.338 cumulative IPC: 2.078 (Simulation time: 13 hr 22 min 24 sec)
Heartbeat CPU 1 instructions: 3760000002 cycles: 1790056924 heartbeat IPC: 2.282 cumulative IPC: 2.078 (Simulation time: 13 hr 25 min 02 sec)
Heartbeat CPU 1 instructions: 3770000000 cycles: 1794613426 heartbeat IPC: 2.195 cumulative IPC: 2.079 (Simulation time: 13 hr 27 min 35 sec)
Heartbeat CPU 1 instructions: 3780000000 cycles: 1798915908 heartbeat IPC: 2.324 cumulative IPC: 2.079 (Simulation time: 13 hr 30 min 06 sec)
Heartbeat CPU 2 instructions: 960000002 cycles: 1800510779 heartbeat IPC: 0.5172 cumulative IPC: 0.5084 (Simulation time: 13 hr 30 min 57 sec)
Heartbeat CPU 1 instructions: 3790000001 cycles: 1803222317 heartbeat IPC: 2.322 cumulative IPC: 2.08 (Simulation time: 13 hr 32 min 24 sec)
Heartbeat CPU 1 instructions: 3800000002 cycles: 1807533358 heartbeat IPC: 2.32 cumulative IPC: 2.081 (Simulation time: 13 hr 34 min 46 sec)
Heartbeat CPU 1 instructions: 3810000001 cycles: 1811988878 heartbeat IPC: 2.244 cumulative IPC: 2.081 (Simulation time: 13 hr 37 min 09 sec)
Heartbeat CPU 1 instructions: 3820000001 cycles: 1816292135 heartbeat IPC: 2.324 cumulative IPC: 2.082 (Simulation time: 13 hr 39 min 28 sec)
Heartbeat CPU 2 instructions: 970000004 cycles: 1819700245 heartbeat IPC: 0.5211 cumulative IPC: 0.5085 (Simulation time: 13 hr 41 min 18 sec)
Heartbeat CPU 1 instructions: 3830000000 cycles: 1820807020 heartbeat IPC: 2.215 cumulative IPC: 2.082 (Simulation time: 13 hr 41 min 54 sec)
Heartbeat CPU 1 instructions: 3840000000 cycles: 1825089761 heartbeat IPC: 2.335 cumulative IPC: 2.082 (Simulation time: 13 hr 44 min 28 sec)
Heartbeat CPU 3 instructions: 290000001 cycles: 1828132967 heartbeat IPC: 0.1336 cumulative IPC: 0.1264 (Simulation time: 13 hr 46 min 09 sec)
Heartbeat CPU 1 instructions: 3850000000 cycles: 1829421825 heartbeat IPC: 2.308 cumulative IPC: 2.083 (Simulation time: 13 hr 46 min 52 sec)
Heartbeat CPU 1 instructions: 3860000000 cycles: 1833716833 heartbeat IPC: 2.328 cumulative IPC: 2.084 (Simulation time: 13 hr 49 min 13 sec)
Heartbeat CPU 1 instructions: 3870000001 cycles: 1838232764 heartbeat IPC: 2.214 cumulative IPC: 2.084 (Simulation time: 13 hr 51 min 46 sec)
Heartbeat CPU 2 instructions: 980000003 cycles: 1839614008 heartbeat IPC: 0.5022 cumulative IPC: 0.5085 (Simulation time: 13 hr 52 min 29 sec)
Heartbeat CPU 1 instructions: 3880000002 cycles: 1842575568 heartbeat IPC: 2.303 cumulative IPC: 2.084 (Simulation time: 13 hr 54 min 03 sec)
Heartbeat CPU 1 instructions: 3890000002 cycles: 1847289913 heartbeat IPC: 2.121 cumulative IPC: 2.085 (Simulation time: 13 hr 56 min 36 sec)
Heartbeat CPU 1 instructions: 3900000001 cycles: 1851619713 heartbeat IPC: 2.31 cumulative IPC: 2.085 (Simulation time: 13 hr 58 min 52 sec)
Heartbeat CPU 2 instructions: 990000000 cycles: 1861582506 heartbeat IPC: 0.4552 cumulative IPC: 0.5078 (Simulation time: 14 hr 03 min 38 sec)
Heartbeat CPU 1 instructions: 3910000001 cycles: 1865219810 heartbeat IPC: 0.7353 cumulative IPC: 2.075 (Simulation time: 14 hr 05 min 24 sec)
Heartbeat CPU 1 instructions: 3920000003 cycles: 1869699771 heartbeat IPC: 2.232 cumulative IPC: 2.075 (Simulation time: 14 hr 07 min 42 sec)
Heartbeat CPU 1 instructions: 3930000001 cycles: 1874019094 heartbeat IPC: 2.315 cumulative IPC: 2.076 (Simulation time: 14 hr 09 min 52 sec)
Heartbeat CPU 1 instructions: 3940000002 cycles: 1878454429 heartbeat IPC: 2.255 cumulative IPC: 2.076 (Simulation time: 14 hr 12 min 06 sec)
Heartbeat CPU 2 instructions: 1000000002 cycles: 1881947688 heartbeat IPC: 0.491 cumulative IPC: 0.5077 (Simulation time: 14 hr 13 min 52 sec)
Heartbeat CPU 1 instructions: 3950000003 cycles: 1882787868 heartbeat IPC: 2.308 cumulative IPC: 2.077 (Simulation time: 14 hr 14 min 17 sec)
Heartbeat CPU 1 instructions: 3960000004 cycles: 1887104501 heartbeat IPC: 2.317 cumulative IPC: 2.078 (Simulation time: 14 hr 16 min 29 sec)
Heartbeat CPU 1 instructions: 3970000003 cycles: 1891663059 heartbeat IPC: 2.194 cumulative IPC: 2.078 (Simulation time: 14 hr 18 min 46 sec)
Heartbeat CPU 1 instructions: 3980000004 cycles: 1895982165 heartbeat IPC: 2.315 cumulative IPC: 2.078 (Simulation time: 14 hr 20 min 56 sec)
Heartbeat CPU 1 instructions: 3990000000 cycles: 1900317844 heartbeat IPC: 2.306 cumulative IPC: 2.079 (Simulation time: 14 hr 23 min 07 sec)
Heartbeat CPU 2 instructions: 1010000001 cycles: 1900803923 heartbeat IPC: 0.5303 cumulative IPC: 0.5079 (Simulation time: 14 hr 23 min 21 sec)
*** Reached end of trace: (1, "/home/das/dpc3_traces/603.bwaves_s-3699B.champsimtrace.xz")
Heartbeat CPU 1 instructions: 4000000000 cycles: 1904629776 heartbeat IPC: 2.319 cumulative IPC: 2.079 (Simulation time: 14 hr 25 min 18 sec)
Heartbeat CPU 1 instructions: 4010000003 cycles: 1908968113 heartbeat IPC: 2.305 cumulative IPC: 2.08 (Simulation time: 14 hr 27 min 29 sec)
Heartbeat CPU 3 instructions: 300000000 cycles: 1911811844 heartbeat IPC: 0.1195 cumulative IPC: 0.1261 (Simulation time: 14 hr 28 min 55 sec)
[...]
cpu2_L1I WRITE        ACCESS:          0 HIT:          0 MISS:          0
cpu2_L1I TRANSLATION  ACCESS:          0 HIT:          0 MISS:          0
cpu2_L1I PREFETCH REQUESTED:          0 ISSUED:          0 USEFUL:          0 USELESS:          0
cpu2_L1I AVERAGE MISS LATENCY: -nan cycles
cpu2_L1I TOTAL        ACCESS:          0 HIT:          0 MISS:          0
cpu2_L1I LOAD         ACCESS:          0 HIT:          0 MISS:          0
cpu2_L1I RFO          ACCESS:          0 HIT:          0 MISS:          0
cpu2_L1I PREFETCH     ACCESS:          0 HIT:          0 MISS:          0
cpu2_L1I WRITE        ACCESS:          0 HIT:          0 MISS:          0
cpu2_L1I TRANSLATION  ACCESS:          0 HIT:          0 MISS:          0
cpu2_L1I PREFETCH REQUESTED:          0 ISSUED:          0 USEFUL:          0 USELESS:          0
cpu2_L1I AVERAGE MISS LATENCY: -nan cycles
cpu2_L2C TOTAL        ACCESS:          0 HIT:          0 MISS:          0
cpu2_L2C LOAD         ACCESS:          0 HIT:          0 MISS:          0
cpu2_L2C RFO          ACCESS:          0 HIT:          0 MISS:          0
cpu2_L2C PREFETCH     ACCESS:          0 HIT:          0 MISS:          0
cpu2_L2C WRITE        ACCESS:          0 HIT:          0 MISS:          0
cpu2_L2C TRANSLATION  ACCESS:          0 HIT:          0 MISS:          0
cpu2_L2C PREFETCH REQUESTED:  161327212 ISSUED:  160377809 USEFUL:     677172 USELESS:      49721
cpu2_L2C AVERAGE MISS LATENCY: 351.1 cycles
cpu2_L2C TOTAL        ACCESS:          0 HIT:          0 MISS:          0
cpu2_L2C LOAD         ACCESS:          0 HIT:          0 MISS:          0
cpu2_L2C RFO          ACCESS:          0 HIT:          0 MISS:          0
cpu2_L2C PREFETCH     ACCESS:          0 HIT:          0 MISS:          0
cpu2_L2C WRITE        ACCESS:          0 HIT:          0 MISS:          0
cpu2_L2C TRANSLATION  ACCESS:          0 HIT:          0 MISS:          0
cpu2_L2C PREFETCH REQUESTED:  161327212 ISSUED:  160377809 USEFUL:     677172 USELESS:      49721
cpu2_L2C AVERAGE MISS LATENCY: 351.1 cycles
cpu2_L2C TOTAL        ACCESS:   34599871 HIT:   27393714 MISS:    7206157
cpu2_L2C LOAD         ACCESS:   16323163 HIT:   14935548 MISS:    1387615
cpu2_L2C RFO          ACCESS:     673942 HIT:     668415 MISS:       5527
cpu2_L2C PREFETCH     ACCESS:   16283243 HIT:   10493017 MISS:    5790226
cpu2_L2C WRITE        ACCESS:    1291490 HIT:    1291486 MISS:          4
cpu2_L2C TRANSLATION  ACCESS:      28033 HIT:       5248 MISS:      22785
cpu2_L2C PREFETCH REQUESTED:  161327212 ISSUED:  160377809 USEFUL:     677172 USELESS:      49721
cpu2_L2C AVERAGE MISS LATENCY: 351.1 cycles
cpu2_L2C TOTAL        ACCESS:          0 HIT:          0 MISS:          0
cpu2_L2C LOAD         ACCESS:          0 HIT:          0 MISS:          0
cpu2_L2C RFO          ACCESS:          0 HIT:          0 MISS:          0
cpu2_L2C PREFETCH     ACCESS:          0 HIT:          0 MISS:          0
cpu2_L2C WRITE        ACCESS:          0 HIT:          0 MISS:          0
cpu2_L2C TRANSLATION  ACCESS:          0 HIT:          0 MISS:          0
cpu2_L2C PREFETCH REQUESTED:  161327212 ISSUED:  160377809 USEFUL:     677172 USELESS:      49721
cpu2_L2C AVERAGE MISS LATENCY: 351.1 cycles
cpu2_STLB TOTAL        ACCESS:          0 HIT:          0 MISS:          0
cpu2_STLB LOAD         ACCESS:          0 HIT:          0 MISS:          0
cpu2_STLB RFO          ACCESS:          0 HIT:          0 MISS:          0
cpu2_STLB PREFETCH     ACCESS:          0 HIT:          0 MISS:          0
cpu2_STLB WRITE        ACCESS:          0 HIT:          0 MISS:          0
cpu2_STLB TRANSLATION  ACCESS:          0 HIT:          0 MISS:          0
cpu2_STLB PREFETCH REQUESTED:          0 ISSUED:          0 USEFUL:          0 USELESS:          0
cpu2_STLB AVERAGE MISS LATENCY: 3081 cycles
cpu2_STLB TOTAL        ACCESS:          0 HIT:          0 MISS:          0
cpu2_STLB LOAD         ACCESS:          0 HIT:          0 MISS:          0
cpu2_STLB RFO          ACCESS:          0 HIT:          0 MISS:          0
cpu2_STLB PREFETCH     ACCESS:          0 HIT:          0 MISS:          0
cpu2_STLB WRITE        ACCESS:          0 HIT:          0 MISS:          0
cpu2_STLB TRANSLATION  ACCESS:          0 HIT:          0 MISS:          0
cpu2_STLB PREFETCH REQUESTED:          0 ISSUED:          0 USEFUL:          0 USELESS:          0
cpu2_STLB AVERAGE MISS LATENCY: 3081 cycles
cpu2_STLB TOTAL        ACCESS:   11318291 HIT:   11300141 MISS:      18150
cpu2_STLB LOAD         ACCESS:   11318291 HIT:   11300141 MISS:      18150
cpu2_STLB RFO          ACCESS:          0 HIT:          0 MISS:          0
cpu2_STLB PREFETCH     ACCESS:          0 HIT:          0 MISS:          0
cpu2_STLB WRITE        ACCESS:          0 HIT:          0 MISS:          0
cpu2_STLB TRANSLATION  ACCESS:          0 HIT:          0 MISS:          0
cpu2_STLB PREFETCH REQUESTED:          0 ISSUED:          0 USEFUL:          0 USELESS:          0
cpu2_STLB AVERAGE MISS LATENCY: 3081 cycles
cpu2_STLB TOTAL        ACCESS:          0 HIT:          0 MISS:          0
cpu2_STLB LOAD         ACCESS:          0 HIT:          0 MISS:          0
cpu2_STLB RFO          ACCESS:          0 HIT:          0 MISS:          0
cpu2_STLB PREFETCH     ACCESS:          0 HIT:          0 MISS:          0
cpu2_STLB WRITE        ACCESS:          0 HIT:          0 MISS:          0
cpu2_STLB TRANSLATION  ACCESS:          0 HIT:          0 MISS:          0
cpu2_STLB PREFETCH REQUESTED:          0 ISSUED:          0 USEFUL:          0 USELESS:          0
cpu2_STLB AVERAGE MISS LATENCY: 3081 cycles
cpu3_DTLB TOTAL        ACCESS:          0 HIT:          0 MISS:          0
cpu3_DTLB LOAD         ACCESS:          0 HIT:          0 MISS:          0
cpu3_DTLB RFO          ACCESS:          0 HIT:          0 MISS:          0
cpu3_DTLB PREFETCH     ACCESS:          0 HIT:          0 MISS:          0
cpu3_DTLB WRITE        ACCESS:          0 HIT:          0 MISS:          0
cpu3_DTLB TRANSLATION  ACCESS:          0 HIT:          0 MISS:          0
cpu3_DTLB PREFETCH REQUESTED:          0 ISSUED:          0 USEFUL:          0 USELESS:          0
cpu3_DTLB AVERAGE MISS LATENCY: 76.18 cycles
cpu3_DTLB TOTAL        ACCESS:          0 HIT:          0 MISS:          0
cpu3_DTLB LOAD         ACCESS:          0 HIT:          0 MISS:          0
cpu3_DTLB RFO          ACCESS:          0 HIT:          0 MISS:          0
cpu3_DTLB PREFETCH     ACCESS:          0 HIT:          0 MISS:          0
cpu3_DTLB WRITE        ACCESS:          0 HIT:          0 MISS:          0
cpu3_DTLB TRANSLATION  ACCESS:          0 HIT:          0 MISS:          0
cpu3_DTLB PREFETCH REQUESTED:          0 ISSUED:          0 USEFUL:          0 USELESS:          0
cpu3_DTLB AVERAGE MISS LATENCY: 76.18 cycles
cpu3_DTLB TOTAL        ACCESS:          0 HIT:          0 MISS:          0
cpu3_DTLB LOAD         ACCESS:          0 HIT:          0 MISS:          0
cpu3_DTLB RFO          ACCESS:          0 HIT:          0 MISS:          0
cpu3_DTLB PREFETCH     ACCESS:          0 HIT:          0 MISS:          0
cpu3_DTLB WRITE        ACCESS:          0 HIT:          0 MISS:          0
cpu3_DTLB TRANSLATION  ACCESS:          0 HIT:          0 MISS:          0
cpu3_DTLB PREFETCH REQUESTED:          0 ISSUED:          0 USEFUL:          0 USELESS:          0
cpu3_DTLB AVERAGE MISS LATENCY: 76.18 cycles
cpu3_DTLB TOTAL        ACCESS:   24768187 HIT:   24455497 MISS:     312690
cpu3_DTLB LOAD         ACCESS:   24768187 HIT:   24455497 MISS:     312690
cpu3_DTLB RFO          ACCESS:          0 HIT:          0 MISS:          0
cpu3_DTLB PREFETCH     ACCESS:          0 HIT:          0 MISS:          0
cpu3_DTLB WRITE        ACCESS:          0 HIT:          0 MISS:          0
cpu3_DTLB TRANSLATION  ACCESS:          0 HIT:          0 MISS:          0
cpu3_DTLB PREFETCH REQUESTED:          0 ISSUED:          0 USEFUL:          0 USELESS:          0
cpu3_DTLB AVERAGE MISS LATENCY: 76.18 cycles
cpu3_ITLB TOTAL        ACCESS:          0 HIT:          0 MISS:          0
cpu3_ITLB LOAD         ACCESS:          0 HIT:          0 MISS:          0
cpu3_ITLB RFO          ACCESS:          0 HIT:          0 MISS:          0
cpu3_ITLB PREFETCH     ACCESS:          0 HIT:          0 MISS:          0
cpu3_ITLB WRITE        ACCESS:          0 HIT:          0 MISS:          0
cpu3_ITLB TRANSLATION  ACCESS:          0 HIT:          0 MISS:          0
cpu3_ITLB PREFETCH REQUESTED:          0 ISSUED:          0 USEFUL:          0 USELESS:          0
cpu3_ITLB AVERAGE MISS LATENCY: -nan cycles
cpu3_ITLB TOTAL        ACCESS:          0 HIT:          0 MISS:          0
cpu3_ITLB LOAD         ACCESS:          0 HIT:          0 MISS:          0
cpu3_ITLB RFO          ACCESS:          0 HIT:          0 MISS:          0
cpu3_ITLB PREFETCH     ACCESS:          0 HIT:          0 MISS:          0
cpu3_ITLB WRITE        ACCESS:          0 HIT:          0 MISS:          0
cpu3_ITLB TRANSLATION  ACCESS:          0 HIT:          0 MISS:          0
cpu3_ITLB PREFETCH REQUESTED:          0 ISSUED:          0 USEFUL:          0 USELESS:          0
cpu3_ITLB AVERAGE MISS LATENCY: -nan cycles
cpu3_ITLB TOTAL        ACCESS:          0 HIT:          0 MISS:          0
cpu3_ITLB LOAD         ACCESS:          0 HIT:          0 MISS:          0
cpu3_ITLB RFO          ACCESS:          0 HIT:          0 MISS:          0
cpu3_ITLB PREFETCH     ACCESS:          0 HIT:          0 MISS:          0
cpu3_ITLB WRITE        ACCESS:          0 HIT:          0 MISS:          0
cpu3_ITLB TRANSLATION  ACCESS:          0 HIT:          0 MISS:          0
cpu3_ITLB PREFETCH REQUESTED:          0 ISSUED:          0 USEFUL:          0 USELESS:          0
cpu3_ITLB AVERAGE MISS LATENCY: -nan cycles
cpu3_ITLB TOTAL        ACCESS:          0 HIT:          0 MISS:          0
cpu3_ITLB LOAD         ACCESS:          0 HIT:          0 MISS:          0
cpu3_ITLB RFO          ACCESS:          0 HIT:          0 MISS:          0
cpu3_ITLB PREFETCH     ACCESS:          0 HIT:          0 MISS:          0
cpu3_ITLB WRITE        ACCESS:          0 HIT:          0 MISS:          0
cpu3_ITLB TRANSLATION  ACCESS:          0 HIT:          0 MISS:          0
cpu3_ITLB PREFETCH REQUESTED:          0 ISSUED:          0 USEFUL:          0 USELESS:          0
cpu3_ITLB AVERAGE MISS LATENCY: -nan cycles
cpu3_L1D TOTAL        ACCESS:          0 HIT:          0 MISS:          0
cpu3_L1D LOAD         ACCESS:          0 HIT:          0 MISS:          0
cpu3_L1D RFO          ACCESS:          0 HIT:          0 MISS:          0
cpu3_L1D PREFETCH     ACCESS:          0 HIT:          0 MISS:          0
cpu3_L1D WRITE        ACCESS:          0 HIT:          0 MISS:          0
cpu3_L1D TRANSLATION  ACCESS:          0 HIT:          0 MISS:          0
cpu3_L1D PREFETCH REQUESTED:          0 ISSUED:          0 USEFUL:          0 USELESS:          0
cpu3_L1D AVERAGE MISS LATENCY: 1495 cycles
cpu3_L1D TOTAL        ACCESS:          0 HIT:          0 MISS:          0
cpu3_L1D LOAD         ACCESS:          0 HIT:          0 MISS:          0
cpu3_L1D RFO          ACCESS:          0 HIT:          0 MISS:          0
cpu3_L1D PREFETCH     ACCESS:          0 HIT:          0 MISS:          0
cpu3_L1D WRITE        ACCESS:          0 HIT:          0 MISS:          0
cpu3_L1D TRANSLATION  ACCESS:          0 HIT:          0 MISS:          0
cpu3_L1D PREFETCH REQUESTED:          0 ISSUED:          0 USEFUL:          0 USELESS:          0
cpu3_L1D AVERAGE MISS LATENCY: 1495 cycles
cpu3_L1D TOTAL        ACCESS:          0 HIT:          0 MISS:          0
cpu3_L1D LOAD         ACCESS:          0 HIT:          0 MISS:          0
cpu3_L1D RFO          ACCESS:          0 HIT:          0 MISS:          0
cpu3_L1D PREFETCH     ACCESS:          0 HIT:          0 MISS:          0
cpu3_L1D WRITE        ACCESS:          0 HIT:          0 MISS:          0
cpu3_L1D TRANSLATION  ACCESS:          0 HIT:          0 MISS:          0
cpu3_L1D PREFETCH REQUESTED:          0 ISSUED:          0 USEFUL:          0 USELESS:          0
cpu3_L1D AVERAGE MISS LATENCY: 1495 cycles
cpu3_L1D TOTAL        ACCESS:   33748356 HIT:   19368002 MISS:   14380354
cpu3_L1D LOAD         ACCESS:    6005618 HIT:    2908288 MISS:    3097330
cpu3_L1D RFO          ACCESS:          0 HIT:          0 MISS:          0
cpu3_L1D PREFETCH     ACCESS:          0 HIT:          0 MISS:          0
cpu3_L1D WRITE        ACCESS:   27630282 HIT:   16459533 MISS:   11170749
cpu3_L1D TRANSLATION  ACCESS:     112456 HIT:        181 MISS:     112275
cpu3_L1D PREFETCH REQUESTED:          0 ISSUED:          0 USEFUL:          0 USELESS:          0
cpu3_L1D AVERAGE MISS LATENCY: 1495 cycles
cpu3_L1I TOTAL        ACCESS:          0 HIT:          0 MISS:          0
cpu3_L1I LOAD         ACCESS:          0 HIT:          0 MISS:          0
cpu3_L1I RFO          ACCESS:          0 HIT:          0 MISS:          0
cpu3_L1I PREFETCH     ACCESS:          0 HIT:          0 MISS:          0
cpu3_L1I WRITE        ACCESS:          0 HIT:          0 MISS:          0
cpu3_L1I TRANSLATION  ACCESS:          0 HIT:          0 MISS:          0
cpu3_L1I PREFETCH REQUESTED:          0 ISSUED:          0 USEFUL:          0 USELESS:          0
cpu3_L1I AVERAGE MISS LATENCY: -nan cycles
cpu3_L1I TOTAL        ACCESS:          0 HIT:          0 MISS:          0
cpu3_L1I LOAD         ACCESS:          0 HIT:          0 MISS:          0
cpu3_L1I RFO          ACCESS:          0 HIT:          0 MISS:          0
cpu3_L1I PREFETCH     ACCESS:          0 HIT:          0 MISS:          0
cpu3_L1I WRITE        ACCESS:          0 HIT:          0 MISS:          0
cpu3_L1I TRANSLATION  ACCESS:          0 HIT:          0 MISS:          0
cpu3_L1I PREFETCH REQUESTED:          0 ISSUED:          0 USEFUL:          0 USELESS:          0
cpu3_L1I AVERAGE MISS LATENCY: -nan cycles
cpu3_L1I TOTAL        ACCESS:          0 HIT:          0 MISS:          0
cpu3_L1I LOAD         ACCESS:          0 HIT:          0 MISS:          0
cpu3_L1I RFO          ACCESS:          0 HIT:          0 MISS:          0
cpu3_L1I PREFETCH     ACCESS:          0 HIT:          0 MISS:          0
cpu3_L1I WRITE        ACCESS:          0 HIT:          0 MISS:          0
cpu3_L1I TRANSLATION  ACCESS:          0 HIT:          0 MISS:          0
cpu3_L1I PREFETCH REQUESTED:          0 ISSUED:          0 USEFUL:          0 USELESS:          0
cpu3_L1I AVERAGE MISS LATENCY: -nan cycles
cpu3_L1I TOTAL        ACCESS:          0 HIT:          0 MISS:          0
cpu3_L1I LOAD         ACCESS:          0 HIT:          0 MISS:          0
cpu3_L1I RFO          ACCESS:          0 HIT:          0 MISS:          0
cpu3_L1I PREFETCH     ACCESS:          0 HIT:          0 MISS:          0
cpu3_L1I WRITE        ACCESS:          0 HIT:          0 MISS:          0
cpu3_L1I TRANSLATION  ACCESS:          0 HIT:          0 MISS:          0
cpu3_L1I PREFETCH REQUESTED:          0 ISSUED:          0 USEFUL:          0 USELESS:          0
cpu3_L1I AVERAGE MISS LATENCY: -nan cycles
cpu3_L2C TOTAL        ACCESS:          0 HIT:          0 MISS:          0
cpu3_L2C LOAD         ACCESS:          0 HIT:          0 MISS:          0
cpu3_L2C RFO          ACCESS:          0 HIT:          0 MISS:          0
cpu3_L2C PREFETCH     ACCESS:          0 HIT:          0 MISS:          0
cpu3_L2C WRITE        ACCESS:          0 HIT:          0 MISS:          0
cpu3_L2C TRANSLATION  ACCESS:          0 HIT:          0 MISS:          0
cpu3_L2C PREFETCH REQUESTED:   12852011 ISSUED:   12844472 USEFUL:     449048 USELESS:         17
cpu3_L2C AVERAGE MISS LATENCY: 1919 cycles
cpu3_L2C TOTAL        ACCESS:          0 HIT:          0 MISS:          0
cpu3_L2C LOAD         ACCESS:          0 HIT:          0 MISS:          0
cpu3_L2C RFO          ACCESS:          0 HIT:          0 MISS:          0
cpu3_L2C PREFETCH     ACCESS:          0 HIT:          0 MISS:          0
cpu3_L2C WRITE        ACCESS:          0 HIT:          0 MISS:          0
cpu3_L2C TRANSLATION  ACCESS:          0 HIT:          0 MISS:          0
cpu3_L2C PREFETCH REQUESTED:   12852011 ISSUED:   12844472 USEFUL:     449048 USELESS:         17
cpu3_L2C AVERAGE MISS LATENCY: 1919 cycles
cpu3_L2C TOTAL        ACCESS:          0 HIT:          0 MISS:          0
cpu3_L2C LOAD         ACCESS:          0 HIT:          0 MISS:          0
cpu3_L2C RFO          ACCESS:          0 HIT:          0 MISS:          0
cpu3_L2C PREFETCH     ACCESS:          0 HIT:          0 MISS:          0
cpu3_L2C WRITE        ACCESS:          0 HIT:          0 MISS:          0
cpu3_L2C TRANSLATION  ACCESS:          0 HIT:          0 MISS:          0
cpu3_L2C PREFETCH REQUESTED:   12852011 ISSUED:   12844472 USEFUL:     449048 USELESS:         17
cpu3_L2C AVERAGE MISS LATENCY: 1919 cycles
cpu3_L2C TOTAL        ACCESS:   27558990 HIT:   15198455 MISS:   12360535
cpu3_L2C LOAD         ACCESS:    1797183 HIT:      42478 MISS:    1754705
cpu3_L2C RFO          ACCESS:   10150754 HIT:    4685700 MISS:    5465054
cpu3_L2C PREFETCH     ACCESS:    5347796 HIT:     207837 MISS:    5139959
cpu3_L2C WRITE        ACCESS:   10150982 HIT:   10150982 MISS:          0
cpu3_L2C TRANSLATION  ACCESS:     112275 HIT:     111458 MISS:        817
cpu3_L2C PREFETCH REQUESTED:   12852011 ISSUED:   12844472 USEFUL:     449048 USELESS:         17
cpu3_L2C AVERAGE MISS LATENCY: 1919 cycles
cpu3_STLB TOTAL        ACCESS:          0 HIT:          0 MISS:          0
cpu3_STLB LOAD         ACCESS:          0 HIT:          0 MISS:          0
cpu3_STLB RFO          ACCESS:          0 HIT:          0 MISS:          0
cpu3_STLB PREFETCH     ACCESS:          0 HIT:          0 MISS:          0
cpu3_STLB WRITE        ACCESS:          0 HIT:          0 MISS:          0
cpu3_STLB TRANSLATION  ACCESS:          0 HIT:          0 MISS:          0
cpu3_STLB PREFETCH REQUESTED:          0 ISSUED:          0 USEFUL:          0 USELESS:          0
cpu3_STLB AVERAGE MISS LATENCY: 246.7 cycles
cpu3_STLB TOTAL        ACCESS:          0 HIT:          0 MISS:          0
cpu3_STLB LOAD         ACCESS:          0 HIT:          0 MISS:          0
cpu3_STLB RFO          ACCESS:          0 HIT:          0 MISS:          0
cpu3_STLB PREFETCH     ACCESS:          0 HIT:          0 MISS:          0
cpu3_STLB WRITE        ACCESS:          0 HIT:          0 MISS:          0
cpu3_STLB TRANSLATION  ACCESS:          0 HIT:          0 MISS:          0
cpu3_STLB PREFETCH REQUESTED:          0 ISSUED:          0 USEFUL:          0 USELESS:          0
cpu3_STLB AVERAGE MISS LATENCY: 246.7 cycles
cpu3_STLB TOTAL        ACCESS:          0 HIT:          0 MISS:          0
cpu3_STLB LOAD         ACCESS:          0 HIT:          0 MISS:          0
cpu3_STLB RFO          ACCESS:          0 HIT:          0 MISS:          0
cpu3_STLB PREFETCH     ACCESS:          0 HIT:          0 MISS:          0
cpu3_STLB WRITE        ACCESS:          0 HIT:          0 MISS:          0
cpu3_STLB TRANSLATION  ACCESS:          0 HIT:          0 MISS:          0
cpu3_STLB PREFETCH REQUESTED:          0 ISSUED:          0 USEFUL:          0 USELESS:          0
cpu3_STLB AVERAGE MISS LATENCY: 246.7 cycles
cpu3_STLB TOTAL        ACCESS:     207048 HIT:      94702 MISS:     112346
cpu3_STLB LOAD         ACCESS:     207048 HIT:      94702 MISS:     112346
cpu3_STLB RFO          ACCESS:          0 HIT:          0 MISS:          0
cpu3_STLB PREFETCH     ACCESS:          0 HIT:          0 MISS:          0
cpu3_STLB WRITE        ACCESS:          0 HIT:          0 MISS:          0
cpu3_STLB TRANSLATION  ACCESS:          0 HIT:          0 MISS:          0
cpu3_STLB PREFETCH REQUESTED:          0 ISSUED:          0 USEFUL:          0 USELESS:          0
cpu3_STLB AVERAGE MISS LATENCY: 246.7 cycles

DRAM Statistics

Channel 0 RQ ROW_BUFFER_HIT:    3286241
  ROW_BUFFER_MISS:   30099844
 AVG DBUS CONGESTED CYCLE: 3.997
WQ ROW_BUFFER_HIT: Channel 0 
  ROW_BUFFER_MISS:     219625
  FULL:   16020557
