WARNING: physical memory size is smaller than virtual memory size.
WARNING: option --warmup_instructions is deprecated. Use --warmup-instructions instead.
WARNING: option --simulation_instructions is deprecated. Use --simulation-instructions instead.

*** ChampSim Multicore Out-of-Order Simulator ***
Warmup Instructions: 50000000
Simulation Instructions: 150000000
Number of CPUs: 4
Page size: 4096

Initialize SIGNATURE TABLE
ST_SET: 1
ST_WAY: 256
ST_TAG_BIT: 16
ST_TAG_MASK: ffff

Initialize PATTERN TABLE
PT_SET: 512
PT_WAY: 4
SIG_DELTA_BIT: 7
C_SIG_BIT: 4
C_DELTA_BIT: 4

Initialize PREFETCH FILTER
FILTER_SET: 1024
Initialize SIGNATURE TABLE
ST_SET: 1
ST_WAY: 256
ST_TAG_BIT: 16
ST_TAG_MASK: ffff

Initialize PATTERN TABLE
PT_SET: 512
PT_WAY: 4
SIG_DELTA_BIT: 7
C_SIG_BIT: 4
C_DELTA_BIT: 4

Initialize PREFETCH FILTER
FILTER_SET: 1024
Initialize SIGNATURE TABLE
ST_SET: 1
ST_WAY: 256
ST_TAG_BIT: 16
ST_TAG_MASK: ffff

Initialize PATTERN TABLE
PT_SET: 512
PT_WAY: 4
SIG_DELTA_BIT: 7
C_SIG_BIT: 4
C_DELTA_BIT: 4

Initialize PREFETCH FILTER
FILTER_SET: 1024
Initialize SIGNATURE TABLE
ST_SET: 1
ST_WAY: 256
ST_TAG_BIT: 16
ST_TAG_MASK: ffff

Initialize PATTERN TABLE
PT_SET: 512
PT_WAY: 4
SIG_DELTA_BIT: 7
C_SIG_BIT: 4
C_DELTA_BIT: 4

Initialize PREFETCH FILTER
FILTER_SET: 1024
Off-chip DRAM Size: 4 GiB Channels: 1 Width: 64-bit Data Race: 3200 MT/s
Heartbeat CPU 3 instructions: 10000000 cycles: 2502906 heartbeat IPC: 3.995 cumulative IPC: 3.995 (Simulation time: 00 hr 02 min 24 sec)
Heartbeat CPU 2 instructions: 10000001 cycles: 2639233 heartbeat IPC: 3.789 cumulative IPC: 3.789 (Simulation time: 00 hr 02 min 34 sec)
Heartbeat CPU 1 instructions: 10000003 cycles: 2696858 heartbeat IPC: 3.708 cumulative IPC: 3.708 (Simulation time: 00 hr 02 min 38 sec)
Heartbeat CPU 0 instructions: 10000002 cycles: 3838608 heartbeat IPC: 2.605 cumulative IPC: 2.605 (Simulation time: 00 hr 04 min 00 sec)
Heartbeat CPU 3 instructions: 20000001 cycles: 5005634 heartbeat IPC: 3.996 cumulative IPC: 3.995 (Simulation time: 00 hr 05 min 24 sec)
Heartbeat CPU 1 instructions: 20000001 cycles: 5210088 heartbeat IPC: 3.979 cumulative IPC: 3.839 (Simulation time: 00 hr 05 min 39 sec)
Heartbeat CPU 2 instructions: 20000000 cycles: 5278423 heartbeat IPC: 3.789 cumulative IPC: 3.789 (Simulation time: 00 hr 05 min 44 sec)
Heartbeat CPU 3 instructions: 30000001 cycles: 7507976 heartbeat IPC: 3.996 cumulative IPC: 3.996 (Simulation time: 00 hr 08 min 31 sec)
Heartbeat CPU 0 instructions: 20000002 cycles: 7676090 heartbeat IPC: 2.606 cumulative IPC: 2.605 (Simulation time: 00 hr 08 min 43 sec)
Heartbeat CPU 1 instructions: 30000000 cycles: 7723071 heartbeat IPC: 3.979 cumulative IPC: 3.884 (Simulation time: 00 hr 08 min 47 sec)
Heartbeat CPU 2 instructions: 30000003 cycles: 7917446 heartbeat IPC: 3.789 cumulative IPC: 3.789 (Simulation time: 00 hr 09 min 01 sec)
Heartbeat CPU 3 instructions: 40000000 cycles: 10010704 heartbeat IPC: 3.996 cumulative IPC: 3.996 (Simulation time: 00 hr 11 min 11 sec)
Heartbeat CPU 1 instructions: 40000003 cycles: 10239672 heartbeat IPC: 3.974 cumulative IPC: 3.906 (Simulation time: 00 hr 11 min 25 sec)
Heartbeat CPU 2 instructions: 40000002 cycles: 10556019 heartbeat IPC: 3.79 cumulative IPC: 3.789 (Simulation time: 00 hr 11 min 43 sec)
Heartbeat CPU 0 instructions: 30000003 cycles: 11512978 heartbeat IPC: 2.606 cumulative IPC: 2.606 (Simulation time: 00 hr 12 min 41 sec)
Heartbeat CPU 3 instructions: 50000001 cycles: 12513351 heartbeat IPC: 3.996 cumulative IPC: 3.996 (Simulation time: 00 hr 13 min 41 sec)
Warmup finished CPU 3 instructions: 50000001 cycles: 12513352 cumulative IPC: 3.996 (Simulation time: 00 hr 13 min 41 sec)
Heartbeat CPU 1 instructions: 50000002 cycles: 12760660 heartbeat IPC: 3.967 cumulative IPC: 3.918 (Simulation time: 00 hr 14 min 01 sec)
Warmup finished CPU 1 instructions: 50000002 cycles: 12760661 cumulative IPC: 3.918 (Simulation time: 00 hr 14 min 01 sec)
Heartbeat CPU 2 instructions: 50000002 cycles: 13196259 heartbeat IPC: 3.788 cumulative IPC: 3.789 (Simulation time: 00 hr 14 min 30 sec)
Warmup finished CPU 2 instructions: 50000002 cycles: 13196260 cumulative IPC: 3.789 (Simulation time: 00 hr 14 min 30 sec)
Heartbeat CPU 3 instructions: 60000001 cycles: 15015998 heartbeat IPC: 3.996 cumulative IPC: 3.996 (Simulation time: 00 hr 16 min 19 sec)
Heartbeat CPU 1 instructions: 60000001 cycles: 15281446 heartbeat IPC: 3.967 cumulative IPC: 3.926 (Simulation time: 00 hr 16 min 34 sec)
Heartbeat CPU 0 instructions: 40000004 cycles: 15353841 heartbeat IPC: 2.604 cumulative IPC: 2.605 (Simulation time: 00 hr 16 min 38 sec)
Heartbeat CPU 2 instructions: 60000000 cycles: 15839254 heartbeat IPC: 3.784 cumulative IPC: 3.788 (Simulation time: 00 hr 17 min 05 sec)
Heartbeat CPU 3 instructions: 70000002 cycles: 17520753 heartbeat IPC: 3.992 cumulative IPC: 3.995 (Simulation time: 00 hr 18 min 49 sec)
Heartbeat CPU 1 instructions: 70000003 cycles: 17797544 heartbeat IPC: 3.974 cumulative IPC: 3.933 (Simulation time: 00 hr 19 min 06 sec)
Heartbeat CPU 2 instructions: 70000003 cycles: 18486383 heartbeat IPC: 3.778 cumulative IPC: 3.787 (Simulation time: 00 hr 19 min 45 sec)
Heartbeat CPU 0 instructions: 50000001 cycles: 19193557 heartbeat IPC: 2.604 cumulative IPC: 2.605 (Simulation time: 00 hr 20 min 24 sec)
Warmup finished CPU 0 instructions: 50000001 cycles: 19193558 cumulative IPC: 2.605 (Simulation time: 00 hr 20 min 24 sec)
Warmup complete CPU 0 instructions: 50000001 cycles: 19193558 cumulative IPC: 2.605 (Simulation time: 00 hr 20 min 24 sec)
Warmup complete CPU 1 instructions: 75555362 cycles: 19193558 cumulative IPC: 3.936 (Simulation time: 00 hr 20 min 24 sec)
Warmup complete CPU 2 instructions: 72778421 cycles: 19193558 cumulative IPC: 3.792 (Simulation time: 00 hr 20 min 24 sec)
Warmup complete CPU 3 instructions: 76691218 cycles: 19193558 cumulative IPC: 3.996 (Simulation time: 00 hr 20 min 24 sec)
Heartbeat CPU 3 instructions: 80000001 cycles: 20754253 heartbeat IPC: 3.093 cumulative IPC: 2.12 (Simulation time: 00 hr 21 min 35 sec)
Heartbeat CPU 1 instructions: 80000002 cycles: 21163953 heartbeat IPC: 2.971 cumulative IPC: 2.256 (Simulation time: 00 hr 21 min 51 sec)
Heartbeat CPU 2 instructions: 80000000 cycles: 23658086 heartbeat IPC: 1.934 cumulative IPC: 1.618 (Simulation time: 00 hr 23 min 28 sec)
Heartbeat CPU 1 instructions: 90000003 cycles: 25333259 heartbeat IPC: 2.398 cumulative IPC: 2.353 (Simulation time: 00 hr 24 min 36 sec)
Heartbeat CPU 3 instructions: 90000004 cycles: 25493589 heartbeat IPC: 2.11 cumulative IPC: 2.112 (Simulation time: 00 hr 24 min 43 sec)
Heartbeat CPU 2 instructions: 90000001 cycles: 28901901 heartbeat IPC: 1.907 cumulative IPC: 1.774 (Simulation time: 00 hr 27 min 07 sec)
Heartbeat CPU 0 instructions: 60000002 cycles: 28942866 heartbeat IPC: 1.026 cumulative IPC: 1.026 (Simulation time: 00 hr 27 min 08 sec)
Heartbeat CPU 3 instructions: 100000000 cycles: 30233998 heartbeat IPC: 2.11 cumulative IPC: 2.111 (Simulation time: 00 hr 28 min 05 sec)
Heartbeat CPU 3 instructions: 110000001 cycles: 35061706 heartbeat IPC: 2.071 cumulative IPC: 2.099 (Simulation time: 00 hr 31 min 10 sec)
Heartbeat CPU 2 instructions: 100000001 cycles: 37669363 heartbeat IPC: 1.141 cumulative IPC: 1.473 (Simulation time: 00 hr 32 min 54 sec)
Heartbeat CPU 1 instructions: 100000000 cycles: 39678020 heartbeat IPC: 0.6971 cumulative IPC: 1.193 (Simulation time: 00 hr 34 min 09 sec)
Heartbeat CPU 3 instructions: 120000000 cycles: 39727831 heartbeat IPC: 2.143 cumulative IPC: 2.109 (Simulation time: 00 hr 34 min 11 sec)
Heartbeat CPU 0 instructions: 70000000 cycles: 42891752 heartbeat IPC: 0.7169 cumulative IPC: 0.8439 (Simulation time: 00 hr 36 min 00 sec)
Heartbeat CPU 3 instructions: 130000002 cycles: 44473989 heartbeat IPC: 2.107 cumulative IPC: 2.109 (Simulation time: 00 hr 36 min 53 sec)
Heartbeat CPU 3 instructions: 140000000 cycles: 49533917 heartbeat IPC: 1.976 cumulative IPC: 2.087 (Simulation time: 00 hr 39 min 23 sec)
Heartbeat CPU 3 instructions: 150000004 cycles: 54350418 heartbeat IPC: 2.076 cumulative IPC: 2.085 (Simulation time: 00 hr 41 min 44 sec)
Heartbeat CPU 3 instructions: 160000003 cycles: 59187201 heartbeat IPC: 2.067 cumulative IPC: 2.083 (Simulation time: 00 hr 44 min 15 sec)
Heartbeat CPU 2 instructions: 110000001 cycles: 63037915 heartbeat IPC: 0.3942 cumulative IPC: 0.8489 (Simulation time: 00 hr 46 min 16 sec)
Heartbeat CPU 0 instructions: 80000000 cycles: 63215516 heartbeat IPC: 0.492 cumulative IPC: 0.6815 (Simulation time: 00 hr 46 min 22 sec)
Heartbeat CPU 3 instructions: 170000003 cycles: 63927631 heartbeat IPC: 2.11 cumulative IPC: 2.086 (Simulation time: 00 hr 46 min 45 sec)
Heartbeat CPU 3 instructions: 180000004 cycles: 68733000 heartbeat IPC: 2.081 cumulative IPC: 2.085 (Simulation time: 00 hr 49 min 10 sec)
Heartbeat CPU 3 instructions: 190000002 cycles: 73609770 heartbeat IPC: 2.051 cumulative IPC: 2.082 (Simulation time: 00 hr 51 min 36 sec)
Heartbeat CPU 3 instructions: 200000000 cycles: 78556781 heartbeat IPC: 2.021 cumulative IPC: 2.077 (Simulation time: 00 hr 54 min 01 sec)
Heartbeat CPU 0 instructions: 90000000 cycles: 83266935 heartbeat IPC: 0.4987 cumulative IPC: 0.6243 (Simulation time: 00 hr 56 min 24 sec)
Heartbeat CPU 3 instructions: 210000000 cycles: 83357633 heartbeat IPC: 2.083 cumulative IPC: 2.078 (Simulation time: 00 hr 56 min 27 sec)
Heartbeat CPU 3 instructions: 220000000 cycles: 88179887 heartbeat IPC: 2.074 cumulative IPC: 2.077 (Simulation time: 00 hr 58 min 50 sec)
Simulation finished CPU 3 instructions: 150000002 cycles: 72228900 cumulative IPC: 2.077 (Simulation time: 01 hr 00 min 30 sec)
Heartbeat CPU 3 instructions: 230000001 cycles: 92917284 heartbeat IPC: 2.111 cumulative IPC: 2.08 (Simulation time: 01 hr 01 min 18 sec)
Heartbeat CPU 2 instructions: 120000003 cycles: 93142490 heartbeat IPC: 0.3322 cumulative IPC: 0.6386 (Simulation time: 01 hr 01 min 27 sec)
Heartbeat CPU 3 instructions: 240000000 cycles: 97814285 heartbeat IPC: 2.042 cumulative IPC: 2.077 (Simulation time: 01 hr 03 min 42 sec)
Heartbeat CPU 0 instructions: 100000000 cycles: 101913219 heartbeat IPC: 0.5363 cumulative IPC: 0.6045 (Simulation time: 01 hr 05 min 54 sec)
Heartbeat CPU 3 instructions: 250000002 cycles: 102632508 heartbeat IPC: 2.075 cumulative IPC: 2.077 (Simulation time: 01 hr 06 min 18 sec)
Heartbeat CPU 2 instructions: 130000002 cycles: 107440051 heartbeat IPC: 0.6994 cumulative IPC: 0.6484 (Simulation time: 01 hr 09 min 22 sec)
Heartbeat CPU 3 instructions: 260000000 cycles: 107491410 heartbeat IPC: 2.058 cumulative IPC: 2.076 (Simulation time: 01 hr 09 min 25 sec)
Heartbeat CPU 1 instructions: 110000001 cycles: 108048927 heartbeat IPC: 0.1463 cumulative IPC: 0.3876 (Simulation time: 01 hr 09 min 53 sec)
Heartbeat CPU 3 instructions: 270000000 cycles: 112247054 heartbeat IPC: 2.103 cumulative IPC: 2.077 (Simulation time: 01 hr 12 min 43 sec)
Heartbeat CPU 1 instructions: 120000000 cycles: 114717454 heartbeat IPC: 1.5 cumulative IPC: 0.4653 (Simulation time: 01 hr 14 min 52 sec)
Heartbeat CPU 2 instructions: 140000003 cycles: 115279338 heartbeat IPC: 1.276 cumulative IPC: 0.6996 (Simulation time: 01 hr 15 min 23 sec)
Heartbeat CPU 0 instructions: 110000003 cycles: 116507717 heartbeat IPC: 0.6852 cumulative IPC: 0.6166 (Simulation time: 01 hr 16 min 30 sec)
Heartbeat CPU 3 instructions: 280000001 cycles: 116910055 heartbeat IPC: 2.145 cumulative IPC: 2.081 (Simulation time: 01 hr 16 min 50 sec)
Heartbeat CPU 1 instructions: 130000002 cycles: 118423096 heartbeat IPC: 2.699 cumulative IPC: 0.5487 (Simulation time: 01 hr 18 min 08 sec)
Heartbeat CPU 2 instructions: 150000000 cycles: 120980968 heartbeat IPC: 1.754 cumulative IPC: 0.7587 (Simulation time: 01 hr 20 min 20 sec)
Heartbeat CPU 3 instructions: 290000004 cycles: 121596694 heartbeat IPC: 2.134 cumulative IPC: 2.083 (Simulation time: 01 hr 20 min 51 sec)
Heartbeat CPU 1 instructions: 140000000 cycles: 122120681 heartbeat IPC: 2.704 cumulative IPC: 0.6261 (Simulation time: 01 hr 21 min 19 sec)
Heartbeat CPU 3 instructions: 300000000 cycles: 126288696 heartbeat IPC: 2.131 cumulative IPC: 2.085 (Simulation time: 01 hr 24 min 32 sec)
Heartbeat CPU 1 instructions: 150000000 cycles: 127520335 heartbeat IPC: 1.852 cumulative IPC: 0.6872 (Simulation time: 01 hr 25 min 33 sec)
Heartbeat CPU 2 instructions: 160000000 cycles: 127856289 heartbeat IPC: 1.454 cumulative IPC: 0.8027 (Simulation time: 01 hr 25 min 50 sec)
Heartbeat CPU 0 instructions: 120000004 cycles: 128412372 heartbeat IPC: 0.84 cumulative IPC: 0.6409 (Simulation time: 01 hr 26 min 16 sec)
Heartbeat CPU 3 instructions: 310000001 cycles: 130924038 heartbeat IPC: 2.157 cumulative IPC: 2.088 (Simulation time: 01 hr 28 min 15 sec)
Heartbeat CPU 2 instructions: 170000002 cycles: 131885676 heartbeat IPC: 2.482 cumulative IPC: 0.8627 (Simulation time: 01 hr 28 min 55 sec)
Heartbeat CPU 1 instructions: 160000000 cycles: 132499101 heartbeat IPC: 2.009 cumulative IPC: 0.7453 (Simulation time: 01 hr 29 min 21 sec)
Heartbeat CPU 3 instructions: 320000001 cycles: 135579610 heartbeat IPC: 2.148 cumulative IPC: 2.091 (Simulation time: 01 hr 31 min 39 sec)
Heartbeat CPU 1 instructions: 170000002 cycles: 137883422 heartbeat IPC: 1.857 cumulative IPC: 0.7957 (Simulation time: 01 hr 33 min 13 sec)
Heartbeat CPU 2 instructions: 180000003 cycles: 138726375 heartbeat IPC: 1.462 cumulative IPC: 0.897 (Simulation time: 01 hr 33 min 51 sec)
Heartbeat CPU 0 instructions: 130000000 cycles: 138742618 heartbeat IPC: 0.968 cumulative IPC: 0.6692 (Simulation time: 01 hr 33 min 52 sec)
Heartbeat CPU 3 instructions: 330000001 cycles: 140221046 heartbeat IPC: 2.155 cumulative IPC: 2.093 (Simulation time: 01 hr 35 min 07 sec)
Heartbeat CPU 1 instructions: 180000004 cycles: 143730242 heartbeat IPC: 1.71 cumulative IPC: 0.8387 (Simulation time: 01 hr 37 min 24 sec)
Heartbeat CPU 2 instructions: 190000003 cycles: 147486744 heartbeat IPC: 1.142 cumulative IPC: 0.9137 (Simulation time: 01 hr 39 min 54 sec)
Heartbeat CPU 3 instructions: 340000000 cycles: 147965658 heartbeat IPC: 1.291 cumulative IPC: 2.045 (Simulation time: 01 hr 40 min 14 sec)
Heartbeat CPU 1 instructions: 190000002 cycles: 148276137 heartbeat IPC: 2.2 cumulative IPC: 0.8866 (Simulation time: 01 hr 40 min 26 sec)
Heartbeat CPU 0 instructions: 140000003 cycles: 149614222 heartbeat IPC: 0.9198 cumulative IPC: 0.6901 (Simulation time: 01 hr 41 min 21 sec)
Heartbeat CPU 3 instructions: 350000002 cycles: 154033483 heartbeat IPC: 1.648 cumulative IPC: 2.027 (Simulation time: 01 hr 44 min 11 sec)
Heartbeat CPU 2 instructions: 200000002 cycles: 155383943 heartbeat IPC: 1.266 cumulative IPC: 0.9341 (Simulation time: 01 hr 45 min 05 sec)
Heartbeat CPU 3 instructions: 360000003 cycles: 160141130 heartbeat IPC: 1.637 cumulative IPC: 2.01 (Simulation time: 01 hr 47 min 55 sec)
Heartbeat CPU 1 instructions: 200000004 cycles: 160218013 heartbeat IPC: 0.8374 cumulative IPC: 0.8824 (Simulation time: 01 hr 47 min 57 sec)
Heartbeat CPU 0 instructions: 150000004 cycles: 162164588 heartbeat IPC: 0.7968 cumulative IPC: 0.6994 (Simulation time: 01 hr 49 min 09 sec)
Heartbeat CPU 3 instructions: 370000000 cycles: 166346454 heartbeat IPC: 1.612 cumulative IPC: 1.993 (Simulation time: 01 hr 51 min 20 sec)
Heartbeat CPU 2 instructions: 210000002 cycles: 167711006 heartbeat IPC: 0.8112 cumulative IPC: 0.9239 (Simulation time: 01 hr 52 min 02 sec)
Heartbeat CPU 3 instructions: 380000002 cycles: 173573591 heartbeat IPC: 1.384 cumulative IPC: 1.965 (Simulation time: 01 hr 54 min 51 sec)
Heartbeat CPU 0 instructions: 160000004 cycles: 184473003 heartbeat IPC: 0.4483 cumulative IPC: 0.6655 (Simulation time: 01 hr 59 min 32 sec)
Heartbeat CPU 2 instructions: 220000004 cycles: 208264659 heartbeat IPC: 0.2466 cumulative IPC: 0.7787 (Simulation time: 02 hr 09 min 10 sec)
Heartbeat CPU 3 instructions: 390000001 cycles: 215455504 heartbeat IPC: 0.2388 cumulative IPC: 1.596 (Simulation time: 02 hr 12 min 07 sec)
Heartbeat CPU 0 instructions: 170000000 cycles: 216444239 heartbeat IPC: 0.3128 cumulative IPC: 0.6084 (Simulation time: 02 hr 12 min 35 sec)
Simulation finished CPU 2 instructions: 150000003 cycles: 199683315 cumulative IPC: 0.7512 (Simulation time: 02 hr 13 min 43 sec)
Heartbeat CPU 3 instructions: 400000004 cycles: 224190180 heartbeat IPC: 1.145 cumulative IPC: 1.577 (Simulation time: 02 hr 16 min 15 sec)
Heartbeat CPU 3 instructions: 410000003 cycles: 232953317 heartbeat IPC: 1.141 cumulative IPC: 1.559 (Simulation time: 02 hr 20 min 30 sec)
Heartbeat CPU 1 instructions: 210000003 cycles: 234818596 heartbeat IPC: 0.134 cumulative IPC: 0.6235 (Simulation time: 02 hr 21 min 21 sec)
Heartbeat CPU 2 instructions: 230000000 cycles: 235104710 heartbeat IPC: 0.3726 cumulative IPC: 0.7282 (Simulation time: 02 hr 21 min 28 sec)
Heartbeat CPU 0 instructions: 180000001 cycles: 238278816 heartbeat IPC: 0.458 cumulative IPC: 0.5934 (Simulation time: 02 hr 23 min 13 sec)
Heartbeat CPU 3 instructions: 420000001 cycles: 239933678 heartbeat IPC: 1.433 cumulative IPC: 1.555 (Simulation time: 02 hr 24 min 12 sec)
Heartbeat CPU 1 instructions: 220000001 cycles: 240407905 heartbeat IPC: 1.789 cumulative IPC: 0.653 (Simulation time: 02 hr 24 min 29 sec)
Simulation finished CPU 1 instructions: 150000001 cycles: 223302754 cumulative IPC: 0.6717 (Simulation time: 02 hr 25 min 44 sec)
Heartbeat CPU 1 instructions: 230000001 cycles: 244240144 heartbeat IPC: 2.609 cumulative IPC: 0.6863 (Simulation time: 02 hr 26 min 48 sec)
Heartbeat CPU 2 instructions: 240000002 cycles: 245919969 heartbeat IPC: 0.9246 cumulative IPC: 0.7375 (Simulation time: 02 hr 27 min 51 sec)
Heartbeat CPU 3 instructions: 430000002 cycles: 246268949 heartbeat IPC: 1.578 cumulative IPC: 1.556 (Simulation time: 02 hr 28 min 06 sec)
Heartbeat CPU 1 instructions: 240000000 cycles: 248069104 heartbeat IPC: 2.612 cumulative IPC: 0.7185 (Simulation time: 02 hr 29 min 14 sec)
Heartbeat CPU 0 instructions: 190000003 cycles: 250914681 heartbeat IPC: 0.7914 cumulative IPC: 0.6042 (Simulation time: 02 hr 30 min 59 sec)
Heartbeat CPU 3 instructions: 440000003 cycles: 251791019 heartbeat IPC: 1.811 cumulative IPC: 1.562 (Simulation time: 02 hr 31 min 31 sec)
Heartbeat CPU 1 instructions: 250000004 cycles: 252972807 heartbeat IPC: 2.039 cumulative IPC: 0.7462 (Simulation time: 02 hr 32 min 14 sec)
Heartbeat CPU 2 instructions: 250000000 cycles: 253602177 heartbeat IPC: 1.302 cumulative IPC: 0.756 (Simulation time: 02 hr 32 min 37 sec)
Heartbeat CPU 3 instructions: 450000000 cycles: 257506674 heartbeat IPC: 1.75 cumulative IPC: 1.566 (Simulation time: 02 hr 34 min 58 sec)
Heartbeat CPU 1 instructions: 260000004 cycles: 258566926 heartbeat IPC: 1.788 cumulative IPC: 0.7705 (Simulation time: 02 hr 35 min 37 sec)
Heartbeat CPU 2 instructions: 260000001 cycles: 261876804 heartbeat IPC: 1.209 cumulative IPC: 0.7715 (Simulation time: 02 hr 37 min 39 sec)
Heartbeat CPU 0 instructions: 200000002 cycles: 262800970 heartbeat IPC: 0.8413 cumulative IPC: 0.6157 (Simulation time: 02 hr 38 min 12 sec)
Simulation finished CPU 0 instructions: 150000001 cycles: 243607413 cumulative IPC: 0.6157 (Simulation time: 02 hr 38 min 12 sec)
Simulation complete CPU 0 instructions: 150000001 cycles: 243607413 cumulative IPC: 0.6157 (Simulation time: 02 hr 38 min 12 sec)
Simulation complete CPU 1 instructions: 192153340 cycles: 243607413 cumulative IPC: 0.7888 (Simulation time: 02 hr 38 min 12 sec)
Simulation complete CPU 2 instructions: 187991516 cycles: 243607413 cumulative IPC: 0.7717 (Simulation time: 02 hr 38 min 12 sec)
Simulation complete CPU 3 instructions: 382170646 cycles: 243607413 cumulative IPC: 1.569 (Simulation time: 02 hr 38 min 12 sec)

ChampSim completed all CPUs

=== Simulation ===
CPU 0 runs /home/das/dpc3_traces/607.cactuBSSN_s-2421B.champsimtrace.xzCPU 1 runs /home/das/dpc3_traces/627.cam4_s-573B.champsimtrace.xzCPU 2 runs /home/das/dpc3_traces/628.pop2_s-17B.champsimtrace.xzCPU 3 runs /home/das/dpc3_traces/621.wrf_s-575B.champsimtrace.xz
Total Simulation Statistics (not including warmup)

CPU 0 cumulative IPC: 0.6157 instructions: 150000001 cycles: 243607413
CPU 0 Branch Prediction Accuracy: 97.89% MPKI: 0.03078 Average ROB Occupancy at Mispredict: 126.8
Branch type MPKI
BRANCH_DIRECT_JUMP: 0.0002
BRANCH_INDIRECT: 0.000567
BRANCH_CONDITIONAL: 0.0181
BRANCH_DIRECT_CALL: 0.00413
BRANCH_INDIRECT_CALL: 2e-05
BRANCH_RETURN: 0.00775


CPU 1 cumulative IPC: 0.7888 instructions: 192153340 cycles: 243607413
CPU 1 Branch Prediction Accuracy: 94.71% MPKI: 6.96 Average ROB Occupancy at Mispredict: 64.75
Branch type MPKI
BRANCH_DIRECT_JUMP: 0.00595
BRANCH_INDIRECT: 0.00206
BRANCH_CONDITIONAL: 6.36
BRANCH_DIRECT_CALL: 0.0212
BRANCH_INDIRECT_CALL: 0
BRANCH_RETURN: 0.571


CPU 2 cumulative IPC: 0.7717 instructions: 187991516 cycles: 243607413
CPU 2 Branch Prediction Accuracy: 97.68% MPKI: 3.577 Average ROB Occupancy at Mispredict: 110
Branch type MPKI
BRANCH_DIRECT_JUMP: 0.0286
BRANCH_INDIRECT: 0.00075
BRANCH_CONDITIONAL: 3.51
BRANCH_DIRECT_CALL: 0.00138
BRANCH_INDIRECT_CALL: 0
BRANCH_RETURN: 0.0323


CPU 3 cumulative IPC: 1.569 instructions: 382170646 cycles: 243607413
CPU 3 Branch Prediction Accuracy: 95.4% MPKI: 5.917 Average ROB Occupancy at Mispredict: 86.97
Branch type MPKI
BRANCH_DIRECT_JUMP: 0.000372
BRANCH_INDIRECT: 7.85e-06
BRANCH_CONDITIONAL: 5.82
BRANCH_DIRECT_CALL: 0.00161
BRANCH_INDIRECT_CALL: 0
BRANCH_RETURN: 0.0964

LLC TOTAL        ACCESS:    6587626 HIT:    5244690 MISS:    1342936
LLC LOAD         ACCESS:    1338737 HIT:     847212 MISS:     491525
LLC RFO          ACCESS:       4606 HIT:       3503 MISS:       1103
LLC PREFETCH     ACCESS:    5073614 HIT:    4237550 MISS:     836064
LLC WRITE        ACCESS:     147694 HIT:     147638 MISS:         56
LLC TRANSLATION  ACCESS:      22975 HIT:       8787 MISS:      14188
LLC PREFETCH REQUESTED:          0 ISSUED:          0 USEFUL:          0 USELESS:          0
LLC AVERAGE MISS LATENCY: 3867 cycles
LLC TOTAL        ACCESS:    2350733 HIT:    1188974 MISS:    1161759
LLC LOAD         ACCESS:     119228 HIT:      49985 MISS:      69243
LLC RFO          ACCESS:     969804 HIT:      17605 MISS:     952199
LLC PREFETCH     ACCESS:     272261 HIT:     145962 MISS:     126299
LLC WRITE        ACCESS:     986273 HIT:     975139 MISS:      11134
LLC TRANSLATION  ACCESS:       3167 HIT:        283 MISS:       2884
LLC PREFETCH REQUESTED:          0 ISSUED:          0 USEFUL:          0 USELESS:          0
LLC AVERAGE MISS LATENCY: 3867 cycles
LLC TOTAL        ACCESS:    4098418 HIT:    2583668 MISS:    1514750
LLC LOAD         ACCESS:     609417 HIT:     422283 MISS:     187134
LLC RFO          ACCESS:     375004 HIT:     139308 MISS:     235696
LLC PREFETCH     ACCESS:    2562511 HIT:    1482329 MISS:    1080182
LLC WRITE        ACCESS:     546094 HIT:     538268 MISS:       7826
LLC TRANSLATION  ACCESS:       5392 HIT:       1480 MISS:       3912
LLC PREFETCH REQUESTED:          0 ISSUED:          0 USEFUL:          0 USELESS:          0
LLC AVERAGE MISS LATENCY: 3867 cycles
LLC TOTAL        ACCESS:     879069 HIT:     444017 MISS:     435052
LLC LOAD         ACCESS:      89176 HIT:      45418 MISS:      43758
LLC RFO          ACCESS:     182116 HIT:      50379 MISS:     131737
LLC PREFETCH     ACCESS:     417877 HIT:     178183 MISS:     239694
LLC WRITE        ACCESS:     188785 HIT:     169741 MISS:      19044
LLC TRANSLATION  ACCESS:       1115 HIT:        296 MISS:        819
LLC PREFETCH REQUESTED:          0 ISSUED:          0 USEFUL:          0 USELESS:          0
LLC AVERAGE MISS LATENCY: 3867 cycles
cpu0_DTLB TOTAL        ACCESS:   31463232 HIT:   18409436 MISS:   13053796
cpu0_DTLB LOAD         ACCESS:   31463232 HIT:   18409436 MISS:   13053796
cpu0_DTLB RFO          ACCESS:          0 HIT:          0 MISS:          0
cpu0_DTLB PREFETCH     ACCESS:          0 HIT:          0 MISS:          0
cpu0_DTLB WRITE        ACCESS:          0 HIT:          0 MISS:          0
cpu0_DTLB TRANSLATION  ACCESS:          0 HIT:          0 MISS:          0
cpu0_DTLB PREFETCH REQUESTED:          0 ISSUED:          0 USEFUL:          0 USELESS:          0
cpu0_DTLB AVERAGE MISS LATENCY: 10.01 cycles
cpu0_DTLB TOTAL        ACCESS:          0 HIT:          0 MISS:          0
cpu0_DTLB LOAD         ACCESS:          0 HIT:          0 MISS:          0
cpu0_DTLB RFO          ACCESS:          0 HIT:          0 MISS:          0
cpu0_DTLB PREFETCH     ACCESS:          0 HIT:          0 MISS:          0
cpu0_DTLB WRITE        ACCESS:          0 HIT:          0 MISS:          0
cpu0_DTLB TRANSLATION  ACCESS:          0 HIT:          0 MISS:          0
cpu0_DTLB PREFETCH REQUESTED:          0 ISSUED:          0 USEFUL:          0 USELESS:          0
cpu0_DTLB AVERAGE MISS LATENCY: 10.01 cycles
cpu0_DTLB TOTAL        ACCESS:          0 HIT:          0 MISS:          0
cpu0_DTLB LOAD         ACCESS:          0 HIT:          0 MISS:          0
cpu0_DTLB RFO          ACCESS:          0 HIT:          0 MISS:          0
cpu0_DTLB PREFETCH     ACCESS:          0 HIT:          0 MISS:          0
cpu0_DTLB WRITE        ACCESS:          0 HIT:          0 MISS:          0
cpu0_DTLB TRANSLATION  ACCESS:          0 HIT:          0 MISS:          0
cpu0_DTLB PREFETCH REQUESTED:          0 ISSUED:          0 USEFUL:          0 USELESS:          0
cpu0_DTLB AVERAGE MISS LATENCY: 10.01 cycles
cpu0_DTLB TOTAL        ACCESS:          0 HIT:          0 MISS:          0
cpu0_DTLB LOAD         ACCESS:          0 HIT:          0 MISS:          0
cpu0_DTLB RFO          ACCESS:          0 HIT:          0 MISS:          0
cpu0_DTLB PREFETCH     ACCESS:          0 HIT:          0 MISS:          0
cpu0_DTLB WRITE        ACCESS:          0 HIT:          0 MISS:          0
cpu0_DTLB TRANSLATION  ACCESS:          0 HIT:          0 MISS:          0
cpu0_DTLB PREFETCH REQUESTED:          0 ISSUED:          0 USEFUL:          0 USELESS:          0
cpu0_DTLB AVERAGE MISS LATENCY: 10.01 cycles
cpu0_ITLB TOTAL        ACCESS:   19791739 HIT:   19791648 MISS:         91
cpu0_ITLB LOAD         ACCESS:   19791739 HIT:   19791648 MISS:         91
cpu0_ITLB RFO          ACCESS:          0 HIT:          0 MISS:          0
cpu0_ITLB PREFETCH     ACCESS:          0 HIT:          0 MISS:          0
cpu0_ITLB WRITE        ACCESS:          0 HIT:          0 MISS:          0
cpu0_ITLB TRANSLATION  ACCESS:          0 HIT:          0 MISS:          0
cpu0_ITLB PREFETCH REQUESTED:          0 ISSUED:          0 USEFUL:          0 USELESS:          0
cpu0_ITLB AVERAGE MISS LATENCY: 285.3 cycles
cpu0_ITLB TOTAL        ACCESS:          0 HIT:          0 MISS:          0
cpu0_ITLB LOAD         ACCESS:          0 HIT:          0 MISS:          0
cpu0_ITLB RFO          ACCESS:          0 HIT:          0 MISS:          0
cpu0_ITLB PREFETCH     ACCESS:          0 HIT:          0 MISS:          0
cpu0_ITLB WRITE        ACCESS:          0 HIT:          0 MISS:          0
cpu0_ITLB TRANSLATION  ACCESS:          0 HIT:          0 MISS:          0
cpu0_ITLB PREFETCH REQUESTED:          0 ISSUED:          0 USEFUL:          0 USELESS:          0
cpu0_ITLB AVERAGE MISS LATENCY: 285.3 cycles
cpu0_ITLB TOTAL        ACCESS:          0 HIT:          0 MISS:          0
cpu0_ITLB LOAD         ACCESS:          0 HIT:          0 MISS:          0
cpu0_ITLB RFO          ACCESS:          0 HIT:          0 MISS:          0
cpu0_ITLB PREFETCH     ACCESS:          0 HIT:          0 MISS:          0
cpu0_ITLB WRITE        ACCESS:          0 HIT:          0 MISS:          0
cpu0_ITLB TRANSLATION  ACCESS:          0 HIT:          0 MISS:          0
cpu0_ITLB PREFETCH REQUESTED:          0 ISSUED:          0 USEFUL:          0 USELESS:          0
cpu0_ITLB AVERAGE MISS LATENCY: 285.3 cycles
cpu0_ITLB TOTAL        ACCESS:          0 HIT:          0 MISS:          0
cpu0_ITLB LOAD         ACCESS:          0 HIT:          0 MISS:          0
cpu0_ITLB RFO          ACCESS:          0 HIT:          0 MISS:          0
cpu0_ITLB PREFETCH     ACCESS:          0 HIT:          0 MISS:          0
cpu0_ITLB WRITE        ACCESS:          0 HIT:          0 MISS:          0
cpu0_ITLB TRANSLATION  ACCESS:          0 HIT:          0 MISS:          0
cpu0_ITLB PREFETCH REQUESTED:          0 ISSUED:          0 USEFUL:          0 USELESS:          0
cpu0_ITLB AVERAGE MISS LATENCY: 285.3 cycles
cpu0_L1D TOTAL        ACCESS:   39075676 HIT:   21738610 MISS:   17337066
cpu0_L1D LOAD         ACCESS:   21977600 HIT:    5580171 MISS:   16397429
cpu0_L1D RFO          ACCESS:          0 HIT:          0 MISS:          0
cpu0_L1D PREFETCH     ACCESS:          0 HIT:          0 MISS:          0
cpu0_L1D WRITE        ACCESS:   17069519 HIT:   16158146 MISS:     911373
cpu0_L1D TRANSLATION  ACCESS:      28557 HIT:        293 MISS:      28264
cpu0_L1D PREFETCH REQUESTED:          0 ISSUED:          0 USEFUL:          0 USELESS:          0
cpu0_L1D AVERAGE MISS LATENCY: 104.1 cycles
cpu0_L1D TOTAL        ACCESS:          0 HIT:          0 MISS:          0
cpu0_L1D LOAD         ACCESS:          0 HIT:          0 MISS:          0
cpu0_L1D RFO          ACCESS:          0 HIT:          0 MISS:          0
cpu0_L1D PREFETCH     ACCESS:          0 HIT:          0 MISS:          0
cpu0_L1D WRITE        ACCESS:          0 HIT:          0 MISS:          0
cpu0_L1D TRANSLATION  ACCESS:          0 HIT:          0 MISS:          0
cpu0_L1D PREFETCH REQUESTED:          0 ISSUED:          0 USEFUL:          0 USELESS:          0
cpu0_L1D AVERAGE MISS LATENCY: 104.1 cycles
cpu0_L1D TOTAL        ACCESS:          0 HIT:          0 MISS:          0
cpu0_L1D LOAD         ACCESS:          0 HIT:          0 MISS:          0
cpu0_L1D RFO          ACCESS:          0 HIT:          0 MISS:          0
cpu0_L1D PREFETCH     ACCESS:          0 HIT:          0 MISS:          0
cpu0_L1D WRITE        ACCESS:          0 HIT:          0 MISS:          0
cpu0_L1D TRANSLATION  ACCESS:          0 HIT:          0 MISS:          0
cpu0_L1D PREFETCH REQUESTED:          0 ISSUED:          0 USEFUL:          0 USELESS:          0
cpu0_L1D AVERAGE MISS LATENCY: 104.1 cycles
cpu0_L1D TOTAL        ACCESS:          0 HIT:          0 MISS:          0
cpu0_L1D LOAD         ACCESS:          0 HIT:          0 MISS:          0
cpu0_L1D RFO          ACCESS:          0 HIT:          0 MISS:          0
cpu0_L1D PREFETCH     ACCESS:          0 HIT:          0 MISS:          0
cpu0_L1D WRITE        ACCESS:          0 HIT:          0 MISS:          0
cpu0_L1D TRANSLATION  ACCESS:          0 HIT:          0 MISS:          0
cpu0_L1D PREFETCH REQUESTED:          0 ISSUED:          0 USEFUL:          0 USELESS:          0
cpu0_L1D AVERAGE MISS LATENCY: 104.1 cycles
cpu0_L1I TOTAL        ACCESS:   25745759 HIT:   25668648 MISS:      77111
cpu0_L1I LOAD         ACCESS:   25745759 HIT:   25668648 MISS:      77111
cpu0_L1I RFO          ACCESS:          0 HIT:          0 MISS:          0
cpu0_L1I PREFETCH     ACCESS:          0 HIT:          0 MISS:          0
cpu0_L1I WRITE        ACCESS:          0 HIT:          0 MISS:          0
cpu0_L1I TRANSLATION  ACCESS:          0 HIT:          0 MISS:          0
cpu0_L1I PREFETCH REQUESTED:          0 ISSUED:          0 USEFUL:          0 USELESS:          0
cpu0_L1I AVERAGE MISS LATENCY: 7.938 cycles
cpu0_L1I TOTAL        ACCESS:          0 HIT:          0 MISS:          0
cpu0_L1I LOAD         ACCESS:          0 HIT:          0 MISS:          0
cpu0_L1I RFO          ACCESS:          0 HIT:          0 MISS:          0
cpu0_L1I PREFETCH     ACCESS:          0 HIT:          0 MISS:          0
cpu0_L1I WRITE        ACCESS:          0 HIT:          0 MISS:          0
cpu0_L1I TRANSLATION  ACCESS:          0 HIT:          0 MISS:          0
cpu0_L1I PREFETCH REQUESTED:          0 ISSUED:          0 USEFUL:          0 USELESS:          0
cpu0_L1I AVERAGE MISS LATENCY: 7.938 cycles
cpu0_L1I TOTAL        ACCESS:          0 HIT:          0 MISS:          0
cpu0_L1I LOAD         ACCESS:          0 HIT:          0 MISS:          0
cpu0_L1I RFO          ACCESS:          0 HIT:          0 MISS:          0
cpu0_L1I PREFETCH     ACCESS:          0 HIT:          0 MISS:          0
cpu0_L1I WRITE        ACCESS:          0 HIT:          0 MISS:          0
cpu0_L1I TRANSLATION  ACCESS:          0 HIT:          0 MISS:          0
cpu0_L1I PREFETCH REQUESTED:          0 ISSUED:          0 USEFUL:          0 USELESS:          0
cpu0_L1I AVERAGE MISS LATENCY: 7.938 cycles
cpu0_L1I TOTAL        ACCESS:          0 HIT:          0 MISS:          0
cpu0_L1I LOAD         ACCESS:          0 HIT:          0 MISS:          0
cpu0_L1I RFO          ACCESS:          0 HIT:          0 MISS:          0
cpu0_L1I PREFETCH     ACCESS:          0 HIT:          0 MISS:          0
cpu0_L1I WRITE        ACCESS:          0 HIT:          0 MISS:          0
cpu0_L1I TRANSLATION  ACCESS:          0 HIT:          0 MISS:          0
cpu0_L1I PREFETCH REQUESTED:          0 ISSUED:          0 USEFUL:          0 USELESS:          0
cpu0_L1I AVERAGE MISS LATENCY: 7.938 cycles
cpu0_L2C TOTAL        ACCESS:   33472666 HIT:   26632150 MISS:    6840516
cpu0_L2C LOAD         ACCESS:   16279998 HIT:   14939187 MISS:    1340811
cpu0_L2C RFO          ACCESS:     677376 HIT:     672747 MISS:       4629
cpu0_L2C PREFETCH     ACCESS:   15194320 HIT:    9722221 MISS:    5472099
cpu0_L2C WRITE        ACCESS:    1292746 HIT:    1292744 MISS:          2
cpu0_L2C TRANSLATION  ACCESS:      28226 HIT:       5251 MISS:      22975
cpu0_L2C PREFETCH REQUESTED:   15436531 ISSUED:   15194322 USEFUL:     106961 USELESS:       1916
cpu0_L2C AVERAGE MISS LATENCY: 276.2 cycles
cpu0_L2C TOTAL        ACCESS:          0 HIT:          0 MISS:          0
cpu0_L2C LOAD         ACCESS:          0 HIT:          0 MISS:          0
cpu0_L2C RFO          ACCESS:          0 HIT:          0 MISS:          0
cpu0_L2C PREFETCH     ACCESS:          0 HIT:          0 MISS:          0
cpu0_L2C WRITE        ACCESS:          0 HIT:          0 MISS:          0
cpu0_L2C TRANSLATION  ACCESS:          0 HIT:          0 MISS:          0
cpu0_L2C PREFETCH REQUESTED:   15436531 ISSUED:   15194322 USEFUL:     106961 USELESS:       1916
cpu0_L2C AVERAGE MISS LATENCY: 276.2 cycles
cpu0_L2C TOTAL        ACCESS:          0 HIT:          0 MISS:          0
cpu0_L2C LOAD         ACCESS:          0 HIT:          0 MISS:          0
cpu0_L2C RFO          ACCESS:          0 HIT:          0 MISS:          0
cpu0_L2C PREFETCH     ACCESS:          0 HIT:          0 MISS:          0
cpu0_L2C WRITE        ACCESS:          0 HIT:          0 MISS:          0
cpu0_L2C TRANSLATION  ACCESS:          0 HIT:          0 MISS:          0
cpu0_L2C PREFETCH REQUESTED:   15436531 ISSUED:   15194322 USEFUL:     106961 USELESS:       1916
cpu0_L2C AVERAGE MISS LATENCY: 276.2 cycles
cpu0_L2C TOTAL        ACCESS:          0 HIT:          0 MISS:          0
cpu0_L2C LOAD         ACCESS:          0 HIT:          0 MISS:          0
cpu0_L2C RFO          ACCESS:          0 HIT:          0 MISS:          0
cpu0_L2C PREFETCH     ACCESS:          0 HIT:          0 MISS:          0
cpu0_L2C WRITE        ACCESS:          0 HIT:          0 MISS:          0
cpu0_L2C TRANSLATION  ACCESS:          0 HIT:          0 MISS:          0
cpu0_L2C PREFETCH REQUESTED:   15436531 ISSUED:   15194322 USEFUL:     106961 USELESS:       1916
cpu0_L2C AVERAGE MISS LATENCY: 276.2 cycles
cpu0_STLB TOTAL        ACCESS:   11239966 HIT:   11221621 MISS:      18345
cpu0_STLB LOAD         ACCESS:   11239966 HIT:   11221621 MISS:      18345
cpu0_STLB RFO          ACCESS:          0 HIT:          0 MISS:          0
cpu0_STLB PREFETCH     ACCESS:          0 HIT:          0 MISS:          0
cpu0_STLB WRITE        ACCESS:          0 HIT:          0 MISS:          0
cpu0_STLB TRANSLATION  ACCESS:          0 HIT:          0 MISS:          0
cpu0_STLB PREFETCH REQUESTED:          0 ISSUED:          0 USEFUL:          0 USELESS:          0
cpu0_STLB AVERAGE MISS LATENCY: 2792 cycles
cpu0_STLB TOTAL        ACCESS:          0 HIT:          0 MISS:          0
cpu0_STLB LOAD         ACCESS:          0 HIT:          0 MISS:          0
cpu0_STLB RFO          ACCESS:          0 HIT:          0 MISS:          0
cpu0_STLB PREFETCH     ACCESS:          0 HIT:          0 MISS:          0
cpu0_STLB WRITE        ACCESS:          0 HIT:          0 MISS:          0
cpu0_STLB TRANSLATION  ACCESS:          0 HIT:          0 MISS:          0
cpu0_STLB PREFETCH REQUESTED:          0 ISSUED:          0 USEFUL:          0 USELESS:          0
cpu0_STLB AVERAGE MISS LATENCY: 2792 cycles
cpu0_STLB TOTAL        ACCESS:          0 HIT:          0 MISS:          0
cpu0_STLB LOAD         ACCESS:          0 HIT:          0 MISS:          0
cpu0_STLB RFO          ACCESS:          0 HIT:          0 MISS:          0
cpu0_STLB PREFETCH     ACCESS:          0 HIT:          0 MISS:          0
cpu0_STLB WRITE        ACCESS:          0 HIT:          0 MISS:          0
cpu0_STLB TRANSLATION  ACCESS:          0 HIT:          0 MISS:          0
cpu0_STLB PREFETCH REQUESTED:          0 ISSUED:          0 USEFUL:          0 USELESS:          0
cpu0_STLB AVERAGE MISS LATENCY: 2792 cycles
cpu0_STLB TOTAL        ACCESS:          0 HIT:          0 MISS:          0
cpu0_STLB LOAD         ACCESS:          0 HIT:          0 MISS:          0
cpu0_STLB RFO          ACCESS:          0 HIT:          0 MISS:          0
cpu0_STLB PREFETCH     ACCESS:          0 HIT:          0 MISS:          0
cpu0_STLB WRITE        ACCESS:          0 HIT:          0 MISS:          0
cpu0_STLB TRANSLATION  ACCESS:          0 HIT:          0 MISS:          0
cpu0_STLB PREFETCH REQUESTED:          0 ISSUED:          0 USEFUL:          0 USELESS:          0
cpu0_STLB AVERAGE MISS LATENCY: 2792 cycles
cpu1_DTLB TOTAL        ACCESS:          0 HIT:          0 MISS:          0
cpu1_DTLB LOAD         ACCESS:          0 HIT:          0 MISS:          0
cpu1_DTLB RFO          ACCESS:          0 HIT:          0 MISS:          0
cpu1_DTLB PREFETCH     ACCESS:          0 HIT:          0 MISS:          0
cpu1_DTLB WRITE        ACCESS:          0 HIT:          0 MISS:          0
cpu1_DTLB TRANSLATION  ACCESS:          0 HIT:          0 MISS:          0
cpu1_DTLB PREFETCH REQUESTED:          0 ISSUED:          0 USEFUL:          0 USELESS:          0
cpu1_DTLB AVERAGE MISS LATENCY: 16.98 cycles
cpu1_DTLB TOTAL        ACCESS:   27968524 HIT:   27648660 MISS:     319864
cpu1_DTLB LOAD         ACCESS:   27968524 HIT:   27648660 MISS:     319864
cpu1_DTLB RFO          ACCESS:          0 HIT:          0 MISS:          0
cpu1_DTLB PREFETCH     ACCESS:          0 HIT:          0 MISS:          0
cpu1_DTLB WRITE        ACCESS:          0 HIT:          0 MISS:          0
cpu1_DTLB TRANSLATION  ACCESS:          0 HIT:          0 MISS:          0
cpu1_DTLB PREFETCH REQUESTED:          0 ISSUED:          0 USEFUL:          0 USELESS:          0
cpu1_DTLB AVERAGE MISS LATENCY: 16.98 cycles
cpu1_DTLB TOTAL        ACCESS:          0 HIT:          0 MISS:          0
cpu1_DTLB LOAD         ACCESS:          0 HIT:          0 MISS:          0
cpu1_DTLB RFO          ACCESS:          0 HIT:          0 MISS:          0
cpu1_DTLB PREFETCH     ACCESS:          0 HIT:          0 MISS:          0
cpu1_DTLB WRITE        ACCESS:          0 HIT:          0 MISS:          0
cpu1_DTLB TRANSLATION  ACCESS:          0 HIT:          0 MISS:          0
cpu1_DTLB PREFETCH REQUESTED:          0 ISSUED:          0 USEFUL:          0 USELESS:          0
cpu1_DTLB AVERAGE MISS LATENCY: 16.98 cycles
cpu1_DTLB TOTAL        ACCESS:          0 HIT:          0 MISS:          0
cpu1_DTLB LOAD         ACCESS:          0 HIT:          0 MISS:          0
cpu1_DTLB RFO          ACCESS:          0 HIT:          0 MISS:          0
cpu1_DTLB PREFETCH     ACCESS:          0 HIT:          0 MISS:          0
cpu1_DTLB WRITE        ACCESS:          0 HIT:          0 MISS:          0
cpu1_DTLB TRANSLATION  ACCESS:          0 HIT:          0 MISS:          0
cpu1_DTLB PREFETCH REQUESTED:          0 ISSUED:          0 USEFUL:          0 USELESS:          0
cpu1_DTLB AVERAGE MISS LATENCY: 16.98 cycles
cpu1_ITLB TOTAL        ACCESS:          0 HIT:          0 MISS:          0
cpu1_ITLB LOAD         ACCESS:          0 HIT:          0 MISS:          0
cpu1_ITLB RFO          ACCESS:          0 HIT:          0 MISS:          0
cpu1_ITLB PREFETCH     ACCESS:          0 HIT:          0 MISS:          0
cpu1_ITLB WRITE        ACCESS:          0 HIT:          0 MISS:          0
cpu1_ITLB TRANSLATION  ACCESS:          0 HIT:          0 MISS:          0
cpu1_ITLB PREFETCH REQUESTED:          0 ISSUED:          0 USEFUL:          0 USELESS:          0
cpu1_ITLB AVERAGE MISS LATENCY: 144.9 cycles
cpu1_ITLB TOTAL        ACCESS:    4280300 HIT:    4275592 MISS:       4708
cpu1_ITLB LOAD         ACCESS:    4280300 HIT:    4275592 MISS:       4708
cpu1_ITLB RFO          ACCESS:          0 HIT:          0 MISS:          0
cpu1_ITLB PREFETCH     ACCESS:          0 HIT:          0 MISS:          0
cpu1_ITLB WRITE        ACCESS:          0 HIT:          0 MISS:          0
cpu1_ITLB TRANSLATION  ACCESS:          0 HIT:          0 MISS:          0
cpu1_ITLB PREFETCH REQUESTED:          0 ISSUED:          0 USEFUL:          0 USELESS:          0
cpu1_ITLB AVERAGE MISS LATENCY: 144.9 cycles
cpu1_ITLB TOTAL        ACCESS:          0 HIT:          0 MISS:          0
cpu1_ITLB LOAD         ACCESS:          0 HIT:          0 MISS:          0
cpu1_ITLB RFO          ACCESS:          0 HIT:          0 MISS:          0
cpu1_ITLB PREFETCH     ACCESS:          0 HIT:          0 MISS:          0
cpu1_ITLB WRITE        ACCESS:          0 HIT:          0 MISS:          0
cpu1_ITLB TRANSLATION  ACCESS:          0 HIT:          0 MISS:          0
cpu1_ITLB PREFETCH REQUESTED:          0 ISSUED:          0 USEFUL:          0 USELESS:          0
cpu1_ITLB AVERAGE MISS LATENCY: 144.9 cycles
cpu1_ITLB TOTAL        ACCESS:          0 HIT:          0 MISS:          0
cpu1_ITLB LOAD         ACCESS:          0 HIT:          0 MISS:          0
cpu1_ITLB RFO          ACCESS:          0 HIT:          0 MISS:          0
cpu1_ITLB PREFETCH     ACCESS:          0 HIT:          0 MISS:          0
cpu1_ITLB WRITE        ACCESS:          0 HIT:          0 MISS:          0
cpu1_ITLB TRANSLATION  ACCESS:          0 HIT:          0 MISS:          0
cpu1_ITLB PREFETCH REQUESTED:          0 ISSUED:          0 USEFUL:          0 USELESS:          0
cpu1_ITLB AVERAGE MISS LATENCY: 144.9 cycles
cpu1_L1D TOTAL        ACCESS:          0 HIT:          0 MISS:          0
cpu1_L1D LOAD         ACCESS:          0 HIT:          0 MISS:          0
cpu1_L1D RFO          ACCESS:          0 HIT:          0 MISS:          0
cpu1_L1D PREFETCH     ACCESS:          0 HIT:          0 MISS:          0
cpu1_L1D WRITE        ACCESS:          0 HIT:          0 MISS:          0
cpu1_L1D TRANSLATION  ACCESS:          0 HIT:          0 MISS:          0
cpu1_L1D PREFETCH REQUESTED:          0 ISSUED:          0 USEFUL:          0 USELESS:          0
cpu1_L1D AVERAGE MISS LATENCY: 826.2 cycles
cpu1_L1D TOTAL        ACCESS:   37400900 HIT:   31803182 MISS:    5597718
cpu1_L1D LOAD         ACCESS:   17866926 HIT:   16991858 MISS:     875068
cpu1_L1D RFO          ACCESS:          0 HIT:          0 MISS:          0
cpu1_L1D PREFETCH     ACCESS:          0 HIT:          0 MISS:          0
cpu1_L1D WRITE        ACCESS:   19514221 HIT:   14796131 MISS:    4718090
cpu1_L1D TRANSLATION  ACCESS:      19753 HIT:      15193 MISS:       4560
cpu1_L1D PREFETCH REQUESTED:          0 ISSUED:          0 USEFUL:          0 USELESS:          0
cpu1_L1D AVERAGE MISS LATENCY: 826.2 cycles
cpu1_L1D TOTAL        ACCESS:          0 HIT:          0 MISS:          0
cpu1_L1D LOAD         ACCESS:          0 HIT:          0 MISS:          0
cpu1_L1D RFO          ACCESS:          0 HIT:          0 MISS:          0
cpu1_L1D PREFETCH     ACCESS:          0 HIT:          0 MISS:          0
cpu1_L1D WRITE        ACCESS:          0 HIT:          0 MISS:          0
cpu1_L1D TRANSLATION  ACCESS:          0 HIT:          0 MISS:          0
cpu1_L1D PREFETCH REQUESTED:          0 ISSUED:          0 USEFUL:          0 USELESS:          0
cpu1_L1D AVERAGE MISS LATENCY: 826.2 cycles
cpu1_L1D TOTAL        ACCESS:          0 HIT:          0 MISS:          0
cpu1_L1D LOAD         ACCESS:          0 HIT:          0 MISS:          0
cpu1_L1D RFO          ACCESS:          0 HIT:          0 MISS:          0
cpu1_L1D PREFETCH     ACCESS:          0 HIT:          0 MISS:          0
cpu1_L1D WRITE        ACCESS:          0 HIT:          0 MISS:          0
cpu1_L1D TRANSLATION  ACCESS:          0 HIT:          0 MISS:          0
cpu1_L1D PREFETCH REQUESTED:          0 ISSUED:          0 USEFUL:          0 USELESS:          0
cpu1_L1D AVERAGE MISS LATENCY: 826.2 cycles
cpu1_L1I TOTAL        ACCESS:          0 HIT:          0 MISS:          0
cpu1_L1I LOAD         ACCESS:          0 HIT:          0 MISS:          0
cpu1_L1I RFO          ACCESS:          0 HIT:          0 MISS:          0
cpu1_L1I PREFETCH     ACCESS:          0 HIT:          0 MISS:          0
cpu1_L1I WRITE        ACCESS:          0 HIT:          0 MISS:          0
cpu1_L1I TRANSLATION  ACCESS:          0 HIT:          0 MISS:          0
cpu1_L1I PREFETCH REQUESTED:          0 ISSUED:          0 USEFUL:          0 USELESS:          0
cpu1_L1I AVERAGE MISS LATENCY: 142.6 cycles
cpu1_L1I TOTAL        ACCESS:    5449201 HIT:    5334752 MISS:     114449
cpu1_L1I LOAD         ACCESS:    5449201 HIT:    5334752 MISS:     114449
cpu1_L1I RFO          ACCESS:          0 HIT:          0 MISS:          0
cpu1_L1I PREFETCH     ACCESS:          0 HIT:          0 MISS:          0
cpu1_L1I WRITE        ACCESS:          0 HIT:          0 MISS:          0
cpu1_L1I TRANSLATION  ACCESS:          0 HIT:          0 MISS:          0
cpu1_L1I PREFETCH REQUESTED:          0 ISSUED:          0 USEFUL:          0 USELESS:          0
cpu1_L1I AVERAGE MISS LATENCY: 142.6 cycles
cpu1_L1I TOTAL        ACCESS:          0 HIT:          0 MISS:          0
cpu1_L1I LOAD         ACCESS:          0 HIT:          0 MISS:          0
cpu1_L1I RFO          ACCESS:          0 HIT:          0 MISS:          0
cpu1_L1I PREFETCH     ACCESS:          0 HIT:          0 MISS:          0
cpu1_L1I WRITE        ACCESS:          0 HIT:          0 MISS:          0
cpu1_L1I TRANSLATION  ACCESS:          0 HIT:          0 MISS:          0
cpu1_L1I PREFETCH REQUESTED:          0 ISSUED:          0 USEFUL:          0 USELESS:          0
cpu1_L1I AVERAGE MISS LATENCY: 142.6 cycles
cpu1_L1I TOTAL        ACCESS:          0 HIT:          0 MISS:          0
cpu1_L1I LOAD         ACCESS:          0 HIT:          0 MISS:          0
cpu1_L1I RFO          ACCESS:          0 HIT:          0 MISS:          0
cpu1_L1I PREFETCH     ACCESS:          0 HIT:          0 MISS:          0
cpu1_L1I WRITE        ACCESS:          0 HIT:          0 MISS:          0
cpu1_L1I TRANSLATION  ACCESS:          0 HIT:          0 MISS:          0
cpu1_L1I PREFETCH REQUESTED:          0 ISSUED:          0 USEFUL:          0 USELESS:          0
cpu1_L1I AVERAGE MISS LATENCY: 142.6 cycles
cpu1_L2C TOTAL        ACCESS:          0 HIT:          0 MISS:          0
cpu1_L2C LOAD         ACCESS:          0 HIT:          0 MISS:          0
cpu1_L2C RFO          ACCESS:          0 HIT:          0 MISS:          0
cpu1_L2C PREFETCH     ACCESS:          0 HIT:          0 MISS:          0
cpu1_L2C WRITE        ACCESS:          0 HIT:          0 MISS:          0
cpu1_L2C TRANSLATION  ACCESS:          0 HIT:          0 MISS:          0
cpu1_L2C PREFETCH REQUESTED:    2349053 ISSUED:    1714500 USEFUL:      10331 USELESS:        892
cpu1_L2C AVERAGE MISS LATENCY: 3222 cycles
cpu1_L2C TOTAL        ACCESS:    4887175 HIT:    3444149 MISS:    1443026
cpu1_L2C LOAD         ACCESS:     670546 HIT:     546035 MISS:     124511
cpu1_L2C RFO          ACCESS:    1206153 HIT:     236348 MISS:     969805
cpu1_L2C PREFETCH     ACCESS:    1714500 HIT:    1369000 MISS:     345500
cpu1_L2C WRITE        ACCESS:    1291455 HIT:    1291412 MISS:         43
cpu1_L2C TRANSLATION  ACCESS:       4521 HIT:       1354 MISS:       3167
cpu1_L2C PREFETCH REQUESTED:    2349053 ISSUED:    1714500 USEFUL:      10331 USELESS:        892
cpu1_L2C AVERAGE MISS LATENCY: 3222 cycles
cpu1_L2C TOTAL        ACCESS:          0 HIT:          0 MISS:          0
cpu1_L2C LOAD         ACCESS:          0 HIT:          0 MISS:          0
cpu1_L2C RFO          ACCESS:          0 HIT:          0 MISS:          0
cpu1_L2C PREFETCH     ACCESS:          0 HIT:          0 MISS:          0
cpu1_L2C WRITE        ACCESS:          0 HIT:          0 MISS:          0
cpu1_L2C TRANSLATION  ACCESS:          0 HIT:          0 MISS:          0
cpu1_L2C PREFETCH REQUESTED:    2349053 ISSUED:    1714500 USEFUL:      10331 USELESS:        892
cpu1_L2C AVERAGE MISS LATENCY: 3222 cycles
cpu1_L2C TOTAL        ACCESS:          0 HIT:          0 MISS:          0
cpu1_L2C LOAD         ACCESS:          0 HIT:          0 MISS:          0
cpu1_L2C RFO          ACCESS:          0 HIT:          0 MISS:          0
cpu1_L2C PREFETCH     ACCESS:          0 HIT:          0 MISS:          0
cpu1_L2C WRITE        ACCESS:          0 HIT:          0 MISS:          0
cpu1_L2C TRANSLATION  ACCESS:          0 HIT:          0 MISS:          0
cpu1_L2C PREFETCH REQUESTED:    2349053 ISSUED:    1714500 USEFUL:      10331 USELESS:        892
cpu1_L2C AVERAGE MISS LATENCY: 3222 cycles
cpu1_STLB TOTAL        ACCESS:          0 HIT:          0 MISS:          0
cpu1_STLB LOAD         ACCESS:          0 HIT:          0 MISS:          0
cpu1_STLB RFO          ACCESS:          0 HIT:          0 MISS:          0
cpu1_STLB PREFETCH     ACCESS:          0 HIT:          0 MISS:          0
cpu1_STLB WRITE        ACCESS:          0 HIT:          0 MISS:          0
cpu1_STLB TRANSLATION  ACCESS:          0 HIT:          0 MISS:          0
cpu1_STLB PREFETCH REQUESTED:          0 ISSUED:          0 USEFUL:          0 USELESS:          0
cpu1_STLB AVERAGE MISS LATENCY: 334 cycles
cpu1_STLB TOTAL        ACCESS:     126535 HIT:     107153 MISS:      19382
cpu1_STLB LOAD         ACCESS:     126535 HIT:     107153 MISS:      19382
cpu1_STLB RFO          ACCESS:          0 HIT:          0 MISS:          0
cpu1_STLB PREFETCH     ACCESS:          0 HIT:          0 MISS:          0
cpu1_STLB WRITE        ACCESS:          0 HIT:          0 MISS:          0
cpu1_STLB TRANSLATION  ACCESS:          0 HIT:          0 MISS:          0
cpu1_STLB PREFETCH REQUESTED:          0 ISSUED:          0 USEFUL:          0 USELESS:          0
cpu1_STLB AVERAGE MISS LATENCY: 334 cycles
cpu1_STLB TOTAL        ACCESS:          0 HIT:          0 MISS:          0
cpu1_STLB LOAD         ACCESS:          0 HIT:          0 MISS:          0
cpu1_STLB RFO          ACCESS:          0 HIT:          0 MISS:          0
cpu1_STLB PREFETCH     ACCESS:          0 HIT:          0 MISS:          0
cpu1_STLB WRITE        ACCESS:          0 HIT:          0 MISS:          0
cpu1_STLB TRANSLATION  ACCESS:          0 HIT:          0 MISS:          0
cpu1_STLB PREFETCH REQUESTED:          0 ISSUED:          0 USEFUL:          0 USELESS:          0
cpu1_STLB AVERAGE MISS LATENCY: 334 cycles
cpu1_STLB TOTAL        ACCESS:          0 HIT:          0 MISS:          0
cpu1_STLB LOAD         ACCESS:          0 HIT:          0 MISS:          0
cpu1_STLB RFO          ACCESS:          0 HIT:          0 MISS:          0
cpu1_STLB PREFETCH     ACCESS:          0 HIT:          0 MISS:          0
cpu1_STLB WRITE        ACCESS:          0 HIT:          0 MISS:          0
cpu1_STLB TRANSLATION  ACCESS:          0 HIT:          0 MISS:          0
cpu1_STLB PREFETCH REQUESTED:          0 ISSUED:          0 USEFUL:          0 USELESS:          0
cpu1_STLB AVERAGE MISS LATENCY: 334 cycles
cpu2_DTLB TOTAL        ACCESS:          0 HIT:          0 MISS:          0
cpu2_DTLB LOAD         ACCESS:          0 HIT:          0 MISS:          0
cpu2_DTLB RFO          ACCESS:          0 HIT:          0 MISS:          0
cpu2_DTLB PREFETCH     ACCESS:          0 HIT:          0 MISS:          0
cpu2_DTLB WRITE        ACCESS:          0 HIT:          0 MISS:          0
cpu2_DTLB TRANSLATION  ACCESS:          0 HIT:          0 MISS:          0
cpu2_DTLB PREFETCH REQUESTED:          0 ISSUED:          0 USEFUL:          0 USELESS:          0
cpu2_DTLB AVERAGE MISS LATENCY: 43.83 cycles
cpu2_DTLB TOTAL        ACCESS:          0 HIT:          0 MISS:          0
cpu2_DTLB LOAD         ACCESS:          0 HIT:          0 MISS:          0
cpu2_DTLB RFO          ACCESS:          0 HIT:          0 MISS:          0
cpu2_DTLB PREFETCH     ACCESS:          0 HIT:          0 MISS:          0
cpu2_DTLB WRITE        ACCESS:          0 HIT:          0 MISS:          0
cpu2_DTLB TRANSLATION  ACCESS:          0 HIT:          0 MISS:          0
cpu2_DTLB PREFETCH REQUESTED:          0 ISSUED:          0 USEFUL:          0 USELESS:          0
cpu2_DTLB AVERAGE MISS LATENCY: 43.83 cycles
cpu2_DTLB TOTAL        ACCESS:   25622268 HIT:   25400387 MISS:     221881
cpu2_DTLB LOAD         ACCESS:   25622268 HIT:   25400387 MISS:     221881
cpu2_DTLB RFO          ACCESS:          0 HIT:          0 MISS:          0
cpu2_DTLB PREFETCH     ACCESS:          0 HIT:          0 MISS:          0
cpu2_DTLB WRITE        ACCESS:          0 HIT:          0 MISS:          0
cpu2_DTLB TRANSLATION  ACCESS:          0 HIT:          0 MISS:          0
cpu2_DTLB PREFETCH REQUESTED:          0 ISSUED:          0 USEFUL:          0 USELESS:          0
cpu2_DTLB AVERAGE MISS LATENCY: 43.83 cycles
cpu2_DTLB TOTAL        ACCESS:          0 HIT:          0 MISS:          0
cpu2_DTLB LOAD         ACCESS:          0 HIT:          0 MISS:          0
cpu2_DTLB RFO          ACCESS:          0 HIT:          0 MISS:          0
cpu2_DTLB PREFETCH     ACCESS:          0 HIT:          0 MISS:          0
cpu2_DTLB WRITE        ACCESS:          0 HIT:          0 MISS:          0
cpu2_DTLB TRANSLATION  ACCESS:          0 HIT:          0 MISS:          0
cpu2_DTLB PREFETCH REQUESTED:          0 ISSUED:          0 USEFUL:          0 USELESS:          0
cpu2_DTLB AVERAGE MISS LATENCY: 43.83 cycles
cpu2_ITLB TOTAL        ACCESS:          0 HIT:          0 MISS:          0
cpu2_ITLB LOAD         ACCESS:          0 HIT:          0 MISS:          0
cpu2_ITLB RFO          ACCESS:          0 HIT:          0 MISS:          0
cpu2_ITLB PREFETCH     ACCESS:          0 HIT:          0 MISS:          0
cpu2_ITLB WRITE        ACCESS:          0 HIT:          0 MISS:          0
cpu2_ITLB TRANSLATION  ACCESS:          0 HIT:          0 MISS:          0
cpu2_ITLB PREFETCH REQUESTED:          0 ISSUED:          0 USEFUL:          0 USELESS:          0
cpu2_ITLB AVERAGE MISS LATENCY: 24.88 cycles
cpu2_ITLB TOTAL        ACCESS:          0 HIT:          0 MISS:          0
cpu2_ITLB LOAD         ACCESS:          0 HIT:          0 MISS:          0
cpu2_ITLB RFO          ACCESS:          0 HIT:          0 MISS:          0
cpu2_ITLB PREFETCH     ACCESS:          0 HIT:          0 MISS:          0
cpu2_ITLB WRITE        ACCESS:          0 HIT:          0 MISS:          0
cpu2_ITLB TRANSLATION  ACCESS:          0 HIT:          0 MISS:          0
cpu2_ITLB PREFETCH REQUESTED:          0 ISSUED:          0 USEFUL:          0 USELESS:          0
cpu2_ITLB AVERAGE MISS LATENCY: 24.88 cycles
cpu2_ITLB TOTAL        ACCESS:     379431 HIT:     370509 MISS:       8922
cpu2_ITLB LOAD         ACCESS:     379431 HIT:     370509 MISS:       8922
cpu2_ITLB RFO          ACCESS:          0 HIT:          0 MISS:          0
cpu2_ITLB PREFETCH     ACCESS:          0 HIT:          0 MISS:          0
cpu2_ITLB WRITE        ACCESS:          0 HIT:          0 MISS:          0
cpu2_ITLB TRANSLATION  ACCESS:          0 HIT:          0 MISS:          0
cpu2_ITLB PREFETCH REQUESTED:          0 ISSUED:          0 USEFUL:          0 USELESS:          0
cpu2_ITLB AVERAGE MISS LATENCY: 24.88 cycles
cpu2_ITLB TOTAL        ACCESS:          0 HIT:          0 MISS:          0
cpu2_ITLB LOAD         ACCESS:          0 HIT:          0 MISS:          0
cpu2_ITLB RFO          ACCESS:          0 HIT:          0 MISS:          0
cpu2_ITLB PREFETCH     ACCESS:          0 HIT:          0 MISS:          0
cpu2_ITLB WRITE        ACCESS:          0 HIT:          0 MISS:          0
cpu2_ITLB TRANSLATION  ACCESS:          0 HIT:          0 MISS:          0
cpu2_ITLB PREFETCH REQUESTED:          0 ISSUED:          0 USEFUL:          0 USELESS:          0
cpu2_ITLB AVERAGE MISS LATENCY: 24.88 cycles
cpu2_L1D TOTAL        ACCESS:          0 HIT:          0 MISS:          0
cpu2_L1D LOAD         ACCESS:          0 HIT:          0 MISS:          0
cpu2_L1D RFO          ACCESS:          0 HIT:          0 MISS:          0
cpu2_L1D PREFETCH     ACCESS:          0 HIT:          0 MISS:          0
cpu2_L1D WRITE        ACCESS:          0 HIT:          0 MISS:          0
cpu2_L1D TRANSLATION  ACCESS:          0 HIT:          0 MISS:          0
cpu2_L1D PREFETCH REQUESTED:          0 ISSUED:          0 USEFUL:          0 USELESS:          0
cpu2_L1D AVERAGE MISS LATENCY: 218 cycles
cpu2_L1D TOTAL        ACCESS:          0 HIT:          0 MISS:          0
cpu2_L1D LOAD         ACCESS:          0 HIT:          0 MISS:          0
cpu2_L1D RFO          ACCESS:          0 HIT:          0 MISS:          0
cpu2_L1D PREFETCH     ACCESS:          0 HIT:          0 MISS:          0
cpu2_L1D WRITE        ACCESS:          0 HIT:          0 MISS:          0
cpu2_L1D TRANSLATION  ACCESS:          0 HIT:          0 MISS:          0
cpu2_L1D PREFETCH REQUESTED:          0 ISSUED:          0 USEFUL:          0 USELESS:          0
cpu2_L1D AVERAGE MISS LATENCY: 218 cycles
cpu2_L1D TOTAL        ACCESS:   31298558 HIT:   24662403 MISS:    6636155
cpu2_L1D LOAD         ACCESS:   18694817 HIT:   15770837 MISS:    2923980
cpu2_L1D RFO          ACCESS:          0 HIT:          0 MISS:          0
cpu2_L1D PREFETCH     ACCESS:          0 HIT:          0 MISS:          0
cpu2_L1D WRITE        ACCESS:   12592811 HIT:    8889108 MISS:    3703703
cpu2_L1D TRANSLATION  ACCESS:      10930 HIT:       2458 MISS:       8472
cpu2_L1D PREFETCH REQUESTED:          0 ISSUED:          0 USEFUL:          0 USELESS:          0
cpu2_L1D AVERAGE MISS LATENCY: 218 cycles
cpu2_L1D TOTAL        ACCESS:          0 HIT:          0 MISS:          0
cpu2_L1D LOAD         ACCESS:          0 HIT:          0 MISS:          0
cpu2_L1D RFO          ACCESS:          0 HIT:          0 MISS:          0
cpu2_L1D PREFETCH     ACCESS:          0 HIT:          0 MISS:          0
cpu2_L1D WRITE        ACCESS:          0 HIT:          0 MISS:          0
cpu2_L1D TRANSLATION  ACCESS:          0 HIT:          0 MISS:          0
cpu2_L1D PREFETCH REQUESTED:          0 ISSUED:          0 USEFUL:          0 USELESS:          0
cpu2_L1D AVERAGE MISS LATENCY: 218 cycles
cpu2_L1I TOTAL        ACCESS:          0 HIT:          0 MISS:          0
cpu2_L1I LOAD         ACCESS:          0 HIT:          0 MISS:          0
cpu2_L1I RFO          ACCESS:          0 HIT:          0 MISS:          0
cpu2_L1I PREFETCH     ACCESS:          0 HIT:          0 MISS:          0
cpu2_L1I WRITE        ACCESS:          0 HIT:          0 MISS:          0
cpu2_L1I TRANSLATION  ACCESS:          0 HIT:          0 MISS:          0
cpu2_L1I PREFETCH REQUESTED:          0 ISSUED:          0 USEFUL:          0 USELESS:          0
cpu2_L1I AVERAGE MISS LATENCY: 86.28 cycles
cpu2_L1I TOTAL        ACCESS:          0 HIT:          0 MISS:          0
cpu2_L1I LOAD         ACCESS:          0 HIT:          0 MISS:          0
cpu2_L1I RFO          ACCESS:          0 HIT:          0 MISS:          0
cpu2_L1I PREFETCH     ACCESS:          0 HIT:          0 MISS:          0
cpu2_L1I WRITE        ACCESS:          0 HIT:          0 MISS:          0
cpu2_L1I TRANSLATION  ACCESS:          0 HIT:          0 MISS:          0
cpu2_L1I PREFETCH REQUESTED:          0 ISSUED:          0 USEFUL:          0 USELESS:          0
cpu2_L1I AVERAGE MISS LATENCY: 86.28 cycles
cpu2_L1I TOTAL        ACCESS:     463360 HIT:     311307 MISS:     152053
cpu2_L1I LOAD         ACCESS:     463360 HIT:     311307 MISS:     152053
cpu2_L1I RFO          ACCESS:          0 HIT:          0 MISS:          0
cpu2_L1I PREFETCH     ACCESS:          0 HIT:          0 MISS:          0
cpu2_L1I WRITE        ACCESS:          0 HIT:          0 MISS:          0
cpu2_L1I TRANSLATION  ACCESS:          0 HIT:          0 MISS:          0
cpu2_L1I PREFETCH REQUESTED:          0 ISSUED:          0 USEFUL:          0 USELESS:          0
cpu2_L1I AVERAGE MISS LATENCY: 86.28 cycles
cpu2_L1I TOTAL        ACCESS:          0 HIT:          0 MISS:          0
cpu2_L1I LOAD         ACCESS:          0 HIT:          0 MISS:          0
cpu2_L1I RFO          ACCESS:          0 HIT:          0 MISS:          0
cpu2_L1I PREFETCH     ACCESS:          0 HIT:          0 MISS:          0
cpu2_L1I WRITE        ACCESS:          0 HIT:          0 MISS:          0
cpu2_L1I TRANSLATION  ACCESS:          0 HIT:          0 MISS:          0
cpu2_L1I PREFETCH REQUESTED:          0 ISSUED:          0 USEFUL:          0 USELESS:          0
cpu2_L1I AVERAGE MISS LATENCY: 86.28 cycles
cpu2_L2C TOTAL        ACCESS:          0 HIT:          0 MISS:          0
cpu2_L2C LOAD         ACCESS:          0 HIT:          0 MISS:          0
cpu2_L2C RFO          ACCESS:          0 HIT:          0 MISS:          0
cpu2_L2C PREFETCH     ACCESS:          0 HIT:          0 MISS:          0
cpu2_L2C WRITE        ACCESS:          0 HIT:          0 MISS:          0
cpu2_L2C TRANSLATION  ACCESS:          0 HIT:          0 MISS:          0
cpu2_L2C PREFETCH REQUESTED:    7698347 ISSUED:    6983033 USEFUL:     195015 USELESS:       6108
cpu2_L2C AVERAGE MISS LATENCY: 373.8 cycles
cpu2_L2C TOTAL        ACCESS:          0 HIT:          0 MISS:          0
cpu2_L2C LOAD         ACCESS:          0 HIT:          0 MISS:          0
cpu2_L2C RFO          ACCESS:          0 HIT:          0 MISS:          0
cpu2_L2C PREFETCH     ACCESS:          0 HIT:          0 MISS:          0
cpu2_L2C WRITE        ACCESS:          0 HIT:          0 MISS:          0
cpu2_L2C TRANSLATION  ACCESS:          0 HIT:          0 MISS:          0
cpu2_L2C PREFETCH REQUESTED:    7698347 ISSUED:    6983033 USEFUL:     195015 USELESS:       6108
cpu2_L2C AVERAGE MISS LATENCY: 373.8 cycles
cpu2_L2C TOTAL        ACCESS:   10980582 HIT:    6724499 MISS:    4256083
cpu2_L2C LOAD         ACCESS:    1843355 HIT:    1138007 MISS:     705348
cpu2_L2C RFO          ACCESS:     914499 HIT:     539491 MISS:     375008
cpu2_L2C PREFETCH     ACCESS:    6983036 HIT:    3813271 MISS:    3169765
cpu2_L2C WRITE        ACCESS:    1231367 HIT:    1230797 MISS:        570
cpu2_L2C TRANSLATION  ACCESS:       8325 HIT:       2933 MISS:       5392
cpu2_L2C PREFETCH REQUESTED:    7698347 ISSUED:    6983033 USEFUL:     195015 USELESS:       6108
cpu2_L2C AVERAGE MISS LATENCY: 373.8 cycles
cpu2_L2C TOTAL        ACCESS:          0 HIT:          0 MISS:          0
cpu2_L2C LOAD         ACCESS:          0 HIT:          0 MISS:          0
cpu2_L2C RFO          ACCESS:          0 HIT:          0 MISS:          0
cpu2_L2C PREFETCH     ACCESS:          0 HIT:          0 MISS:          0
cpu2_L2C WRITE        ACCESS:          0 HIT:          0 MISS:          0
cpu2_L2C TRANSLATION  ACCESS:          0 HIT:          0 MISS:          0
cpu2_L2C PREFETCH REQUESTED:    7698347 ISSUED:    6983033 USEFUL:     195015 USELESS:       6108
cpu2_L2C AVERAGE MISS LATENCY: 373.8 cycles
cpu2_STLB TOTAL        ACCESS:          0 HIT:          0 MISS:          0
cpu2_STLB LOAD         ACCESS:          0 HIT:          0 MISS:          0
cpu2_STLB RFO          ACCESS:          0 HIT:          0 MISS:          0
cpu2_STLB PREFETCH     ACCESS:          0 HIT:          0 MISS:          0
cpu2_STLB WRITE        ACCESS:          0 HIT:          0 MISS:          0
cpu2_STLB TRANSLATION  ACCESS:          0 HIT:          0 MISS:          0
cpu2_STLB PREFETCH REQUESTED:          0 ISSUED:          0 USEFUL:          0 USELESS:          0
cpu2_STLB AVERAGE MISS LATENCY: 1255 cycles
cpu2_STLB TOTAL        ACCESS:          0 HIT:          0 MISS:          0
cpu2_STLB LOAD         ACCESS:          0 HIT:          0 MISS:          0
cpu2_STLB RFO          ACCESS:          0 HIT:          0 MISS:          0
cpu2_STLB PREFETCH     ACCESS:          0 HIT:          0 MISS:          0
cpu2_STLB WRITE        ACCESS:          0 HIT:          0 MISS:          0
cpu2_STLB TRANSLATION  ACCESS:          0 HIT:          0 MISS:          0
cpu2_STLB PREFETCH REQUESTED:          0 ISSUED:          0 USEFUL:          0 USELESS:          0
cpu2_STLB AVERAGE MISS LATENCY: 1255 cycles
cpu2_STLB TOTAL        ACCESS:      88400 HIT:      79023 MISS:       9377
cpu2_STLB LOAD         ACCESS:      88400 HIT:      79023 MISS:       9377
cpu2_STLB RFO          ACCESS:          0 HIT:          0 MISS:          0
cpu2_STLB PREFETCH     ACCESS:          0 HIT:          0 MISS:          0
cpu2_STLB WRITE        ACCESS:          0 HIT:          0 MISS:          0
cpu2_STLB TRANSLATION  ACCESS:          0 HIT:          0 MISS:          0
cpu2_STLB PREFETCH REQUESTED:          0 ISSUED:          0 USEFUL:          0 USELESS:          0
cpu2_STLB AVERAGE MISS LATENCY: 1255 cycles
cpu2_STLB TOTAL        ACCESS:          0 HIT:          0 MISS:          0
cpu2_STLB LOAD         ACCESS:          0 HIT:          0 MISS:          0
cpu2_STLB RFO          ACCESS:          0 HIT:          0 MISS:          0
cpu2_STLB PREFETCH     ACCESS:          0 HIT:          0 MISS:          0
cpu2_STLB WRITE        ACCESS:          0 HIT:          0 MISS:          0
cpu2_STLB TRANSLATION  ACCESS:          0 HIT:          0 MISS:          0
cpu2_STLB PREFETCH REQUESTED:          0 ISSUED:          0 USEFUL:          0 USELESS:          0
cpu2_STLB AVERAGE MISS LATENCY: 1255 cycles
cpu3_DTLB TOTAL        ACCESS:          0 HIT:          0 MISS:          0
cpu3_DTLB LOAD         ACCESS:          0 HIT:          0 MISS:          0
cpu3_DTLB RFO          ACCESS:          0 HIT:          0 MISS:          0
cpu3_DTLB PREFETCH     ACCESS:          0 HIT:          0 MISS:          0
cpu3_DTLB WRITE        ACCESS:          0 HIT:          0 MISS:          0
cpu3_DTLB TRANSLATION  ACCESS:          0 HIT:          0 MISS:          0
cpu3_DTLB PREFETCH REQUESTED:          0 ISSUED:          0 USEFUL:          0 USELESS:          0
cpu3_DTLB AVERAGE MISS LATENCY: 15.09 cycles
cpu3_DTLB TOTAL        ACCESS:          0 HIT:          0 MISS:          0
cpu3_DTLB LOAD         ACCESS:          0 HIT:          0 MISS:          0
cpu3_DTLB RFO          ACCESS:          0 HIT:          0 MISS:          0
cpu3_DTLB PREFETCH     ACCESS:          0 HIT:          0 MISS:          0
cpu3_DTLB WRITE        ACCESS:          0 HIT:          0 MISS:          0
cpu3_DTLB TRANSLATION  ACCESS:          0 HIT:          0 MISS:          0
cpu3_DTLB PREFETCH REQUESTED:          0 ISSUED:          0 USEFUL:          0 USELESS:          0
cpu3_DTLB AVERAGE MISS LATENCY: 15.09 cycles
cpu3_DTLB TOTAL        ACCESS:          0 HIT:          0 MISS:          0
cpu3_DTLB LOAD         ACCESS:          0 HIT:          0 MISS:          0
cpu3_DTLB RFO          ACCESS:          0 HIT:          0 MISS:          0
cpu3_DTLB PREFETCH     ACCESS:          0 HIT:          0 MISS:          0
cpu3_DTLB WRITE        ACCESS:          0 HIT:          0 MISS:          0
cpu3_DTLB TRANSLATION  ACCESS:          0 HIT:          0 MISS:          0
cpu3_DTLB PREFETCH REQUESTED:          0 ISSUED:          0 USEFUL:          0 USELESS:          0
cpu3_DTLB AVERAGE MISS LATENCY: 15.09 cycles
cpu3_DTLB TOTAL        ACCESS:   51632498 HIT:   51263731 MISS:     368767
cpu3_DTLB LOAD         ACCESS:   51632498 HIT:   51263731 MISS:     368767
cpu3_DTLB RFO          ACCESS:          0 HIT:          0 MISS:          0
cpu3_DTLB PREFETCH     ACCESS:          0 HIT:          0 MISS:          0
cpu3_DTLB WRITE        ACCESS:          0 HIT:          0 MISS:          0
cpu3_DTLB TRANSLATION  ACCESS:          0 HIT:          0 MISS:          0
cpu3_DTLB PREFETCH REQUESTED:          0 ISSUED:          0 USEFUL:          0 USELESS:          0
cpu3_DTLB AVERAGE MISS LATENCY: 15.09 cycles
cpu3_ITLB TOTAL        ACCESS:          0 HIT:          0 MISS:          0
cpu3_ITLB LOAD         ACCESS:          0 HIT:          0 MISS:          0
cpu3_ITLB RFO          ACCESS:          0 HIT:          0 MISS:          0
cpu3_ITLB PREFETCH     ACCESS:          0 HIT:          0 MISS:          0
cpu3_ITLB WRITE        ACCESS:          0 HIT:          0 MISS:          0
cpu3_ITLB TRANSLATION  ACCESS:          0 HIT:          0 MISS:          0
cpu3_ITLB PREFETCH REQUESTED:          0 ISSUED:          0 USEFUL:          0 USELESS:          0
cpu3_ITLB AVERAGE MISS LATENCY: 1436 cycles
cpu3_ITLB TOTAL        ACCESS:          0 HIT:          0 MISS:          0
cpu3_ITLB LOAD         ACCESS:          0 HIT:          0 MISS:          0
cpu3_ITLB RFO          ACCESS:          0 HIT:          0 MISS:          0
cpu3_ITLB PREFETCH     ACCESS:          0 HIT:          0 MISS:          0
cpu3_ITLB WRITE        ACCESS:          0 HIT:          0 MISS:          0
cpu3_ITLB TRANSLATION  ACCESS:          0 HIT:          0 MISS:          0
cpu3_ITLB PREFETCH REQUESTED:          0 ISSUED:          0 USEFUL:          0 USELESS:          0
cpu3_ITLB AVERAGE MISS LATENCY: 1436 cycles
cpu3_ITLB TOTAL        ACCESS:          0 HIT:          0 MISS:          0
cpu3_ITLB LOAD         ACCESS:          0 HIT:          0 MISS:          0
cpu3_ITLB RFO          ACCESS:          0 HIT:          0 MISS:          0
cpu3_ITLB PREFETCH     ACCESS:          0 HIT:          0 MISS:          0
cpu3_ITLB WRITE        ACCESS:          0 HIT:          0 MISS:          0
cpu3_ITLB TRANSLATION  ACCESS:          0 HIT:          0 MISS:          0
cpu3_ITLB PREFETCH REQUESTED:          0 ISSUED:          0 USEFUL:          0 USELESS:          0
cpu3_ITLB AVERAGE MISS LATENCY: 1436 cycles
cpu3_ITLB TOTAL        ACCESS:    3134554 HIT:    3134421 MISS:        133
cpu3_ITLB LOAD         ACCESS:    3134554 HIT:    3134421 MISS:        133
cpu3_ITLB RFO          ACCESS:          0 HIT:          0 MISS:          0
cpu3_ITLB PREFETCH     ACCESS:          0 HIT:          0 MISS:          0
cpu3_ITLB WRITE        ACCESS:          0 HIT:          0 MISS:          0
cpu3_ITLB TRANSLATION  ACCESS:          0 HIT:          0 MISS:          0
cpu3_ITLB PREFETCH REQUESTED:          0 ISSUED:          0 USEFUL:          0 USELESS:          0
cpu3_ITLB AVERAGE MISS LATENCY: 1436 cycles
cpu3_L1D TOTAL        ACCESS:          0 HIT:          0 MISS:          0
cpu3_L1D LOAD         ACCESS:          0 HIT:          0 MISS:          0
cpu3_L1D RFO          ACCESS:          0 HIT:          0 MISS:          0
cpu3_L1D PREFETCH     ACCESS:          0 HIT:          0 MISS:          0
cpu3_L1D WRITE        ACCESS:          0 HIT:          0 MISS:          0
cpu3_L1D TRANSLATION  ACCESS:          0 HIT:          0 MISS:          0
cpu3_L1D PREFETCH REQUESTED:          0 ISSUED:          0 USEFUL:          0 USELESS:          0
cpu3_L1D AVERAGE MISS LATENCY: 314.4 cycles
cpu3_L1D TOTAL        ACCESS:          0 HIT:          0 MISS:          0
cpu3_L1D LOAD         ACCESS:          0 HIT:          0 MISS:          0
cpu3_L1D RFO          ACCESS:          0 HIT:          0 MISS:          0
cpu3_L1D PREFETCH     ACCESS:          0 HIT:          0 MISS:          0
cpu3_L1D WRITE        ACCESS:          0 HIT:          0 MISS:          0
cpu3_L1D TRANSLATION  ACCESS:          0 HIT:          0 MISS:          0
cpu3_L1D PREFETCH REQUESTED:          0 ISSUED:          0 USEFUL:          0 USELESS:          0
cpu3_L1D AVERAGE MISS LATENCY: 314.4 cycles
cpu3_L1D TOTAL        ACCESS:          0 HIT:          0 MISS:          0
cpu3_L1D LOAD         ACCESS:          0 HIT:          0 MISS:          0
cpu3_L1D RFO          ACCESS:          0 HIT:          0 MISS:          0
cpu3_L1D PREFETCH     ACCESS:          0 HIT:          0 MISS:          0
cpu3_L1D WRITE        ACCESS:          0 HIT:          0 MISS:          0
cpu3_L1D TRANSLATION  ACCESS:          0 HIT:          0 MISS:          0
cpu3_L1D PREFETCH REQUESTED:          0 ISSUED:          0 USEFUL:          0 USELESS:          0
cpu3_L1D AVERAGE MISS LATENCY: 314.4 cycles
cpu3_L1D TOTAL        ACCESS:   64397171 HIT:   61883022 MISS:    2514149
cpu3_L1D LOAD         ACCESS:   41923648 HIT:   41225657 MISS:     697991
cpu3_L1D RFO          ACCESS:          0 HIT:          0 MISS:          0
cpu3_L1D PREFETCH     ACCESS:          0 HIT:          0 MISS:          0
cpu3_L1D WRITE        ACCESS:   22469513 HIT:   20656081 MISS:    1813432
cpu3_L1D TRANSLATION  ACCESS:       4010 HIT:       1284 MISS:       2726
cpu3_L1D PREFETCH REQUESTED:          0 ISSUED:          0 USEFUL:          0 USELESS:          0
cpu3_L1D AVERAGE MISS LATENCY: 314.4 cycles
cpu3_L1I TOTAL        ACCESS:          0 HIT:          0 MISS:          0
cpu3_L1I LOAD         ACCESS:          0 HIT:          0 MISS:          0
cpu3_L1I RFO          ACCESS:          0 HIT:          0 MISS:          0
cpu3_L1I PREFETCH     ACCESS:          0 HIT:          0 MISS:          0
cpu3_L1I WRITE        ACCESS:          0 HIT:          0 MISS:          0
cpu3_L1I TRANSLATION  ACCESS:          0 HIT:          0 MISS:          0
cpu3_L1I PREFETCH REQUESTED:          0 ISSUED:          0 USEFUL:          0 USELESS:          0
cpu3_L1I AVERAGE MISS LATENCY: 14.59 cycles
cpu3_L1I TOTAL        ACCESS:          0 HIT:          0 MISS:          0
cpu3_L1I LOAD         ACCESS:          0 HIT:          0 MISS:          0
cpu3_L1I RFO          ACCESS:          0 HIT:          0 MISS:          0
cpu3_L1I PREFETCH     ACCESS:          0 HIT:          0 MISS:          0
cpu3_L1I WRITE        ACCESS:          0 HIT:          0 MISS:          0
cpu3_L1I TRANSLATION  ACCESS:          0 HIT:          0 MISS:          0
cpu3_L1I PREFETCH REQUESTED:          0 ISSUED:          0 USEFUL:          0 USELESS:          0
cpu3_L1I AVERAGE MISS LATENCY: 14.59 cycles
cpu3_L1I TOTAL        ACCESS:          0 HIT:          0 MISS:          0
cpu3_L1I LOAD         ACCESS:          0 HIT:          0 MISS:          0
cpu3_L1I RFO          ACCESS:          0 HIT:          0 MISS:          0
cpu3_L1I PREFETCH     ACCESS:          0 HIT:          0 MISS:          0
cpu3_L1I WRITE        ACCESS:          0 HIT:          0 MISS:          0
cpu3_L1I TRANSLATION  ACCESS:          0 HIT:          0 MISS:          0
cpu3_L1I PREFETCH REQUESTED:          0 ISSUED:          0 USEFUL:          0 USELESS:          0
cpu3_L1I AVERAGE MISS LATENCY: 14.59 cycles
cpu3_L1I TOTAL        ACCESS:    3884843 HIT:    3106060 MISS:     778783
cpu3_L1I LOAD         ACCESS:    3884843 HIT:    3106060 MISS:     778783
cpu3_L1I RFO          ACCESS:          0 HIT:          0 MISS:          0
cpu3_L1I PREFETCH     ACCESS:          0 HIT:          0 MISS:          0
cpu3_L1I WRITE        ACCESS:          0 HIT:          0 MISS:          0
cpu3_L1I TRANSLATION  ACCESS:          0 HIT:          0 MISS:          0
cpu3_L1I PREFETCH REQUESTED:          0 ISSUED:          0 USEFUL:          0 USELESS:          0
cpu3_L1I AVERAGE MISS LATENCY: 14.59 cycles
cpu3_L2C TOTAL        ACCESS:          0 HIT:          0 MISS:          0
cpu3_L2C LOAD         ACCESS:          0 HIT:          0 MISS:          0
cpu3_L2C RFO          ACCESS:          0 HIT:          0 MISS:          0
cpu3_L2C PREFETCH     ACCESS:          0 HIT:          0 MISS:          0
cpu3_L2C WRITE        ACCESS:          0 HIT:          0 MISS:          0
cpu3_L2C TRANSLATION  ACCESS:          0 HIT:          0 MISS:          0
cpu3_L2C PREFETCH REQUESTED:    3688240 ISSUED:    3541596 USEFUL:      27197 USELESS:        910
cpu3_L2C AVERAGE MISS LATENCY: 1261 cycles
cpu3_L2C TOTAL        ACCESS:          0 HIT:          0 MISS:          0
cpu3_L2C LOAD         ACCESS:          0 HIT:          0 MISS:          0
cpu3_L2C RFO          ACCESS:          0 HIT:          0 MISS:          0
cpu3_L2C PREFETCH     ACCESS:          0 HIT:          0 MISS:          0
cpu3_L2C WRITE        ACCESS:          0 HIT:          0 MISS:          0
cpu3_L2C TRANSLATION  ACCESS:          0 HIT:          0 MISS:          0
cpu3_L2C PREFETCH REQUESTED:    3688240 ISSUED:    3541596 USEFUL:      27197 USELESS:        910
cpu3_L2C AVERAGE MISS LATENCY: 1261 cycles
cpu3_L2C TOTAL        ACCESS:          0 HIT:          0 MISS:          0
cpu3_L2C LOAD         ACCESS:          0 HIT:          0 MISS:          0
cpu3_L2C RFO          ACCESS:          0 HIT:          0 MISS:          0
cpu3_L2C PREFETCH     ACCESS:          0 HIT:          0 MISS:          0
cpu3_L2C WRITE        ACCESS:          0 HIT:          0 MISS:          0
cpu3_L2C TRANSLATION  ACCESS:          0 HIT:          0 MISS:          0
cpu3_L2C PREFETCH REQUESTED:    3688240 ISSUED:    3541596 USEFUL:      27197 USELESS:        910
cpu3_L2C AVERAGE MISS LATENCY: 1261 cycles
cpu3_L2C TOTAL        ACCESS:    5656503 HIT:    4881897 MISS:     774606
cpu3_L2C LOAD         ACCESS:    1070814 HIT:     970145 MISS:     100669
cpu3_L2C RFO          ACCESS:     480382 HIT:     298265 MISS:     182117
cpu3_L2C PREFETCH     ACCESS:    3541596 HIT:    3051125 MISS:     490471
cpu3_L2C WRITE        ACCESS:     561397 HIT:     561163 MISS:        234
cpu3_L2C TRANSLATION  ACCESS:       2314 HIT:       1199 MISS:       1115
cpu3_L2C PREFETCH REQUESTED:    3688240 ISSUED:    3541596 USEFUL:      27197 USELESS:        910
cpu3_L2C AVERAGE MISS LATENCY: 1261 cycles
cpu3_STLB TOTAL        ACCESS:          0 HIT:          0 MISS:          0
cpu3_STLB LOAD         ACCESS:          0 HIT:          0 MISS:          0
cpu3_STLB RFO          ACCESS:          0 HIT:          0 MISS:          0
cpu3_STLB PREFETCH     ACCESS:          0 HIT:          0 MISS:          0
cpu3_STLB WRITE        ACCESS:          0 HIT:          0 MISS:          0
cpu3_STLB TRANSLATION  ACCESS:          0 HIT:          0 MISS:          0
cpu3_STLB PREFETCH REQUESTED:          0 ISSUED:          0 USEFUL:          0 USELESS:          0
cpu3_STLB AVERAGE MISS LATENCY: 1183 cycles
cpu3_STLB TOTAL        ACCESS:          0 HIT:          0 MISS:          0
cpu3_STLB LOAD         ACCESS:          0 HIT:          0 MISS:          0
cpu3_STLB RFO          ACCESS:          0 HIT:          0 MISS:          0
cpu3_STLB PREFETCH     ACCESS:          0 HIT:          0 MISS:          0
cpu3_STLB WRITE        ACCESS:          0 HIT:          0 MISS:          0
cpu3_STLB TRANSLATION  ACCESS:          0 HIT:          0 MISS:          0
cpu3_STLB PREFETCH REQUESTED:          0 ISSUED:          0 USEFUL:          0 USELESS:          0
cpu3_STLB AVERAGE MISS LATENCY: 1183 cycles
cpu3_STLB TOTAL        ACCESS:          0 HIT:          0 MISS:          0
cpu3_STLB LOAD         ACCESS:          0 HIT:          0 MISS:          0
cpu3_STLB RFO          ACCESS:          0 HIT:          0 MISS:          0
cpu3_STLB PREFETCH     ACCESS:          0 HIT:          0 MISS:          0
cpu3_STLB WRITE        ACCESS:          0 HIT:          0 MISS:          0
cpu3_STLB TRANSLATION  ACCESS:          0 HIT:          0 MISS:          0
cpu3_STLB PREFETCH REQUESTED:          0 ISSUED:          0 USEFUL:          0 USELESS:          0
cpu3_STLB AVERAGE MISS LATENCY: 1183 cycles
cpu3_STLB TOTAL        ACCESS:     303877 HIT:     299868 MISS:       4009
cpu3_STLB LOAD         ACCESS:     303877 HIT:     299868 MISS:       4009
cpu3_STLB RFO          ACCESS:          0 HIT:          0 MISS:          0
cpu3_STLB PREFETCH     ACCESS:          0 HIT:          0 MISS:          0
cpu3_STLB WRITE        ACCESS:          0 HIT:          0 MISS:          0
[...]
cpu2_L1I WRITE        ACCESS:          0 HIT:          0 MISS:          0
cpu2_L1I TRANSLATION  ACCESS:          0 HIT:          0 MISS:          0
cpu2_L1I PREFETCH REQUESTED:          0 ISSUED:          0 USEFUL:          0 USELESS:          0
cpu2_L1I AVERAGE MISS LATENCY: 86.28 cycles
cpu2_L1I TOTAL        ACCESS:          0 HIT:          0 MISS:          0
cpu2_L1I LOAD         ACCESS:          0 HIT:          0 MISS:          0
cpu2_L1I RFO          ACCESS:          0 HIT:          0 MISS:          0
cpu2_L1I PREFETCH     ACCESS:          0 HIT:          0 MISS:          0
cpu2_L1I WRITE        ACCESS:          0 HIT:          0 MISS:          0
cpu2_L1I TRANSLATION  ACCESS:          0 HIT:          0 MISS:          0
cpu2_L1I PREFETCH REQUESTED:          0 ISSUED:          0 USEFUL:          0 USELESS:          0
cpu2_L1I AVERAGE MISS LATENCY: 86.28 cycles
cpu2_L2C TOTAL        ACCESS:          0 HIT:          0 MISS:          0
cpu2_L2C LOAD         ACCESS:          0 HIT:          0 MISS:          0
cpu2_L2C RFO          ACCESS:          0 HIT:          0 MISS:          0
cpu2_L2C PREFETCH     ACCESS:          0 HIT:          0 MISS:          0
cpu2_L2C WRITE        ACCESS:          0 HIT:          0 MISS:          0
cpu2_L2C TRANSLATION  ACCESS:          0 HIT:          0 MISS:          0
cpu2_L2C PREFETCH REQUESTED:    7698347 ISSUED:    6983033 USEFUL:     195015 USELESS:       6108
cpu2_L2C AVERAGE MISS LATENCY: 373.8 cycles
cpu2_L2C TOTAL        ACCESS:          0 HIT:          0 MISS:          0
cpu2_L2C LOAD         ACCESS:          0 HIT:          0 MISS:          0
cpu2_L2C RFO          ACCESS:          0 HIT:          0 MISS:          0
cpu2_L2C PREFETCH     ACCESS:          0 HIT:          0 MISS:          0
cpu2_L2C WRITE        ACCESS:          0 HIT:          0 MISS:          0
cpu2_L2C TRANSLATION  ACCESS:          0 HIT:          0 MISS:          0
cpu2_L2C PREFETCH REQUESTED:    7698347 ISSUED:    6983033 USEFUL:     195015 USELESS:       6108
cpu2_L2C AVERAGE MISS LATENCY: 373.8 cycles
cpu2_L2C TOTAL        ACCESS:    7915850 HIT:    4856965 MISS:    3058885
cpu2_L2C LOAD         ACCESS:    1327955 HIT:     818692 MISS:     509263
cpu2_L2C RFO          ACCESS:     718811 HIT:     413862 MISS:     304949
cpu2_L2C PREFETCH     ACCESS:    4920338 HIT:    2679966 MISS:    2240372
cpu2_L2C WRITE        ACCESS:     942805 HIT:     942299 MISS:        506
cpu2_L2C TRANSLATION  ACCESS:       5941 HIT:       2146 MISS:       3795
cpu2_L2C PREFETCH REQUESTED:    7698347 ISSUED:    6983033 USEFUL:     195015 USELESS:       6108
cpu2_L2C AVERAGE MISS LATENCY: 373.8 cycles
cpu2_L2C TOTAL        ACCESS:          0 HIT:          0 MISS:          0
cpu2_L2C LOAD         ACCESS:          0 HIT:          0 MISS:          0
cpu2_L2C RFO          ACCESS:          0 HIT:          0 MISS:          0
cpu2_L2C PREFETCH     ACCESS:          0 HIT:          0 MISS:          0
cpu2_L2C WRITE        ACCESS:          0 HIT:          0 MISS:          0
cpu2_L2C TRANSLATION  ACCESS:          0 HIT:          0 MISS:          0
cpu2_L2C PREFETCH REQUESTED:    7698347 ISSUED:    6983033 USEFUL:     195015 USELESS:       6108
cpu2_L2C AVERAGE MISS LATENCY: 373.8 cycles
cpu2_STLB TOTAL        ACCESS:          0 HIT:          0 MISS:          0
cpu2_STLB LOAD         ACCESS:          0 HIT:          0 MISS:          0
cpu2_STLB RFO          ACCESS:          0 HIT:          0 MISS:          0
cpu2_STLB PREFETCH     ACCESS:          0 HIT:          0 MISS:          0
cpu2_STLB WRITE        ACCESS:          0 HIT:          0 MISS:          0
cpu2_STLB TRANSLATION  ACCESS:          0 HIT:          0 MISS:          0
cpu2_STLB PREFETCH REQUESTED:          0 ISSUED:          0 USEFUL:          0 USELESS:          0
cpu2_STLB AVERAGE MISS LATENCY: 1255 cycles
cpu2_STLB TOTAL        ACCESS:          0 HIT:          0 MISS:          0
cpu2_STLB LOAD         ACCESS:          0 HIT:          0 MISS:          0
cpu2_STLB RFO          ACCESS:          0 HIT:          0 MISS:          0
cpu2_STLB PREFETCH     ACCESS:          0 HIT:          0 MISS:          0
cpu2_STLB WRITE        ACCESS:          0 HIT:          0 MISS:          0
cpu2_STLB TRANSLATION  ACCESS:          0 HIT:          0 MISS:          0
cpu2_STLB PREFETCH REQUESTED:          0 ISSUED:          0 USEFUL:          0 USELESS:          0
cpu2_STLB AVERAGE MISS LATENCY: 1255 cycles
cpu2_STLB TOTAL        ACCESS:      63858 HIT:      56615 MISS:       7243
cpu2_STLB LOAD         ACCESS:      63858 HIT:      56615 MISS:       7243
cpu2_STLB RFO          ACCESS:          0 HIT:          0 MISS:          0
cpu2_STLB PREFETCH     ACCESS:          0 HIT:          0 MISS:          0
cpu2_STLB WRITE        ACCESS:          0 HIT:          0 MISS:          0
cpu2_STLB TRANSLATION  ACCESS:          0 HIT:          0 MISS:          0
cpu2_STLB PREFETCH REQUESTED:          0 ISSUED:          0 USEFUL:          0 USELESS:          0
cpu2_STLB AVERAGE MISS LATENCY: 1255 cycles
cpu2_STLB TOTAL        ACCESS:          0 HIT:          0 MISS:          0
cpu2_STLB LOAD         ACCESS:          0 HIT:          0 MISS:          0
cpu2_STLB RFO          ACCESS:          0 HIT:          0 MISS:          0
cpu2_STLB PREFETCH     ACCESS:          0 HIT:          0 MISS:          0
cpu2_STLB WRITE        ACCESS:          0 HIT:          0 MISS:          0
cpu2_STLB TRANSLATION  ACCESS:          0 HIT:          0 MISS:          0
cpu2_STLB PREFETCH REQUESTED:          0 ISSUED:          0 USEFUL:          0 USELESS:          0
cpu2_STLB AVERAGE MISS LATENCY: 1255 cycles
cpu3_DTLB TOTAL        ACCESS:          0 HIT:          0 MISS:          0
cpu3_DTLB LOAD         ACCESS:          0 HIT:          0 MISS:          0
cpu3_DTLB RFO          ACCESS:          0 HIT:          0 MISS:          0
cpu3_DTLB PREFETCH     ACCESS:          0 HIT:          0 MISS:          0
cpu3_DTLB WRITE        ACCESS:          0 HIT:          0 MISS:          0
cpu3_DTLB TRANSLATION  ACCESS:          0 HIT:          0 MISS:          0
cpu3_DTLB PREFETCH REQUESTED:          0 ISSUED:          0 USEFUL:          0 USELESS:          0
cpu3_DTLB AVERAGE MISS LATENCY: 15.09 cycles
cpu3_DTLB TOTAL        ACCESS:          0 HIT:          0 MISS:          0
cpu3_DTLB LOAD         ACCESS:          0 HIT:          0 MISS:          0
cpu3_DTLB RFO          ACCESS:          0 HIT:          0 MISS:          0
cpu3_DTLB PREFETCH     ACCESS:          0 HIT:          0 MISS:          0
cpu3_DTLB WRITE        ACCESS:          0 HIT:          0 MISS:          0
cpu3_DTLB TRANSLATION  ACCESS:          0 HIT:          0 MISS:          0
cpu3_DTLB PREFETCH REQUESTED:          0 ISSUED:          0 USEFUL:          0 USELESS:          0
cpu3_DTLB AVERAGE MISS LATENCY: 15.09 cycles
cpu3_DTLB TOTAL        ACCESS:          0 HIT:          0 MISS:          0
cpu3_DTLB LOAD         ACCESS:          0 HIT:          0 MISS:          0
cpu3_DTLB RFO          ACCESS:          0 HIT:          0 MISS:          0
cpu3_DTLB PREFETCH     ACCESS:          0 HIT:          0 MISS:          0
cpu3_DTLB WRITE        ACCESS:          0 HIT:          0 MISS:          0
cpu3_DTLB TRANSLATION  ACCESS:          0 HIT:          0 MISS:          0
cpu3_DTLB PREFETCH REQUESTED:          0 ISSUED:          0 USEFUL:          0 USELESS:          0
cpu3_DTLB AVERAGE MISS LATENCY: 15.09 cycles
cpu3_DTLB TOTAL        ACCESS:   17898008 HIT:   17886774 MISS:      11234
cpu3_DTLB LOAD         ACCESS:   17898008 HIT:   17886774 MISS:      11234
cpu3_DTLB RFO          ACCESS:          0 HIT:          0 MISS:          0
cpu3_DTLB PREFETCH     ACCESS:          0 HIT:          0 MISS:          0
cpu3_DTLB WRITE        ACCESS:          0 HIT:          0 MISS:          0
cpu3_DTLB TRANSLATION  ACCESS:          0 HIT:          0 MISS:          0
cpu3_DTLB PREFETCH REQUESTED:          0 ISSUED:          0 USEFUL:          0 USELESS:          0
cpu3_DTLB AVERAGE MISS LATENCY: 15.09 cycles
cpu3_ITLB TOTAL        ACCESS:          0 HIT:          0 MISS:          0
cpu3_ITLB LOAD         ACCESS:          0 HIT:          0 MISS:          0
cpu3_ITLB RFO          ACCESS:          0 HIT:          0 MISS:          0
cpu3_ITLB PREFETCH     ACCESS:          0 HIT:          0 MISS:          0
cpu3_ITLB WRITE        ACCESS:          0 HIT:          0 MISS:          0
cpu3_ITLB TRANSLATION  ACCESS:          0 HIT:          0 MISS:          0
cpu3_ITLB PREFETCH REQUESTED:          0 ISSUED:          0 USEFUL:          0 USELESS:          0
cpu3_ITLB AVERAGE MISS LATENCY: 1436 cycles
cpu3_ITLB TOTAL        ACCESS:          0 HIT:          0 MISS:          0
cpu3_ITLB LOAD         ACCESS:          0 HIT:          0 MISS:          0
cpu3_ITLB RFO          ACCESS:          0 HIT:          0 MISS:          0
cpu3_ITLB PREFETCH     ACCESS:          0 HIT:          0 MISS:          0
cpu3_ITLB WRITE        ACCESS:          0 HIT:          0 MISS:          0
cpu3_ITLB TRANSLATION  ACCESS:          0 HIT:          0 MISS:          0
cpu3_ITLB PREFETCH REQUESTED:          0 ISSUED:          0 USEFUL:          0 USELESS:          0
cpu3_ITLB AVERAGE MISS LATENCY: 1436 cycles
cpu3_ITLB TOTAL        ACCESS:          0 HIT:          0 MISS:          0
cpu3_ITLB LOAD         ACCESS:          0 HIT:          0 MISS:          0
cpu3_ITLB RFO          ACCESS:          0 HIT:          0 MISS:          0
cpu3_ITLB PREFETCH     ACCESS:          0 HIT:          0 MISS:          0
cpu3_ITLB WRITE        ACCESS:          0 HIT:          0 MISS:          0
cpu3_ITLB TRANSLATION  ACCESS:          0 HIT:          0 MISS:          0
cpu3_ITLB PREFETCH REQUESTED:          0 ISSUED:          0 USEFUL:          0 USELESS:          0
cpu3_ITLB AVERAGE MISS LATENCY: 1436 cycles
cpu3_ITLB TOTAL        ACCESS:     509424 HIT:     509424 MISS:          0
cpu3_ITLB LOAD         ACCESS:     509424 HIT:     509424 MISS:          0
cpu3_ITLB RFO          ACCESS:          0 HIT:          0 MISS:          0
cpu3_ITLB PREFETCH     ACCESS:          0 HIT:          0 MISS:          0
cpu3_ITLB WRITE        ACCESS:          0 HIT:          0 MISS:          0
cpu3_ITLB TRANSLATION  ACCESS:          0 HIT:          0 MISS:          0
cpu3_ITLB PREFETCH REQUESTED:          0 ISSUED:          0 USEFUL:          0 USELESS:          0
cpu3_ITLB AVERAGE MISS LATENCY: 1436 cycles
cpu3_L1D TOTAL        ACCESS:          0 HIT:          0 MISS:          0
cpu3_L1D LOAD         ACCESS:          0 HIT:          0 MISS:          0
cpu3_L1D RFO          ACCESS:          0 HIT:          0 MISS:          0
cpu3_L1D PREFETCH     ACCESS:          0 HIT:          0 MISS:          0
cpu3_L1D WRITE        ACCESS:          0 HIT:          0 MISS:          0
cpu3_L1D TRANSLATION  ACCESS:          0 HIT:          0 MISS:          0
cpu3_L1D PREFETCH REQUESTED:          0 ISSUED:          0 USEFUL:          0 USELESS:          0
cpu3_L1D AVERAGE MISS LATENCY: 314.4 cycles
cpu3_L1D TOTAL        ACCESS:          0 HIT:          0 MISS:          0
cpu3_L1D LOAD         ACCESS:          0 HIT:          0 MISS:          0
cpu3_L1D RFO          ACCESS:          0 HIT:          0 MISS:          0
cpu3_L1D PREFETCH     ACCESS:          0 HIT:          0 MISS:          0
cpu3_L1D WRITE        ACCESS:          0 HIT:          0 MISS:          0
cpu3_L1D TRANSLATION  ACCESS:          0 HIT:          0 MISS:          0
cpu3_L1D PREFETCH REQUESTED:          0 ISSUED:          0 USEFUL:          0 USELESS:          0
cpu3_L1D AVERAGE MISS LATENCY: 314.4 cycles
cpu3_L1D TOTAL        ACCESS:          0 HIT:          0 MISS:          0
cpu3_L1D LOAD         ACCESS:          0 HIT:          0 MISS:          0
cpu3_L1D RFO          ACCESS:          0 HIT:          0 MISS:          0
cpu3_L1D PREFETCH     ACCESS:          0 HIT:          0 MISS:          0
cpu3_L1D WRITE        ACCESS:          0 HIT:          0 MISS:          0
cpu3_L1D TRANSLATION  ACCESS:          0 HIT:          0 MISS:          0
cpu3_L1D PREFETCH REQUESTED:          0 ISSUED:          0 USEFUL:          0 USELESS:          0
cpu3_L1D AVERAGE MISS LATENCY: 314.4 cycles
cpu3_L1D TOTAL        ACCESS:   21963183 HIT:   21942573 MISS:      20610
cpu3_L1D LOAD         ACCESS:   16378870 HIT:   16376066 MISS:       2804
cpu3_L1D RFO          ACCESS:          0 HIT:          0 MISS:          0
cpu3_L1D PREFETCH     ACCESS:          0 HIT:          0 MISS:          0
cpu3_L1D WRITE        ACCESS:    5584135 HIT:    5566488 MISS:      17647
cpu3_L1D TRANSLATION  ACCESS:        178 HIT:         19 MISS:        159
cpu3_L1D PREFETCH REQUESTED:          0 ISSUED:          0 USEFUL:          0 USELESS:          0
cpu3_L1D AVERAGE MISS LATENCY: 314.4 cycles
cpu3_L1I TOTAL        ACCESS:          0 HIT:          0 MISS:          0
cpu3_L1I LOAD         ACCESS:          0 HIT:          0 MISS:          0
cpu3_L1I RFO          ACCESS:          0 HIT:          0 MISS:          0
cpu3_L1I PREFETCH     ACCESS:          0 HIT:          0 MISS:          0
cpu3_L1I WRITE        ACCESS:          0 HIT:          0 MISS:          0
cpu3_L1I TRANSLATION  ACCESS:          0 HIT:          0 MISS:          0
cpu3_L1I PREFETCH REQUESTED:          0 ISSUED:          0 USEFUL:          0 USELESS:          0
cpu3_L1I AVERAGE MISS LATENCY: 14.59 cycles
cpu3_L1I TOTAL        ACCESS:          0 HIT:          0 MISS:          0
cpu3_L1I LOAD         ACCESS:          0 HIT:          0 MISS:          0
cpu3_L1I RFO          ACCESS:          0 HIT:          0 MISS:          0
cpu3_L1I PREFETCH     ACCESS:          0 HIT:          0 MISS:          0
cpu3_L1I WRITE        ACCESS:          0 HIT:          0 MISS:          0
cpu3_L1I TRANSLATION  ACCESS:          0 HIT:          0 MISS:          0
cpu3_L1I PREFETCH REQUESTED:          0 ISSUED:          0 USEFUL:          0 USELESS:          0
cpu3_L1I AVERAGE MISS LATENCY: 14.59 cycles
cpu3_L1I TOTAL        ACCESS:          0 HIT:          0 MISS:          0
cpu3_L1I LOAD         ACCESS:          0 HIT:          0 MISS:          0
cpu3_L1I RFO          ACCESS:          0 HIT:          0 MISS:          0
cpu3_L1I PREFETCH     ACCESS:          0 HIT:          0 MISS:          0
cpu3_L1I WRITE        ACCESS:          0 HIT:          0 MISS:          0
cpu3_L1I TRANSLATION  ACCESS:          0 HIT:          0 MISS:          0
cpu3_L1I PREFETCH REQUESTED:          0 ISSUED:          0 USEFUL:          0 USELESS:          0
cpu3_L1I AVERAGE MISS LATENCY: 14.59 cycles
cpu3_L1I TOTAL        ACCESS:     563842 HIT:     562351 MISS:       1491
cpu3_L1I LOAD         ACCESS:     563842 HIT:     562351 MISS:       1491
cpu3_L1I RFO          ACCESS:          0 HIT:          0 MISS:          0
cpu3_L1I PREFETCH     ACCESS:          0 HIT:          0 MISS:          0
cpu3_L1I WRITE        ACCESS:          0 HIT:          0 MISS:          0
cpu3_L1I TRANSLATION  ACCESS:          0 HIT:          0 MISS:          0
cpu3_L1I PREFETCH REQUESTED:          0 ISSUED:          0 USEFUL:          0 USELESS:          0
cpu3_L1I AVERAGE MISS LATENCY: 14.59 cycles
cpu3_L2C TOTAL        ACCESS:          0 HIT:          0 MISS:          0
cpu3_L2C LOAD         ACCESS:          0 HIT:          0 MISS:          0
cpu3_L2C RFO          ACCESS:          0 HIT:          0 MISS:          0
cpu3_L2C PREFETCH     ACCESS:          0 HIT:          0 MISS:          0
cpu3_L2C WRITE        ACCESS:          0 HIT:          0 MISS:          0
cpu3_L2C TRANSLATION  ACCESS:          0 HIT:          0 MISS:          0
cpu3_L2C PREFETCH REQUESTED:    3688240 ISSUED:    3541596 USEFUL:      27197 USELESS:        910
cpu3_L2C AVERAGE MISS LATENCY: 1261 cycles
cpu3_L2C TOTAL        ACCESS:          0 HIT:          0 MISS:          0
cpu3_L2C LOAD         ACCESS:          0 HIT:          0 MISS:          0
cpu3_L2C RFO          ACCESS:          0 HIT:          0 MISS:          0
cpu3_L2C PREFETCH     ACCESS:          0 HIT:          0 MISS:          0
cpu3_L2C WRITE        ACCESS:          0 HIT:          0 MISS:          0
cpu3_L2C TRANSLATION  ACCESS:          0 HIT:          0 MISS:          0
cpu3_L2C PREFETCH REQUESTED:    3688240 ISSUED:    3541596 USEFUL:      27197 USELESS:        910
cpu3_L2C AVERAGE MISS LATENCY: 1261 cycles
cpu3_L2C TOTAL        ACCESS:          0 HIT:          0 MISS:          0
cpu3_L2C LOAD         ACCESS:          0 HIT:          0 MISS:          0
cpu3_L2C RFO          ACCESS:          0 HIT:          0 MISS:          0
cpu3_L2C PREFETCH     ACCESS:          0 HIT:          0 MISS:          0
cpu3_L2C WRITE        ACCESS:          0 HIT:          0 MISS:          0
cpu3_L2C TRANSLATION  ACCESS:          0 HIT:          0 MISS:          0
cpu3_L2C PREFETCH REQUESTED:    3688240 ISSUED:    3541596 USEFUL:      27197 USELESS:        910
cpu3_L2C AVERAGE MISS LATENCY: 1261 cycles
cpu3_L2C TOTAL        ACCESS:      14277 HIT:       5942 MISS:       8335
cpu3_L2C LOAD         ACCESS:       2929 HIT:       1342 MISS:       1587
cpu3_L2C RFO          ACCESS:       2702 HIT:         84 MISS:       2618
cpu3_L2C PREFETCH     ACCESS:       5289 HIT:       1272 MISS:       4017
cpu3_L2C WRITE        ACCESS:       3198 HIT:       3187 MISS:         11
cpu3_L2C TRANSLATION  ACCESS:        159 HIT:         57 MISS:        102
cpu3_L2C PREFETCH REQUESTED:    3688240 ISSUED:    3541596 USEFUL:      27197 USELESS:        910
cpu3_L2C AVERAGE MISS LATENCY: 1261 cycles
cpu3_STLB TOTAL        ACCESS:          0 HIT:          0 MISS:          0
cpu3_STLB LOAD         ACCESS:          0 HIT:          0 MISS:          0
cpu3_STLB RFO          ACCESS:          0 HIT:          0 MISS:          0
cpu3_STLB PREFETCH     ACCESS:          0 HIT:          0 MISS:          0
cpu3_STLB WRITE        ACCESS:          0 HIT:          0 MISS:          0
cpu3_STLB TRANSLATION  ACCESS:          0 HIT:          0 MISS:          0
cpu3_STLB PREFETCH REQUESTED:          0 ISSUED:          0 USEFUL:          0 USELESS:          0
cpu3_STLB AVERAGE MISS LATENCY: 1183 cycles
cpu3_STLB TOTAL        ACCESS:          0 HIT:          0 MISS:          0
cpu3_STLB LOAD         ACCESS:          0 HIT:          0 MISS:          0
cpu3_STLB RFO          ACCESS:          0 HIT:          0 MISS:          0
cpu3_STLB PREFETCH     ACCESS:          0 HIT:          0 MISS:          0
cpu3_STLB WRITE        ACCESS:          0 HIT:          0 MISS:          0
cpu3_STLB TRANSLATION  ACCESS:          0 HIT:          0 MISS:          0
cpu3_STLB PREFETCH REQUESTED:          0 ISSUED:          0 USEFUL:          0 USELESS:          0
cpu3_STLB AVERAGE MISS LATENCY: 1183 cycles
cpu3_STLB TOTAL        ACCESS:          0 HIT:          0 MISS:          0
cpu3_STLB LOAD         ACCESS:          0 HIT:          0 MISS:          0
cpu3_STLB RFO          ACCESS:          0 HIT:          0 MISS:          0
cpu3_STLB PREFETCH     ACCESS:          0 HIT:          0 MISS:          0
cpu3_STLB WRITE        ACCESS:          0 HIT:          0 MISS:          0
cpu3_STLB TRANSLATION  ACCESS:          0 HIT:          0 MISS:          0
cpu3_STLB PREFETCH REQUESTED:          0 ISSUED:          0 USEFUL:          0 USELESS:          0
cpu3_STLB AVERAGE MISS LATENCY: 1183 cycles
cpu3_STLB TOTAL        ACCESS:       9921 HIT:       9744 MISS:        177
cpu3_STLB LOAD         ACCESS:       9921 HIT:       9744 MISS:        177
cpu3_STLB RFO          ACCESS:          0 HIT:          0 MISS:          0
cpu3_STLB PREFETCH     ACCESS:          0 HIT:          0 MISS:          0
cpu3_STLB WRITE        ACCESS:          0 HIT:          0 MISS:          0
cpu3_STLB TRANSLATION  ACCESS:          0 HIT:          0 MISS:          0
cpu3_STLB PREFETCH REQUESTED:          0 ISSUED:          0 USEFUL:          0 USELESS:          0
cpu3_STLB AVERAGE MISS LATENCY: 1183 cycles

DRAM Statistics

Channel 0 RQ ROW_BUFFER_HIT:     853561
  ROW_BUFFER_MISS:    2300053
 AVG DBUS CONGESTED CYCLE: 3.983
WQ ROW_BUFFER_HIT: Channel 0 
  ROW_BUFFER_MISS:      77012
  FULL:    1496988
