WARNING: physical memory size is smaller than virtual memory size.
WARNING: option --warmup_instructions is deprecated. Use --warmup-instructions instead.
WARNING: option --simulation_instructions is deprecated. Use --simulation-instructions instead.

*** ChampSim Multicore Out-of-Order Simulator ***
Warmup Instructions: 50000000
Simulation Instructions: 150000000
Number of CPUs: 4
Page size: 4096

Initialize SIGNATURE TABLE
ST_SET: 1
ST_WAY: 256
ST_TAG_BIT: 16
ST_TAG_MASK: ffff

Initialize PATTERN TABLE
PT_SET: 512
PT_WAY: 4
SIG_DELTA_BIT: 7
C_SIG_BIT: 4
C_DELTA_BIT: 4

Initialize PREFETCH FILTER
FILTER_SET: 1024
Initialize SIGNATURE TABLE
ST_SET: 1
ST_WAY: 256
ST_TAG_BIT: 16
ST_TAG_MASK: ffff

Initialize PATTERN TABLE
PT_SET: 512
PT_WAY: 4
SIG_DELTA_BIT: 7
C_SIG_BIT: 4
C_DELTA_BIT: 4

Initialize PREFETCH FILTER
FILTER_SET: 1024
Initialize SIGNATURE TABLE
ST_SET: 1
ST_WAY: 256
ST_TAG_BIT: 16
ST_TAG_MASK: ffff

Initialize PATTERN TABLE
PT_SET: 512
PT_WAY: 4
SIG_DELTA_BIT: 7
C_SIG_BIT: 4
C_DELTA_BIT: 4

Initialize PREFETCH FILTER
FILTER_SET: 1024
Initialize SIGNATURE TABLE
ST_SET: 1
ST_WAY: 256
ST_TAG_BIT: 16
ST_TAG_MASK: ffff

Initialize PATTERN TABLE
PT_SET: 512
PT_WAY: 4
SIG_DELTA_BIT: 7
C_SIG_BIT: 4
C_DELTA_BIT: 4

Initialize PREFETCH FILTER
FILTER_SET: 1024
Off-chip DRAM Size: 4 GiB Channels: 1 Width: 64-bit Data Race: 3200 MT/s
Heartbeat CPU 1 instructions: 10000003 cycles: 2505980 heartbeat IPC: 3.99 cumulative IPC: 3.99 (Simulation time: 00 hr 02 min 47 sec)
Heartbeat CPU 3 instructions: 10000003 cycles: 2711666 heartbeat IPC: 3.688 cumulative IPC: 3.688 (Simulation time: 00 hr 03 min 00 sec)
Heartbeat CPU 2 instructions: 10000004 cycles: 3064015 heartbeat IPC: 3.264 cumulative IPC: 3.264 (Simulation time: 00 hr 03 min 21 sec)
Heartbeat CPU 0 instructions: 10000001 cycles: 4174238 heartbeat IPC: 2.396 cumulative IPC: 2.396 (Simulation time: 00 hr 04 min 40 sec)
Heartbeat CPU 1 instructions: 20000000 cycles: 5014280 heartbeat IPC: 3.987 cumulative IPC: 3.989 (Simulation time: 00 hr 05 min 37 sec)
Heartbeat CPU 3 instructions: 20000002 cycles: 5231357 heartbeat IPC: 3.969 cumulative IPC: 3.823 (Simulation time: 00 hr 05 min 51 sec)
Heartbeat CPU 2 instructions: 20000002 cycles: 5748850 heartbeat IPC: 3.725 cumulative IPC: 3.479 (Simulation time: 00 hr 06 min 24 sec)
Heartbeat CPU 1 instructions: 30000003 cycles: 7517964 heartbeat IPC: 3.994 cumulative IPC: 3.99 (Simulation time: 00 hr 08 min 25 sec)
Heartbeat CPU 3 instructions: 30000000 cycles: 7750662 heartbeat IPC: 3.969 cumulative IPC: 3.871 (Simulation time: 00 hr 08 min 43 sec)
Heartbeat CPU 0 instructions: 20000003 cycles: 8345845 heartbeat IPC: 2.397 cumulative IPC: 2.396 (Simulation time: 00 hr 09 min 26 sec)
Heartbeat CPU 2 instructions: 30000000 cycles: 8968276 heartbeat IPC: 3.106 cumulative IPC: 3.345 (Simulation time: 00 hr 10 min 08 sec)
Heartbeat CPU 1 instructions: 40000000 cycles: 10026914 heartbeat IPC: 3.986 cumulative IPC: 3.989 (Simulation time: 00 hr 11 min 26 sec)
Heartbeat CPU 3 instructions: 40000000 cycles: 10280893 heartbeat IPC: 3.952 cumulative IPC: 3.891 (Simulation time: 00 hr 11 min 42 sec)
Heartbeat CPU 2 instructions: 40000004 cycles: 12221948 heartbeat IPC: 3.073 cumulative IPC: 3.273 (Simulation time: 00 hr 13 min 57 sec)
Heartbeat CPU 0 instructions: 30000001 cycles: 12519859 heartbeat IPC: 2.396 cumulative IPC: 2.396 (Simulation time: 00 hr 14 min 18 sec)
Heartbeat CPU 1 instructions: 50000002 cycles: 12547177 heartbeat IPC: 3.968 cumulative IPC: 3.985 (Simulation time: 00 hr 14 min 19 sec)
Warmup finished CPU 1 instructions: 50000002 cycles: 12547178 cumulative IPC: 3.985 (Simulation time: 00 hr 14 min 19 sec)
Heartbeat CPU 3 instructions: 50000003 cycles: 12883612 heartbeat IPC: 3.842 cumulative IPC: 3.881 (Simulation time: 00 hr 14 min 43 sec)
Warmup finished CPU 3 instructions: 50000003 cycles: 12883613 cumulative IPC: 3.881 (Simulation time: 00 hr 14 min 43 sec)
Heartbeat CPU 1 instructions: 60000000 cycles: 15053894 heartbeat IPC: 3.989 cumulative IPC: 3.986 (Simulation time: 00 hr 17 min 13 sec)
Heartbeat CPU 2 instructions: 50000000 cycles: 15375994 heartbeat IPC: 3.171 cumulative IPC: 3.252 (Simulation time: 00 hr 17 min 34 sec)
Warmup finished CPU 2 instructions: 50000000 cycles: 15375995 cumulative IPC: 3.252 (Simulation time: 00 hr 17 min 34 sec)
Heartbeat CPU 3 instructions: 60000002 cycles: 15502091 heartbeat IPC: 3.819 cumulative IPC: 3.87 (Simulation time: 00 hr 17 min 43 sec)
Heartbeat CPU 0 instructions: 40000000 cycles: 16706737 heartbeat IPC: 2.388 cumulative IPC: 2.394 (Simulation time: 00 hr 19 min 04 sec)
Heartbeat CPU 1 instructions: 70000001 cycles: 17559739 heartbeat IPC: 3.991 cumulative IPC: 3.986 (Simulation time: 00 hr 20 min 00 sec)
Heartbeat CPU 3 instructions: 70000000 cycles: 18080211 heartbeat IPC: 3.879 cumulative IPC: 3.872 (Simulation time: 00 hr 20 min 34 sec)
Heartbeat CPU 2 instructions: 60000002 cycles: 18084552 heartbeat IPC: 3.692 cumulative IPC: 3.318 (Simulation time: 00 hr 20 min 34 sec)
Heartbeat CPU 1 instructions: 80000003 cycles: 20066500 heartbeat IPC: 3.989 cumulative IPC: 3.987 (Simulation time: 00 hr 22 min 39 sec)
Heartbeat CPU 3 instructions: 80000004 cycles: 20640591 heartbeat IPC: 3.906 cumulative IPC: 3.876 (Simulation time: 00 hr 23 min 16 sec)
Heartbeat CPU 2 instructions: 70000000 cycles: 20811201 heartbeat IPC: 3.668 cumulative IPC: 3.364 (Simulation time: 00 hr 23 min 27 sec)
Heartbeat CPU 0 instructions: 50000003 cycles: 20872168 heartbeat IPC: 2.401 cumulative IPC: 2.396 (Simulation time: 00 hr 23 min 31 sec)
Warmup finished CPU 0 instructions: 50000003 cycles: 20872169 cumulative IPC: 2.396 (Simulation time: 00 hr 23 min 31 sec)
Warmup complete CPU 0 instructions: 50000003 cycles: 20872169 cumulative IPC: 2.396 (Simulation time: 00 hr 23 min 31 sec)
Warmup complete CPU 1 instructions: 83222675 cycles: 20872169 cumulative IPC: 3.987 (Simulation time: 00 hr 23 min 31 sec)
Warmup complete CPU 2 instructions: 70207527 cycles: 20872169 cumulative IPC: 3.364 (Simulation time: 00 hr 23 min 31 sec)
Warmup complete CPU 3 instructions: 80844150 cycles: 20872169 cumulative IPC: 3.873 (Simulation time: 00 hr 23 min 31 sec)
Heartbeat CPU 1 instructions: 90000001 cycles: 23252449 heartbeat IPC: 3.139 cumulative IPC: 2.847 (Simulation time: 00 hr 25 min 10 sec)
Heartbeat CPU 3 instructions: 90000003 cycles: 24485808 heartbeat IPC: 2.601 cumulative IPC: 2.534 (Simulation time: 00 hr 26 min 04 sec)
Heartbeat CPU 1 instructions: 100000004 cycles: 26689333 heartbeat IPC: 2.91 cumulative IPC: 2.884 (Simulation time: 00 hr 27 min 34 sec)
Heartbeat CPU 2 instructions: 80000001 cycles: 28672491 heartbeat IPC: 1.272 cumulative IPC: 1.255 (Simulation time: 00 hr 28 min 50 sec)
Heartbeat CPU 1 instructions: 110000001 cycles: 30429446 heartbeat IPC: 2.674 cumulative IPC: 2.802 (Simulation time: 00 hr 29 min 57 sec)
Heartbeat CPU 3 instructions: 100000000 cycles: 33715745 heartbeat IPC: 1.083 cumulative IPC: 1.491 (Simulation time: 00 hr 31 min 59 sec)
Heartbeat CPU 1 instructions: 120000002 cycles: 34151543 heartbeat IPC: 2.687 cumulative IPC: 2.77 (Simulation time: 00 hr 32 min 10 sec)
Heartbeat CPU 1 instructions: 130000003 cycles: 37721332 heartbeat IPC: 2.801 cumulative IPC: 2.776 (Simulation time: 00 hr 34 min 02 sec)
Heartbeat CPU 2 instructions: 90000001 cycles: 38138208 heartbeat IPC: 1.056 cumulative IPC: 1.146 (Simulation time: 00 hr 34 min 14 sec)
Heartbeat CPU 1 instructions: 140000003 cycles: 42690669 heartbeat IPC: 2.012 cumulative IPC: 2.602 (Simulation time: 00 hr 36 min 14 sec)
Heartbeat CPU 1 instructions: 150000003 cycles: 47743344 heartbeat IPC: 1.979 cumulative IPC: 2.485 (Simulation time: 00 hr 38 min 30 sec)
Heartbeat CPU 1 instructions: 160000001 cycles: 51729810 heartbeat IPC: 2.508 cumulative IPC: 2.488 (Simulation time: 00 hr 40 min 33 sec)
Heartbeat CPU 1 instructions: 170000004 cycles: 56136991 heartbeat IPC: 2.269 cumulative IPC: 2.461 (Simulation time: 00 hr 42 min 48 sec)
Heartbeat CPU 2 instructions: 100000002 cycles: 62044436 heartbeat IPC: 0.4183 cumulative IPC: 0.7236 (Simulation time: 00 hr 45 min 31 sec)
Heartbeat CPU 1 instructions: 180000003 cycles: 62071249 heartbeat IPC: 1.685 cumulative IPC: 2.349 (Simulation time: 00 hr 45 min 32 sec)
Heartbeat CPU 1 instructions: 190000003 cycles: 67592077 heartbeat IPC: 1.811 cumulative IPC: 2.285 (Simulation time: 00 hr 48 min 12 sec)
Heartbeat CPU 1 instructions: 200000004 cycles: 72542706 heartbeat IPC: 2.02 cumulative IPC: 2.26 (Simulation time: 00 hr 50 min 38 sec)
Heartbeat CPU 2 instructions: 110000004 cycles: 74679954 heartbeat IPC: 0.7914 cumulative IPC: 0.7395 (Simulation time: 00 hr 51 min 50 sec)
Heartbeat CPU 1 instructions: 210000004 cycles: 76193307 heartbeat IPC: 2.739 cumulative IPC: 2.292 (Simulation time: 00 hr 52 min 53 sec)
Heartbeat CPU 3 instructions: 110000001 cycles: 76489597 heartbeat IPC: 0.2338 cumulative IPC: 0.5242 (Simulation time: 00 hr 53 min 07 sec)
Heartbeat CPU 1 instructions: 220000001 cycles: 79948820 heartbeat IPC: 2.663 cumulative IPC: 2.315 (Simulation time: 00 hr 55 min 28 sec)
Heartbeat CPU 3 instructions: 120000003 cycles: 80751754 heartbeat IPC: 2.346 cumulative IPC: 0.6539 (Simulation time: 00 hr 56 min 03 sec)
Heartbeat CPU 2 instructions: 120000000 cycles: 82142321 heartbeat IPC: 1.34 cumulative IPC: 0.8127 (Simulation time: 00 hr 57 min 04 sec)
Heartbeat CPU 0 instructions: 60000003 cycles: 83282849 heartbeat IPC: 0.1602 cumulative IPC: 0.1602 (Simulation time: 00 hr 57 min 52 sec)
Heartbeat CPU 1 instructions: 230000000 cycles: 83466633 heartbeat IPC: 2.843 cumulative IPC: 2.345 (Simulation time: 00 hr 58 min 00 sec)
Heartbeat CPU 3 instructions: 130000001 cycles: 84380572 heartbeat IPC: 2.756 cumulative IPC: 0.774 (Simulation time: 00 hr 58 min 43 sec)
Simulation finished CPU 1 instructions: 150000000 cycles: 63720697 cumulative IPC: 2.354 (Simulation time: 00 hr 58 min 53 sec)
Heartbeat CPU 1 instructions: 240000002 cycles: 87075152 heartbeat IPC: 2.771 cumulative IPC: 2.368 (Simulation time: 01 hr 00 min 48 sec)
Heartbeat CPU 2 instructions: 130000001 cycles: 87846373 heartbeat IPC: 1.753 cumulative IPC: 0.8928 (Simulation time: 01 hr 01 min 25 sec)
Heartbeat CPU 3 instructions: 140000000 cycles: 87897101 heartbeat IPC: 2.844 cumulative IPC: 0.8826 (Simulation time: 01 hr 01 min 27 sec)
Heartbeat CPU 1 instructions: 250000004 cycles: 90580532 heartbeat IPC: 2.853 cumulative IPC: 2.393 (Simulation time: 01 hr 03 min 28 sec)
Heartbeat CPU 3 instructions: 150000003 cycles: 92523995 heartbeat IPC: 2.161 cumulative IPC: 0.9652 (Simulation time: 01 hr 04 min 48 sec)
Heartbeat CPU 2 instructions: 140000000 cycles: 93745656 heartbeat IPC: 1.695 cumulative IPC: 0.9577 (Simulation time: 01 hr 05 min 39 sec)
Heartbeat CPU 1 instructions: 260000002 cycles: 94056730 heartbeat IPC: 2.877 cumulative IPC: 2.416 (Simulation time: 01 hr 05 min 52 sec)
Heartbeat CPU 3 instructions: 160000000 cycles: 97464550 heartbeat IPC: 2.024 cumulative IPC: 1.033 (Simulation time: 01 hr 08 min 00 sec)
Heartbeat CPU 1 instructions: 270000004 cycles: 97563228 heartbeat IPC: 2.852 cumulative IPC: 2.435 (Simulation time: 01 hr 08 min 04 sec)
Heartbeat CPU 1 instructions: 280000004 cycles: 101003607 heartbeat IPC: 2.907 cumulative IPC: 2.456 (Simulation time: 01 hr 10 min 24 sec)
Heartbeat CPU 2 instructions: 150000002 cycles: 101581900 heartbeat IPC: 1.276 cumulative IPC: 0.9886 (Simulation time: 01 hr 10 min 47 sec)
Heartbeat CPU 3 instructions: 170000000 cycles: 102283826 heartbeat IPC: 2.075 cumulative IPC: 1.095 (Simulation time: 01 hr 11 min 16 sec)
Heartbeat CPU 1 instructions: 290000003 cycles: 104443938 heartbeat IPC: 2.907 cumulative IPC: 2.474 (Simulation time: 01 hr 12 min 46 sec)
Heartbeat CPU 0 instructions: 70000002 cycles: 105362530 heartbeat IPC: 0.4529 cumulative IPC: 0.2367 (Simulation time: 01 hr 13 min 24 sec)
Heartbeat CPU 3 instructions: 180000001 cycles: 106870397 heartbeat IPC: 2.18 cumulative IPC: 1.153 (Simulation time: 01 hr 14 min 28 sec)
Heartbeat CPU 1 instructions: 300000000 cycles: 107933308 heartbeat IPC: 2.866 cumulative IPC: 2.49 (Simulation time: 01 hr 15 min 06 sec)
Heartbeat CPU 2 instructions: 160000002 cycles: 108282509 heartbeat IPC: 1.492 cumulative IPC: 1.027 (Simulation time: 01 hr 15 min 20 sec)
Heartbeat CPU 3 instructions: 190000003 cycles: 111059987 heartbeat IPC: 2.387 cumulative IPC: 1.21 (Simulation time: 01 hr 17 min 14 sec)
Heartbeat CPU 1 instructions: 310000002 cycles: 111361756 heartbeat IPC: 2.917 cumulative IPC: 2.506 (Simulation time: 01 hr 17 min 28 sec)
Heartbeat CPU 1 instructions: 320000001 cycles: 114794805 heartbeat IPC: 2.913 cumulative IPC: 2.521 (Simulation time: 01 hr 19 min 40 sec)
Heartbeat CPU 2 instructions: 170000004 cycles: 114945368 heartbeat IPC: 1.501 cumulative IPC: 1.061 (Simulation time: 01 hr 19 min 46 sec)
Heartbeat CPU 1 instructions: 330000001 cycles: 118268168 heartbeat IPC: 2.879 cumulative IPC: 2.534 (Simulation time: 01 hr 21 min 47 sec)
Heartbeat CPU 3 instructions: 200000004 cycles: 118393502 heartbeat IPC: 1.364 cumulative IPC: 1.222 (Simulation time: 01 hr 21 min 52 sec)
Heartbeat CPU 1 instructions: 340000002 cycles: 122052761 heartbeat IPC: 2.642 cumulative IPC: 2.538 (Simulation time: 01 hr 23 min 56 sec)
Heartbeat CPU 2 instructions: 180000002 cycles: 123069678 heartbeat IPC: 1.231 cumulative IPC: 1.074 (Simulation time: 01 hr 24 min 29 sec)
Heartbeat CPU 1 instructions: 350000001 cycles: 125760987 heartbeat IPC: 2.697 cumulative IPC: 2.543 (Simulation time: 01 hr 25 min 52 sec)
Heartbeat CPU 1 instructions: 360000000 cycles: 129697778 heartbeat IPC: 2.54 cumulative IPC: 2.543 (Simulation time: 01 hr 27 min 50 sec)
Heartbeat CPU 1 instructions: 370000001 cycles: 133807864 heartbeat IPC: 2.433 cumulative IPC: 2.539 (Simulation time: 01 hr 29 min 51 sec)
Heartbeat CPU 2 instructions: 190000003 cycles: 135454115 heartbeat IPC: 0.8075 cumulative IPC: 1.045 (Simulation time: 01 hr 30 min 44 sec)
Heartbeat CPU 1 instructions: 380000003 cycles: 142050863 heartbeat IPC: 1.213 cumulative IPC: 2.449 (Simulation time: 01 hr 33 min 37 sec)
Heartbeat CPU 1 instructions: 390000000 cycles: 147352416 heartbeat IPC: 1.886 cumulative IPC: 2.425 (Simulation time: 01 hr 36 min 16 sec)
Heartbeat CPU 2 instructions: 200000002 cycles: 147629234 heartbeat IPC: 0.8213 cumulative IPC: 1.024 (Simulation time: 01 hr 36 min 24 sec)
Heartbeat CPU 1 instructions: 400000003 cycles: 151288357 heartbeat IPC: 2.541 cumulative IPC: 2.429 (Simulation time: 01 hr 38 min 19 sec)
Heartbeat CPU 1 instructions: 410000004 cycles: 155253688 heartbeat IPC: 2.522 cumulative IPC: 2.432 (Simulation time: 01 hr 40 min 22 sec)
Heartbeat CPU 1 instructions: 420000001 cycles: 159047831 heartbeat IPC: 2.636 cumulative IPC: 2.437 (Simulation time: 01 hr 42 min 18 sec)
Heartbeat CPU 2 instructions: 210000001 cycles: 159162298 heartbeat IPC: 0.8671 cumulative IPC: 1.011 (Simulation time: 01 hr 42 min 21 sec)
Heartbeat CPU 3 instructions: 210000003 cycles: 163451488 heartbeat IPC: 0.2219 cumulative IPC: 0.9059 (Simulation time: 01 hr 44 min 37 sec)
Heartbeat CPU 1 instructions: 430000003 cycles: 163908641 heartbeat IPC: 2.057 cumulative IPC: 2.424 (Simulation time: 01 hr 44 min 55 sec)
Heartbeat CPU 1 instructions: 440000000 cycles: 167658944 heartbeat IPC: 2.666 cumulative IPC: 2.431 (Simulation time: 01 hr 47 min 11 sec)
Heartbeat CPU 3 instructions: 220000001 cycles: 168067926 heartbeat IPC: 2.166 cumulative IPC: 0.9454 (Simulation time: 01 hr 47 min 27 sec)
Heartbeat CPU 0 instructions: 80000002 cycles: 169065812 heartbeat IPC: 0.157 cumulative IPC: 0.2024 (Simulation time: 01 hr 48 min 05 sec)
Heartbeat CPU 2 instructions: 220000000 cycles: 171072425 heartbeat IPC: 0.8396 cumulative IPC: 0.9973 (Simulation time: 01 hr 49 min 24 sec)
Simulation finished CPU 2 instructions: 150000001 cycles: 150357168 cumulative IPC: 0.9976 (Simulation time: 01 hr 49 min 30 sec)
Heartbeat CPU 3 instructions: 230000001 cycles: 171677842 heartbeat IPC: 2.77 cumulative IPC: 0.9891 (Simulation time: 01 hr 49 min 46 sec)
Simulation finished CPU 3 instructions: 150000002 cycles: 151109975 cumulative IPC: 0.9927 (Simulation time: 01 hr 49 min 59 sec)
Heartbeat CPU 1 instructions: 450000001 cycles: 172693167 heartbeat IPC: 1.986 cumulative IPC: 2.416 (Simulation time: 01 hr 50 min 29 sec)
Heartbeat CPU 3 instructions: 240000000 cycles: 175220881 heartbeat IPC: 2.822 cumulative IPC: 1.031 (Simulation time: 01 hr 52 min 17 sec)
Heartbeat CPU 1 instructions: 460000000 cycles: 176114466 heartbeat IPC: 2.923 cumulative IPC: 2.427 (Simulation time: 01 hr 52 min 55 sec)
Heartbeat CPU 2 instructions: 230000000 cycles: 178270959 heartbeat IPC: 1.389 cumulative IPC: 1.015 (Simulation time: 01 hr 54 min 25 sec)
Heartbeat CPU 3 instructions: 250000000 cycles: 179521976 heartbeat IPC: 2.325 cumulative IPC: 1.066 (Simulation time: 01 hr 55 min 17 sec)
Heartbeat CPU 1 instructions: 470000002 cycles: 179600191 heartbeat IPC: 2.869 cumulative IPC: 2.437 (Simulation time: 01 hr 55 min 21 sec)
Heartbeat CPU 1 instructions: 480000002 cycles: 183084548 heartbeat IPC: 2.87 cumulative IPC: 2.446 (Simulation time: 01 hr 57 min 44 sec)
Heartbeat CPU 3 instructions: 260000003 cycles: 184539086 heartbeat IPC: 1.993 cumulative IPC: 1.095 (Simulation time: 01 hr 58 min 41 sec)
Heartbeat CPU 2 instructions: 240000001 cycles: 185016958 heartbeat IPC: 1.482 cumulative IPC: 1.034 (Simulation time: 01 hr 59 min 00 sec)
Heartbeat CPU 3 instructions: 270000000 cycles: 190359718 heartbeat IPC: 1.718 cumulative IPC: 1.116 (Simulation time: 02 hr 01 min 45 sec)
Heartbeat CPU 2 instructions: 250000001 cycles: 194265432 heartbeat IPC: 1.081 cumulative IPC: 1.037 (Simulation time: 02 hr 03 min 48 sec)
Heartbeat CPU 3 instructions: 280000001 cycles: 196308896 heartbeat IPC: 1.681 cumulative IPC: 1.135 (Simulation time: 02 hr 04 min 51 sec)
Heartbeat CPU 3 instructions: 290000003 cycles: 202443185 heartbeat IPC: 1.63 cumulative IPC: 1.152 (Simulation time: 02 hr 08 min 05 sec)
Heartbeat CPU 2 instructions: 260000002 cycles: 203610179 heartbeat IPC: 1.07 cumulative IPC: 1.039 (Simulation time: 02 hr 08 min 47 sec)
Heartbeat CPU 1 instructions: 490000001 cycles: 204740686 heartbeat IPC: 0.4618 cumulative IPC: 2.212 (Simulation time: 02 hr 09 min 26 sec)
Heartbeat CPU 3 instructions: 300000002 cycles: 208441071 heartbeat IPC: 1.667 cumulative IPC: 1.168 (Simulation time: 02 hr 11 min 49 sec)
Heartbeat CPU 1 instructions: 500000003 cycles: 209506611 heartbeat IPC: 2.098 cumulative IPC: 2.209 (Simulation time: 02 hr 12 min 31 sec)
Heartbeat CPU 2 instructions: 270000000 cycles: 209672254 heartbeat IPC: 1.65 cumulative IPC: 1.058 (Simulation time: 02 hr 12 min 37 sec)
Heartbeat CPU 0 instructions: 90000001 cycles: 211341972 heartbeat IPC: 0.2365 cumulative IPC: 0.21 (Simulation time: 02 hr 13 min 39 sec)
Heartbeat CPU 1 instructions: 510000001 cycles: 215569707 heartbeat IPC: 1.649 cumulative IPC: 2.192 (Simulation time: 02 hr 16 min 10 sec)
Heartbeat CPU 2 instructions: 280000000 cycles: 216445458 heartbeat IPC: 1.476 cumulative IPC: 1.073 (Simulation time: 02 hr 16 min 38 sec)
Heartbeat CPU 1 instructions: 520000003 cycles: 227506105 heartbeat IPC: 0.8378 cumulative IPC: 2.114 (Simulation time: 02 hr 21 min 47 sec)
Heartbeat CPU 2 instructions: 290000003 cycles: 229259536 heartbeat IPC: 0.7804 cumulative IPC: 1.055 (Simulation time: 02 hr 22 min 35 sec)
Heartbeat CPU 1 instructions: 530000000 cycles: 241867395 heartbeat IPC: 0.6963 cumulative IPC: 2.022 (Simulation time: 02 hr 27 min 53 sec)
Heartbeat CPU 2 instructions: 300000004 cycles: 254795433 heartbeat IPC: 0.3916 cumulative IPC: 0.9823 (Simulation time: 02 hr 33 min 22 sec)
Heartbeat CPU 3 instructions: 310000000 cycles: 255004216 heartbeat IPC: 0.2148 cumulative IPC: 0.9787 (Simulation time: 02 hr 33 min 28 sec)
Heartbeat CPU 1 instructions: 540000004 cycles: 255048721 heartbeat IPC: 0.7586 cumulative IPC: 1.951 (Simulation time: 02 hr 33 min 30 sec)
Heartbeat CPU 3 instructions: 320000004 cycles: 260785072 heartbeat IPC: 1.73 cumulative IPC: 0.9968 (Simulation time: 02 hr 36 min 56 sec)
Heartbeat CPU 1 instructions: 550000001 cycles: 261294693 heartbeat IPC: 1.601 cumulative IPC: 1.941 (Simulation time: 02 hr 37 min 16 sec)
Heartbeat CPU 2 instructions: 310000001 cycles: 263442492 heartbeat IPC: 1.156 cumulative IPC: 0.9885 (Simulation time: 02 hr 38 min 41 sec)
Heartbeat CPU 3 instructions: 330000002 cycles: 264427089 heartbeat IPC: 2.746 cumulative IPC: 1.023 (Simulation time: 02 hr 39 min 26 sec)
Heartbeat CPU 3 instructions: 340000004 cycles: 268073167 heartbeat IPC: 2.743 cumulative IPC: 1.048 (Simulation time: 02 hr 41 min 44 sec)
Heartbeat CPU 1 instructions: 560000000 cycles: 268998482 heartbeat IPC: 1.298 cumulative IPC: 1.922 (Simulation time: 02 hr 42 min 14 sec)
Heartbeat CPU 3 instructions: 350000004 cycles: 272443041 heartbeat IPC: 2.288 cumulative IPC: 1.07 (Simulation time: 02 hr 44 min 13 sec)
Heartbeat CPU 2 instructions: 320000001 cycles: 274593596 heartbeat IPC: 0.8968 cumulative IPC: 0.9845 (Simulation time: 02 hr 45 min 34 sec)
Heartbeat CPU 3 instructions: 360000001 cycles: 277466719 heartbeat IPC: 1.991 cumulative IPC: 1.088 (Simulation time: 02 hr 47 min 25 sec)
Heartbeat CPU 3 instructions: 370000000 cycles: 283370164 heartbeat IPC: 1.694 cumulative IPC: 1.102 (Simulation time: 02 hr 50 min 59 sec)
Heartbeat CPU 2 instructions: 330000000 cycles: 285424283 heartbeat IPC: 0.9233 cumulative IPC: 0.982 (Simulation time: 02 hr 52 min 18 sec)
Heartbeat CPU 3 instructions: 380000002 cycles: 288686244 heartbeat IPC: 1.881 cumulative IPC: 1.117 (Simulation time: 02 hr 54 min 41 sec)
Heartbeat CPU 1 instructions: 570000001 cycles: 289924432 heartbeat IPC: 0.4779 cumulative IPC: 1.809 (Simulation time: 02 hr 55 min 41 sec)
Heartbeat CPU 2 instructions: 340000001 cycles: 293069240 heartbeat IPC: 1.308 cumulative IPC: 0.9912 (Simulation time: 02 hr 57 min 51 sec)
Heartbeat CPU 3 instructions: 390000000 cycles: 293929981 heartbeat IPC: 1.907 cumulative IPC: 1.132 (Simulation time: 02 hr 58 min 31 sec)
Heartbeat CPU 0 instructions: 100000000 cycles: 294997025 heartbeat IPC: 0.1195 cumulative IPC: 0.1824 (Simulation time: 02 hr 59 min 16 sec)
Heartbeat CPU 1 instructions: 580000000 cycles: 295105993 heartbeat IPC: 1.93 cumulative IPC: 1.812 (Simulation time: 02 hr 59 min 22 sec)
Heartbeat CPU 3 instructions: 400000001 cycles: 298224640 heartbeat IPC: 2.328 cumulative IPC: 1.151 (Simulation time: 03 hr 01 min 56 sec)
Heartbeat CPU 1 instructions: 590000002 cycles: 299937359 heartbeat IPC: 2.07 cumulative IPC: 1.816 (Simulation time: 03 hr 03 min 15 sec)
Heartbeat CPU 2 instructions: 350000003 cycles: 300397910 heartbeat IPC: 1.365 cumulative IPC: 1.001 (Simulation time: 03 hr 03 min 36 sec)
Heartbeat CPU 1 instructions: 600000004 cycles: 305918870 heartbeat IPC: 1.672 cumulative IPC: 1.813 (Simulation time: 03 hr 07 min 08 sec)
Heartbeat CPU 2 instructions: 360000001 cycles: 308678668 heartbeat IPC: 1.208 cumulative IPC: 1.007 (Simulation time: 03 hr 08 min 58 sec)
Heartbeat CPU 1 instructions: 610000000 cycles: 314115687 heartbeat IPC: 1.22 cumulative IPC: 1.796 (Simulation time: 03 hr 12 min 19 sec)
Heartbeat CPU 3 instructions: 410000000 cycles: 314949304 heartbeat IPC: 0.5979 cumulative IPC: 1.119 (Simulation time: 03 hr 12 min 51 sec)
Heartbeat CPU 2 instructions: 370000000 cycles: 319916664 heartbeat IPC: 0.8898 cumulative IPC: 1.003 (Simulation time: 03 hr 15 min 39 sec)
Heartbeat CPU 1 instructions: 620000002 cycles: 324424331 heartbeat IPC: 0.9701 cumulative IPC: 1.768 (Simulation time: 03 hr 18 min 04 sec)
Heartbeat CPU 2 instructions: 380000002 cycles: 332920662 heartbeat IPC: 0.769 cumulative IPC: 0.9928 (Simulation time: 03 hr 22 min 42 sec)
Heartbeat CPU 1 instructions: 630000004 cycles: 335118482 heartbeat IPC: 0.9351 cumulative IPC: 1.74 (Simulation time: 03 hr 23 min 52 sec)
Heartbeat CPU 2 instructions: 390000000 cycles: 343440729 heartbeat IPC: 0.9506 cumulative IPC: 0.9914 (Simulation time: 03 hr 28 min 33 sec)
Heartbeat CPU 2 instructions: 400000000 cycles: 355730146 heartbeat IPC: 0.8137 cumulative IPC: 0.9849 (Simulation time: 03 hr 34 min 26 sec)
Heartbeat CPU 3 instructions: 420000002 cycles: 362581685 heartbeat IPC: 0.2099 cumulative IPC: 0.9925 (Simulation time: 03 hr 38 min 17 sec)
Heartbeat CPU 2 instructions: 410000001 cycles: 366515146 heartbeat IPC: 0.9272 cumulative IPC: 0.9831 (Simulation time: 03 hr 40 min 39 sec)
Heartbeat CPU 3 instructions: 430000000 cycles: 367854177 heartbeat IPC: 1.897 cumulative IPC: 1.006 (Simulation time: 03 hr 41 min 31 sec)
Heartbeat CPU 3 instructions: 440000003 cycles: 371847105 heartbeat IPC: 2.504 cumulative IPC: 1.023 (Simulation time: 03 hr 43 min 56 sec)
Heartbeat CPU 1 instructions: 640000002 cycles: 373260889 heartbeat IPC: 0.2622 cumulative IPC: 1.58 (Simulation time: 03 hr 44 min 51 sec)
Heartbeat CPU 3 instructions: 450000002 cycles: 375553957 heartbeat IPC: 2.698 cumulative IPC: 1.041 (Simulation time: 03 hr 46 min 15 sec)
Heartbeat CPU 2 instructions: 420000002 cycles: 377066241 heartbeat IPC: 0.9478 cumulative IPC: 0.982 (Simulation time: 03 hr 47 min 07 sec)
Heartbeat CPU 1 instructions: 650000003 cycles: 377787732 heartbeat IPC: 2.209 cumulative IPC: 1.588 (Simulation time: 03 hr 47 min 32 sec)
Heartbeat CPU 3 instructions: 460000001 cycles: 380015689 heartbeat IPC: 2.241 cumulative IPC: 1.056 (Simulation time: 03 hr 48 min 54 sec)
Heartbeat CPU 0 instructions: 110000004 cycles: 380481478 heartbeat IPC: 0.117 cumulative IPC: 0.1668 (Simulation time: 03 hr 49 min 12 sec)
Heartbeat CPU 1 instructions: 660000003 cycles: 382128675 heartbeat IPC: 2.304 cumulative IPC: 1.597 (Simulation time: 03 hr 50 min 12 sec)
Heartbeat CPU 2 instructions: 430000002 cycles: 384292401 heartbeat IPC: 1.384 cumulative IPC: 0.99 (Simulation time: 03 hr 51 min 30 sec)
Heartbeat CPU 3 instructions: 470000000 cycles: 384914281 heartbeat IPC: 2.041 cumulative IPC: 1.069 (Simulation time: 03 hr 51 min 52 sec)
Heartbeat CPU 1 instructions: 670000002 cycles: 386535176 heartbeat IPC: 2.269 cumulative IPC: 1.605 (Simulation time: 03 hr 52 min 50 sec)
Heartbeat CPU 3 instructions: 480000003 cycles: 389910582 heartbeat IPC: 2.001 cumulative IPC: 1.082 (Simulation time: 03 hr 54 min 55 sec)
Heartbeat CPU 1 instructions: 680000002 cycles: 391043815 heartbeat IPC: 2.218 cumulative IPC: 1.612 (Simulation time: 03 hr 55 min 40 sec)
Heartbeat CPU 2 instructions: 440000001 cycles: 391144445 heartbeat IPC: 1.459 cumulative IPC: 0.9987 (Simulation time: 03 hr 55 min 44 sec)
Heartbeat CPU 3 instructions: 490000001 cycles: 395033244 heartbeat IPC: 1.952 cumulative IPC: 1.094 (Simulation time: 03 hr 58 min 02 sec)
Heartbeat CPU 1 instructions: 690000001 cycles: 395791042 heartbeat IPC: 2.106 cumulative IPC: 1.618 (Simulation time: 03 hr 58 min 31 sec)
Heartbeat CPU 2 instructions: 450000001 cycles: 398332595 heartbeat IPC: 1.391 cumulative IPC: 1.006 (Simulation time: 04 hr 00 min 06 sec)
Heartbeat CPU 3 instructions: 500000000 cycles: 399064781 heartbeat IPC: 2.48 cumulative IPC: 1.108 (Simulation time: 04 hr 00 min 36 sec)
Heartbeat CPU 1 instructions: 700000000 cycles: 400159523 heartbeat IPC: 2.289 cumulative IPC: 1.626 (Simulation time: 04 hr 01 min 18 sec)
Heartbeat CPU 2 instructions: 460000002 cycles: 403771170 heartbeat IPC: 1.839 cumulative IPC: 1.018 (Simulation time: 04 hr 03 min 28 sec)
Heartbeat CPU 3 instructions: 510000000 cycles: 412401335 heartbeat IPC: 0.7498 cumulative IPC: 1.096 (Simulation time: 04 hr 07 min 08 sec)
Heartbeat CPU 2 instructions: 470000003 cycles: 428357706 heartbeat IPC: 0.4067 cumulative IPC: 0.9811 (Simulation time: 04 hr 12 min 52 sec)
Heartbeat CPU 1 instructions: 710000003 cycles: 429274928 heartbeat IPC: 0.3435 cumulative IPC: 1.535 (Simulation time: 04 hr 13 min 13 sec)
Heartbeat CPU 0 instructions: 120000004 cycles: 434907408 heartbeat IPC: 0.1837 cumulative IPC: 0.1691 (Simulation time: 04 hr 15 min 22 sec)
Heartbeat CPU 2 instructions: 480000000 cycles: 443722723 heartbeat IPC: 0.6508 cumulative IPC: 0.9691 (Simulation time: 04 hr 18 min 51 sec)
Heartbeat CPU 1 instructions: 720000000 cycles: 454042287 heartbeat IPC: 0.4038 cumulative IPC: 1.47 (Simulation time: 04 hr 23 min 02 sec)
Heartbeat CPU 2 instructions: 490000002 cycles: 457111277 heartbeat IPC: 0.7469 cumulative IPC: 0.9623 (Simulation time: 04 hr 24 min 22 sec)
Heartbeat CPU 1 instructions: 730000001 cycles: 465887611 heartbeat IPC: 0.8442 cumulative IPC: 1.453 (Simulation time: 04 hr 28 min 09 sec)
Heartbeat CPU 3 instructions: 520000003 cycles: 467126104 heartbeat IPC: 0.1827 cumulative IPC: 0.9841 (Simulation time: 04 hr 28 min 52 sec)
Heartbeat CPU 2 instructions: 500000000 cycles: 471585640 heartbeat IPC: 0.6909 cumulative IPC: 0.9536 (Simulation time: 04 hr 31 min 18 sec)
Heartbeat CPU 1 instructions: 740000001 cycles: 471633852 heartbeat IPC: 1.74 cumulative IPC: 1.457 (Simulation time: 04 hr 31 min 19 sec)
Heartbeat CPU 3 instructions: 530000001 cycles: 471785795 heartbeat IPC: 2.146 cumulative IPC: 0.9961 (Simulation time: 04 hr 31 min 24 sec)
Heartbeat CPU 3 instructions: 540000004 cycles: 475512331 heartbeat IPC: 2.683 cumulative IPC: 1.01 (Simulation time: 04 hr 33 min 39 sec)
Heartbeat CPU 1 instructions: 750000000 cycles: 477342426 heartbeat IPC: 1.752 cumulative IPC: 1.461 (Simulation time: 04 hr 34 min 44 sec)
Heartbeat CPU 3 instructions: 550000001 cycles: 479358744 heartbeat IPC: 2.6 cumulative IPC: 1.023 (Simulation time: 04 hr 35 min 57 sec)
Heartbeat CPU 2 instructions: 510000001 cycles: 480274313 heartbeat IPC: 1.151 cumulative IPC: 0.9573 (Simulation time: 04 hr 36 min 30 sec)
Heartbeat CPU 1 instructions: 760000000 cycles: 482430190 heartbeat IPC: 1.965 cumulative IPC: 1.466 (Simulation time: 04 hr 37 min 47 sec)
Heartbeat CPU 3 instructions: 560000000 cycles: 483863769 heartbeat IPC: 2.22 cumulative IPC: 1.035 (Simulation time: 04 hr 38 min 39 sec)
Heartbeat CPU 1 instructions: 770000004 cycles: 487701001 heartbeat IPC: 1.897 cumulative IPC: 1.471 (Simulation time: 04 hr 40 min 55 sec)
Heartbeat CPU 2 instructions: 520000000 cycles: 488022116 heartbeat IPC: 1.291 cumulative IPC: 0.9628 (Simulation time: 04 hr 41 min 07 sec)
Heartbeat CPU 3 instructions: 570000002 cycles: 488996275 heartbeat IPC: 1.948 cumulative IPC: 1.045 (Simulation time: 04 hr 41 min 42 sec)
Heartbeat CPU 1 instructions: 780000003 cycles: 492878676 heartbeat IPC: 1.931 cumulative IPC: 1.476 (Simulation time: 04 hr 44 min 02 sec)
Heartbeat CPU 3 instructions: 580000003 cycles: 494342237 heartbeat IPC: 1.871 cumulative IPC: 1.054 (Simulation time: 04 hr 44 min 51 sec)
Heartbeat CPU 2 instructions: 530000001 cycles: 495700425 heartbeat IPC: 1.302 cumulative IPC: 0.9683 (Simulation time: 04 hr 45 min 33 sec)
Heartbeat CPU 3 instructions: 590000000 cycles: 500694217 heartbeat IPC: 1.574 cumulative IPC: 1.061 (Simulation time: 04 hr 47 min 48 sec)
Heartbeat CPU 2 instructions: 540000000 cycles: 505350478 heartbeat IPC: 1.036 cumulative IPC: 0.9697 (Simulation time: 04 hr 50 min 09 sec)
Heartbeat CPU 3 instructions: 600000000 cycles: 505416020 heartbeat IPC: 2.118 cumulative IPC: 1.071 (Simulation time: 04 hr 50 min 12 sec)
Heartbeat CPU 0 instructions: 130000002 cycles: 505870674 heartbeat IPC: 0.1409 cumulative IPC: 0.1649 (Simulation time: 04 hr 50 min 29 sec)
Heartbeat CPU 2 instructions: 550000004 cycles: 515628601 heartbeat IPC: 0.9729 cumulative IPC: 0.9698 (Simulation time: 04 hr 55 min 06 sec)
Heartbeat CPU 1 instructions: 790000001 cycles: 519192731 heartbeat IPC: 0.38 cumulative IPC: 1.418 (Simulation time: 04 hr 57 min 08 sec)
Heartbeat CPU 3 instructions: 610000004 cycles: 520556106 heartbeat IPC: 0.6605 cumulative IPC: 1.059 (Simulation time: 04 hr 57 min 50 sec)
Heartbeat CPU 2 instructions: 560000001 cycles: 524848319 heartbeat IPC: 1.085 cumulative IPC: 0.9719 (Simulation time: 04 hr 59 min 51 sec)
Heartbeat CPU 1 instructions: 800000003 cycles: 527682200 heartbeat IPC: 1.178 cumulative IPC: 1.414 (Simulation time: 05 hr 01 min 04 sec)
Heartbeat CPU 2 instructions: 570000004 cycles: 534427275 heartbeat IPC: 1.044 cumulative IPC: 0.9732 (Simulation time: 05 hr 04 min 04 sec)
Heartbeat CPU 1 instructions: 810000003 cycles: 538501352 heartbeat IPC: 0.9243 cumulative IPC: 1.404 (Simulation time: 05 hr 05 min 57 sec)
Heartbeat CPU 2 instructions: 580000000 cycles: 543669953 heartbeat IPC: 1.082 cumulative IPC: 0.9751 (Simulation time: 05 hr 08 min 16 sec)
Heartbeat CPU 1 instructions: 820000001 cycles: 550636859 heartbeat IPC: 0.824 cumulative IPC: 1.391 (Simulation time: 05 hr 11 min 29 sec)
Heartbeat CPU 2 instructions: 590000001 cycles: 553657274 heartbeat IPC: 1.001 cumulative IPC: 0.9756 (Simulation time: 05 hr 12 min 50 sec)
Heartbeat CPU 1 instructions: 830000003 cycles: 562797006 heartbeat IPC: 0.8224 cumulative IPC: 1.378 (Simulation time: 05 hr 16 min 51 sec)
Heartbeat CPU 2 instructions: 600000000 cycles: 564421312 heartbeat IPC: 0.929 cumulative IPC: 0.9747 (Simulation time: 05 hr 17 min 33 sec)
Heartbeat CPU 3 instructions: 620000001 cycles: 567919136 heartbeat IPC: 0.2111 cumulative IPC: 0.9856 (Simulation time: 05 hr 19 min 25 sec)
Heartbeat CPU 1 instructions: 840000000 cycles: 569603703 heartbeat IPC: 1.469 cumulative IPC: 1.379 (Simulation time: 05 hr 20 min 22 sec)
Heartbeat CPU 3 instructions: 630000004 cycles: 572326268 heartbeat IPC: 2.269 cumulative IPC: 0.9958 (Simulation time: 05 hr 22 min 11 sec)
Heartbeat CPU 2 instructions: 610000000 cycles: 572396444 heartbeat IPC: 1.254 cumulative IPC: 0.9787 (Simulation time: 05 hr 22 min 13 sec)
Heartbeat CPU 1 instructions: 850000002 cycles: 574487640 heartbeat IPC: 2.048 cumulative IPC: 1.385 (Simulation time: 05 hr 23 min 39 sec)
Heartbeat CPU 3 instructions: 640000004 cycles: 575976762 heartbeat IPC: 2.739 cumulative IPC: 1.007 (Simulation time: 05 hr 24 min 35 sec)
Heartbeat CPU 3 instructions: 650000000 cycles: 580297585 heartbeat IPC: 2.314 cumulative IPC: 1.017 (Simulation time: 05 hr 26 min 42 sec)
Heartbeat CPU 2 instructions: 620000000 cycles: 584443309 heartbeat IPC: 0.8301 cumulative IPC: 0.9756 (Simulation time: 05 hr 28 min 38 sec)
Heartbeat CPU 3 instructions: 660000001 cycles: 585711286 heartbeat IPC: 1.847 cumulative IPC: 1.025 (Simulation time: 05 hr 29 min 18 sec)
Heartbeat CPU 3 instructions: 670000000 cycles: 591547193 heartbeat IPC: 1.714 cumulative IPC: 1.032 (Simulation time: 05 hr 32 min 11 sec)
Heartbeat CPU 1 instructions: 860000002 cycles: 594925788 heartbeat IPC: 0.4893 cumulative IPC: 1.353 (Simulation time: 05 hr 33 min 52 sec)
Heartbeat CPU 2 instructions: 630000002 cycles: 595417976 heartbeat IPC: 0.9112 cumulative IPC: 0.9743 (Simulation time: 05 hr 34 min 09 sec)
Heartbeat CPU 0 instructions: 140000001 cycles: 596146708 heartbeat IPC: 0.1108 cumulative IPC: 0.1564 (Simulation time: 05 hr 34 min 37 sec)
Heartbeat CPU 3 instructions: 680000001 cycles: 596426950 heartbeat IPC: 2.049 cumulative IPC: 1.041 (Simulation time: 05 hr 34 min 47 sec)
Heartbeat CPU 1 instructions: 870000004 cycles: 599257478 heartbeat IPC: 2.309 cumulative IPC: 1.36 (Simulation time: 05 hr 37 min 03 sec)
Heartbeat CPU 3 instructions: 690000000 cycles: 600731381 heartbeat IPC: 2.323 cumulative IPC: 1.051 (Simulation time: 05 hr 38 min 18 sec)
Heartbeat CPU 2 instructions: 640000002 cycles: 602712801 heartbeat IPC: 1.371 cumulative IPC: 0.9793 (Simulation time: 05 hr 40 min 13 sec)
Heartbeat CPU 1 instructions: 880000000 cycles: 603868490 heartbeat IPC: 2.169 cumulative IPC: 1.367 (Simulation time: 05 hr 41 min 01 sec)
Heartbeat CPU 1 instructions: 890000002 cycles: 609970759 heartbeat IPC: 1.639 cumulative IPC: 1.37 (Simulation time: 05 hr 45 min 16 sec)
Heartbeat CPU 3 instructions: 700000000 cycles: 610041838 heartbeat IPC: 1.074 cumulative IPC: 1.051 (Simulation time: 05 hr 45 min 19 sec)
Heartbeat CPU 2 instructions: 650000000 cycles: 611377796 heartbeat IPC: 1.154 cumulative IPC: 0.9819 (Simulation time: 05 hr 46 min 12 sec)
Heartbeat CPU 1 instructions: 900000002 cycles: 619424328 heartbeat IPC: 1.058 cumulative IPC: 1.365 (Simulation time: 05 hr 50 min 31 sec)
Heartbeat CPU 2 instructions: 660000000 cycles: 622253630 heartbeat IPC: 0.9195 cumulative IPC: 0.9807 (Simulation time: 05 hr 51 min 44 sec)
Heartbeat CPU 1 instructions: 910000001 cycles: 635507906 heartbeat IPC: 0.6218 cumulative IPC: 1.345 (Simulation time: 05 hr 58 min 54 sec)
Heartbeat CPU 2 instructions: 670000004 cycles: 635818595 heartbeat IPC: 0.7372 cumulative IPC: 0.9754 (Simulation time: 05 hr 59 min 05 sec)
Heartbeat CPU 1 instructions: 920000004 cycles: 649640462 heartbeat IPC: 0.7076 cumulative IPC: 1.331 (Simulation time: 06 hr 05 min 40 sec)
Heartbeat CPU 2 instructions: 680000004 cycles: 652165469 heartbeat IPC: 0.6117 cumulative IPC: 0.9659 (Simulation time: 06 hr 06 min 44 sec)
Heartbeat CPU 1 instructions: 930000000 cycles: 659817123 heartbeat IPC: 0.9826 cumulative IPC: 1.325 (Simulation time: 06 hr 10 min 29 sec)
Heartbeat CPU 2 instructions: 690000000 cycles: 661420943 heartbeat IPC: 1.08 cumulative IPC: 0.9676 (Simulation time: 06 hr 11 min 14 sec)
Heartbeat CPU 3 instructions: 710000000 cycles: 662493924 heartbeat IPC: 0.1907 cumulative IPC: 0.9806 (Simulation time: 06 hr 11 min 44 sec)
Heartbeat CPU 3 instructions: 720000002 cycles: 668160617 heartbeat IPC: 1.765 cumulative IPC: 0.9874 (Simulation time: 06 hr 14 min 29 sec)
Heartbeat CPU 2 instructions: 700000000 cycles: 669925843 heartbeat IPC: 1.176 cumulative IPC: 0.9703 (Simulation time: 06 hr 15 min 24 sec)
Heartbeat CPU 3 instructions: 730000003 cycles: 672173691 heartbeat IPC: 2.492 cumulative IPC: 0.9967 (Simulation time: 06 hr 16 min 51 sec)
Heartbeat CPU 3 instructions: 740000000 cycles: 677008851 heartbeat IPC: 2.068 cumulative IPC: 1.005 (Simulation time: 06 hr 19 min 48 sec)
Heartbeat CPU 2 instructions: 710000002 cycles: 679255603 heartbeat IPC: 1.072 cumulative IPC: 0.9718 (Simulation time: 06 hr 21 min 02 sec)
Heartbeat CPU 3 instructions: 750000003 cycles: 682179790 heartbeat IPC: 1.934 cumulative IPC: 1.012 (Simulation time: 06 hr 22 min 52 sec)
Heartbeat CPU 1 instructions: 940000000 cycles: 683076855 heartbeat IPC: 0.4299 cumulative IPC: 1.294 (Simulation time: 06 hr 23 min 30 sec)
Heartbeat CPU 0 instructions: 150000003 cycles: 683585353 heartbeat IPC: 0.1144 cumulative IPC: 0.1509 (Simulation time: 06 hr 23 min 52 sec)
Heartbeat CPU 3 instructions: 760000000 cycles: 687155589 heartbeat IPC: 2.01 cumulative IPC: 1.019 (Simulation time: 06 hr 26 min 13 sec)
Heartbeat CPU 1 instructions: 950000001 cycles: 687449506 heartbeat IPC: 2.287 cumulative IPC: 1.3 (Simulation time: 06 hr 26 min 24 sec)
Heartbeat CPU 2 instructions: 720000004 cycles: 687766874 heartbeat IPC: 1.175 cumulative IPC: 0.9744 (Simulation time: 06 hr 26 min 36 sec)
Heartbeat CPU 3 instructions: 770000003 cycles: 691943265 heartbeat IPC: 2.089 cumulative IPC: 1.027 (Simulation time: 06 hr 29 min 13 sec)
Heartbeat CPU 1 instructions: 960000000 cycles: 691943757 heartbeat IPC: 2.225 cumulative IPC: 1.307 (Simulation time: 06 hr 29 min 13 sec)
Heartbeat CPU 2 instructions: 730000000 cycles: 695109088 heartbeat IPC: 1.362 cumulative IPC: 0.9786 (Simulation time: 06 hr 31 min 13 sec)
Heartbeat CPU 1 instructions: 970000000 cycles: 696091901 heartbeat IPC: 2.411 cumulative IPC: 1.313 (Simulation time: 06 hr 31 min 51 sec)
Heartbeat CPU 3 instructions: 780000001 cycles: 696291626 heartbeat IPC: 2.3 cumulative IPC: 1.035 (Simulation time: 06 hr 31 min 58 sec)
Heartbeat CPU 1 instructions: 980000002 cycles: 700490260 heartbeat IPC: 2.274 cumulative IPC: 1.32 (Simulation time: 06 hr 34 min 32 sec)
Heartbeat CPU 2 instructions: 740000000 cycles: 702328252 heartbeat IPC: 1.385 cumulative IPC: 0.9829 (Simulation time: 06 hr 35 min 37 sec)
Heartbeat CPU 3 instructions: 790000002 cycles: 703177776 heartbeat IPC: 1.452 cumulative IPC: 1.039 (Simulation time: 06 hr 36 min 08 sec)
Heartbeat CPU 1 instructions: 990000002 cycles: 705953722 heartbeat IPC: 1.83 cumulative IPC: 1.324 (Simulation time: 06 hr 37 min 31 sec)
Heartbeat CPU 2 instructions: 750000002 cycles: 712743836 heartbeat IPC: 0.9601 cumulative IPC: 0.9825 (Simulation time: 06 hr 40 min 38 sec)
Heartbeat CPU 1 instructions: 1000000003 cycles: 715506446 heartbeat IPC: 1.047 cumulative IPC: 1.32 (Simulation time: 06 hr 41 min 46 sec)
Heartbeat CPU 2 instructions: 760000000 cycles: 738601324 heartbeat IPC: 0.3867 cumulative IPC: 0.9611 (Simulation time: 06 hr 50 min 07 sec)
Heartbeat CPU 0 instructions: 160000002 cycles: 744965349 heartbeat IPC: 0.1629 cumulative IPC: 0.1519 (Simulation time: 06 hr 52 min 30 sec)
Heartbeat CPU 2 instructions: 770000004 cycles: 755366809 heartbeat IPC: 0.5965 cumulative IPC: 0.9528 (Simulation time: 06 hr 56 min 44 sec)
Heartbeat CPU 3 instructions: 800000000 cycles: 758948371 heartbeat IPC: 0.1793 cumulative IPC: 0.9744 (Simulation time: 06 hr 58 min 20 sec)
Heartbeat CPU 3 instructions: 810000001 cycles: 764478543 heartbeat IPC: 1.808 cumulative IPC: 0.9806 (Simulation time: 07 hr 01 min 52 sec)
Heartbeat CPU 2 instructions: 780000000 cycles: 766002360 heartbeat IPC: 0.9402 cumulative IPC: 0.9526 (Simulation time: 07 hr 02 min 58 sec)
Heartbeat CPU 1 instructions: 1010000003 cycles: 767055918 heartbeat IPC: 0.194 cumulative IPC: 1.242 (Simulation time: 07 hr 03 min 50 sec)
Heartbeat CPU 3 instructions: 820000003 cycles: 768116885 heartbeat IPC: 2.749 cumulative IPC: 0.9892 (Simulation time: 07 hr 04 min 42 sec)
Heartbeat CPU 1 instructions: 1020000002 cycles: 771906138 heartbeat IPC: 2.062 cumulative IPC: 1.247 (Simulation time: 07 hr 07 min 41 sec)
Heartbeat CPU 3 instructions: 830000001 cycles: 772582460 heartbeat IPC: 2.239 cumulative IPC: 0.9966 (Simulation time: 07 hr 08 min 10 sec)
Heartbeat CPU 2 instructions: 790000000 cycles: 773159766 heartbeat IPC: 1.397 cumulative IPC: 0.9568 (Simulation time: 07 hr 08 min 38 sec)
Heartbeat CPU 1 instructions: 1030000000 cycles: 776495870 heartbeat IPC: 2.179 cumulative IPC: 1.253 (Simulation time: 07 hr 11 min 23 sec)
Heartbeat CPU 3 instructions: 840000001 cycles: 777071947 heartbeat IPC: 2.227 cumulative IPC: 1.004 (Simulation time: 07 hr 11 min 52 sec)
Heartbeat CPU 2 instructions: 800000002 cycles: 778387175 heartbeat IPC: 1.913 cumulative IPC: 0.9634 (Simulation time: 07 hr 12 min 57 sec)
Heartbeat CPU 1 instructions: 1040000001 cycles: 780839159 heartbeat IPC: 2.302 cumulative IPC: 1.259 (Simulation time: 07 hr 15 min 00 sec)
Heartbeat CPU 3 instructions: 850000003 cycles: 781977392 heartbeat IPC: 2.039 cumulative IPC: 1.011 (Simulation time: 07 hr 15 min 54 sec)
Heartbeat CPU 2 instructions: 810000002 cycles: 784373248 heartbeat IPC: 1.671 cumulative IPC: 0.9689 (Simulation time: 07 hr 17 min 36 sec)
Heartbeat CPU 1 instructions: 1050000000 cycles: 785185877 heartbeat IPC: 2.301 cumulative IPC: 1.265 (Simulation time: 07 hr 18 min 14 sec)
Heartbeat CPU 3 instructions: 860000001 cycles: 786593715 heartbeat IPC: 2.166 cumulative IPC: 1.018 (Simulation time: 07 hr 19 min 09 sec)
Heartbeat CPU 1 instructions: 1060000003 cycles: 789525507 heartbeat IPC: 2.304 cumulative IPC: 1.271 (Simulation time: 07 hr 20 min 49 sec)
Heartbeat CPU 0 instructions: 170000001 cycles: 790591631 heartbeat IPC: 0.2192 cumulative IPC: 0.1559 (Simulation time: 07 hr 21 min 37 sec)
Heartbeat CPU 3 instructions: 870000000 cycles: 791288564 heartbeat IPC: 2.13 cumulative IPC: 1.024 (Simulation time: 07 hr 22 min 12 sec)
Heartbeat CPU 2 instructions: 820000000 cycles: 792967305 heartbeat IPC: 1.164 cumulative IPC: 0.9711 (Simulation time: 07 hr 23 min 16 sec)
Heartbeat CPU 1 instructions: 1070000002 cycles: 793637378 heartbeat IPC: 2.432 cumulative IPC: 1.277 (Simulation time: 07 hr 23 min 44 sec)
Heartbeat CPU 3 instructions: 880000000 cycles: 798023933 heartbeat IPC: 1.485 cumulative IPC: 1.028 (Simulation time: 07 hr 26 min 38 sec)
Heartbeat CPU 2 instructions: 830000000 cycles: 802311570 heartbeat IPC: 1.07 cumulative IPC: 0.9723 (Simulation time: 07 hr 28 min 26 sec)
Heartbeat CPU 1 instructions: 1080000003 cycles: 808610068 heartbeat IPC: 0.6679 cumulative IPC: 1.265 (Simulation time: 07 hr 30 min 45 sec)
Heartbeat CPU 2 instructions: 840000004 cycles: 826055478 heartbeat IPC: 0.4212 cumulative IPC: 0.956 (Simulation time: 07 hr 37 min 32 sec)
Heartbeat CPU 2 instructions: 850000000 cycles: 840325745 heartbeat IPC: 0.7008 cumulative IPC: 0.9516 (Simulation time: 07 hr 43 min 15 sec)
Heartbeat CPU 1 instructions: 1090000001 cycles: 847165351 heartbeat IPC: 0.2594 cumulative IPC: 1.218 (Simulation time: 07 hr 46 min 05 sec)
Heartbeat CPU 3 instructions: 890000004 cycles: 855872343 heartbeat IPC: 0.1729 cumulative IPC: 0.969 (Simulation time: 07 hr 49 min 47 sec)
Heartbeat CPU 2 instructions: 860000000 cycles: 856830942 heartbeat IPC: 0.6059 cumulative IPC: 0.9448 (Simulation time: 07 hr 50 min 12 sec)
Heartbeat CPU 1 instructions: 1100000003 cycles: 857653844 heartbeat IPC: 0.9534 cumulative IPC: 1.215 (Simulation time: 07 hr 50 min 42 sec)
Heartbeat CPU 3 instructions: 900000000 cycles: 860374462 heartbeat IPC: 2.221 cumulative IPC: 0.9758 (Simulation time: 07 hr 52 min 14 sec)
Heartbeat CPU 1 instructions: 1110000000 cycles: 862837906 heartbeat IPC: 1.929 cumulative IPC: 1.22 (Simulation time: 07 hr 53 min 44 sec)
Heartbeat CPU 3 instructions: 910000000 cycles: 864003964 heartbeat IPC: 2.755 cumulative IPC: 0.9834 (Simulation time: 07 hr 54 min 28 sec)
Heartbeat CPU 2 instructions: 870000002 cycles: 865539246 heartbeat IPC: 1.148 cumulative IPC: 0.9469 (Simulation time: 07 hr 55 min 23 sec)
Heartbeat CPU 1 instructions: 1120000000 cycles: 867547107 heartbeat IPC: 2.124 cumulative IPC: 1.225 (Simulation time: 07 hr 56 min 40 sec)
Heartbeat CPU 3 instructions: 920000000 cycles: 867557493 heartbeat IPC: 2.814 cumulative IPC: 0.9911 (Simulation time: 07 hr 56 min 40 sec)
Heartbeat CPU 0 instructions: 180000001 cycles: 870496578 heartbeat IPC: 0.1251 cumulative IPC: 0.153 (Simulation time: 07 hr 58 min 24 sec)
Heartbeat CPU 1 instructions: 1130000001 cycles: 872235184 heartbeat IPC: 2.133 cumulative IPC: 1.23 (Simulation time: 07 hr 59 min 25 sec)
Heartbeat CPU 3 instructions: 930000001 cycles: 872349308 heartbeat IPC: 2.087 cumulative IPC: 0.9973 (Simulation time: 07 hr 59 min 30 sec)
Heartbeat CPU 2 instructions: 880000001 cycles: 872688676 heartbeat IPC: 1.399 cumulative IPC: 0.9507 (Simulation time: 07 hr 59 min 41 sec)
Heartbeat CPU 1 instructions: 1140000003 cycles: 876719661 heartbeat IPC: 2.23 cumulative IPC: 1.235 (Simulation time: 08 hr 02 min 11 sec)
Heartbeat CPU 3 instructions: 940000004 cycles: 877328142 heartbeat IPC: 2.009 cumulative IPC: 1.003 (Simulation time: 08 hr 02 min 33 sec)
Heartbeat CPU 2 instructions: 890000000 cycles: 878434716 heartbeat IPC: 1.74 cumulative IPC: 0.956 (Simulation time: 08 hr 03 min 14 sec)
Heartbeat CPU 1 instructions: 1150000000 cycles: 881070924 heartbeat IPC: 2.298 cumulative IPC: 1.24 (Simulation time: 08 hr 04 min 46 sec)
Heartbeat CPU 3 instructions: 950000002 cycles: 882317061 heartbeat IPC: 2.004 cumulative IPC: 1.009 (Simulation time: 08 hr 05 min 31 sec)
Heartbeat CPU 2 instructions: 900000000 cycles: 887917125 heartbeat IPC: 1.055 cumulative IPC: 0.957 (Simulation time: 08 hr 08 min 06 sec)
Heartbeat CPU 3 instructions: 960000000 cycles: 888089577 heartbeat IPC: 1.732 cumulative IPC: 1.014 (Simulation time: 08 hr 08 min 11 sec)
Heartbeat CPU 3 instructions: 970000002 cycles: 892658479 heartbeat IPC: 2.189 cumulative IPC: 1.02 (Simulation time: 08 hr 10 min 33 sec)
Heartbeat CPU 2 instructions: 910000004 cycles: 897365080 heartbeat IPC: 1.058 cumulative IPC: 0.9581 (Simulation time: 08 hr 12 min 29 sec)
Heartbeat CPU 1 instructions: 1160000000 cycles: 901377289 heartbeat IPC: 0.4925 cumulative IPC: 1.223 (Simulation time: 08 hr 14 min 19 sec)
Heartbeat CPU 3 instructions: 980000001 cycles: 904643986 heartbeat IPC: 0.8343 cumulative IPC: 1.017 (Simulation time: 08 hr 15 min 56 sec)
Heartbeat CPU 2 instructions: 920000000 cycles: 906000200 heartbeat IPC: 1.158 cumulative IPC: 0.9601 (Simulation time: 08 hr 16 min 35 sec)
Heartbeat CPU 1 instructions: 1170000000 cycles: 908303705 heartbeat IPC: 1.444 cumulative IPC: 1.225 (Simulation time: 08 hr 17 min 35 sec)
Heartbeat CPU 2 instructions: 930000004 cycles: 916461677 heartbeat IPC: 0.9559 cumulative IPC: 0.96 (Simulation time: 08 hr 20 min 52 sec)
Heartbeat CPU 1 instructions: 1180000002 cycles: 920615008 heartbeat IPC: 0.8123 cumulative IPC: 1.219 (Simulation time: 08 hr 22 min 36 sec)
Heartbeat CPU 1 instructions: 1190000000 cycles: 934932542 heartbeat IPC: 0.6984 cumulative IPC: 1.211 (Simulation time: 08 hr 27 min 42 sec)
Heartbeat CPU 2 instructions: 940000004 cycles: 938486364 heartbeat IPC: 0.454 cumulative IPC: 0.9479 (Simulation time: 08 hr 28 min 58 sec)
Heartbeat CPU 0 instructions: 190000003 cycles: 945546197 heartbeat IPC: 0.1332 cumulative IPC: 0.1514 (Simulation time: 08 hr 31 min 33 sec)
Heartbeat CPU 1 instructions: 1200000000 cycles: 948594512 heartbeat IPC: 0.732 cumulative IPC: 1.204 (Simulation time: 08 hr 32 min 42 sec)
Heartbeat CPU 3 instructions: 990000001 cycles: 951840895 heartbeat IPC: 0.2119 cumulative IPC: 0.9766 (Simulation time: 08 hr 34 min 16 sec)
Heartbeat CPU 2 instructions: 950000002 cycles: 952539205 heartbeat IPC: 0.7116 cumulative IPC: 0.9443 (Simulation time: 08 hr 34 min 38 sec)
Heartbeat CPU 1 instructions: 1210000000 cycles: 955001677 heartbeat IPC: 1.561 cumulative IPC: 1.206 (Simulation time: 08 hr 35 min 55 sec)
Heartbeat CPU 3 instructions: 1000000002 cycles: 956478952 heartbeat IPC: 2.156 cumulative IPC: 0.9824 (Simulation time: 08 hr 36 min 51 sec)
Heartbeat CPU 3 instructions: 1010000000 cycles: 960091664 heartbeat IPC: 2.768 cumulative IPC: 0.9893 (Simulation time: 08 hr 38 min 49 sec)
Heartbeat CPU 1 instructions: 1220000004 cycles: 960189579 heartbeat IPC: 1.928 cumulative IPC: 1.21 (Simulation time: 08 hr 38 min 53 sec)
Heartbeat CPU 2 instructions: 960000000 cycles: 961004736 heartbeat IPC: 1.181 cumulative IPC: 0.9465 (Simulation time: 08 hr 39 min 21 sec)
Heartbeat CPU 3 instructions: 1020000001 cycles: 963876164 heartbeat IPC: 2.642 cumulative IPC: 0.9959 (Simulation time: 08 hr 41 min 01 sec)
Heartbeat CPU 2 instructions: 970000000 cycles: 969659208 heartbeat IPC: 1.155 cumulative IPC: 0.9484 (Simulation time: 08 hr 43 min 34 sec)
Heartbeat CPU 3 instructions: 1030000000 cycles: 970090869 heartbeat IPC: 1.609 cumulative IPC: 0.9999 (Simulation time: 08 hr 43 min 44 sec)
Heartbeat CPU 3 instructions: 1040000001 cycles: 975317691 heartbeat IPC: 1.913 cumulative IPC: 1.005 (Simulation time: 08 hr 46 min 07 sec)
Heartbeat CPU 2 instructions: 980000001 cycles: 978764388 heartbeat IPC: 1.098 cumulative IPC: 0.9498 (Simulation time: 08 hr 47 min 40 sec)
Heartbeat CPU 1 instructions: 1230000000 cycles: 980371647 heartbeat IPC: 0.4955 cumulative IPC: 1.195 (Simulation time: 08 hr 48 min 25 sec)
Heartbeat CPU 3 instructions: 1050000003 cycles: 980918920 heartbeat IPC: 1.785 cumulative IPC: 1.009 (Simulation time: 08 hr 48 min 40 sec)
Heartbeat CPU 3 instructions: 1060000004 cycles: 987234826 heartbeat IPC: 1.583 cumulative IPC: 1.013 (Simulation time: 08 hr 51 min 40 sec)
Heartbeat CPU 2 instructions: 990000001 cycles: 988062646 heartbeat IPC: 1.075 cumulative IPC: 0.951 (Simulation time: 08 hr 52 min 02 sec)
Heartbeat CPU 3 instructions: 1070000001 cycles: 992147300 heartbeat IPC: 2.036 cumulative IPC: 1.018 (Simulation time: 08 hr 53 min 56 sec)
Heartbeat CPU 2 instructions: 1000000001 cycles: 997558446 heartbeat IPC: 1.053 cumulative IPC: 0.952 (Simulation time: 08 hr 56 min 07 sec)
Heartbeat CPU 2 instructions: 1010000000 cycles: 1006227715 heartbeat IPC: 1.153 cumulative IPC: 0.9538 (Simulation time: 08 hr 59 min 56 sec)
Heartbeat CPU 1 instructions: 1240000001 cycles: 1006397224 heartbeat IPC: 0.3842 cumulative IPC: 1.174 (Simulation time: 09 hr 00 min 01 sec)
Heartbeat CPU 2 instructions: 1020000001 cycles: 1030056259 heartbeat IPC: 0.4197 cumulative IPC: 0.9411 (Simulation time: 09 hr 08 min 31 sec)
Heartbeat CPU 0 instructions: 200000001 cycles: 1038451712 heartbeat IPC: 0.1076 cumulative IPC: 0.1474 (Simulation time: 09 hr 11 min 26 sec)
Simulation finished CPU 0 instructions: 150000002 cycles: 1017579545 cumulative IPC: 0.1474 (Simulation time: 09 hr 11 min 26 sec)
Simulation complete CPU 0 instructions: 150000002 cycles: 1017579545 cumulative IPC: 0.1474 (Simulation time: 09 hr 11 min 26 sec)
Simulation complete CPU 1 instructions: 1160287756 cycles: 1017579545 cumulative IPC: 1.14 (Simulation time: 09 hr 11 min 26 sec)
Simulation complete CPU 2 instructions: 953555792 cycles: 1017579545 cumulative IPC: 0.9371 (Simulation time: 09 hr 11 min 26 sec)
Simulation complete CPU 3 instructions: 998675956 cycles: 1017579545 cumulative IPC: 0.9814 (Simulation time: 09 hr 11 min 26 sec)

ChampSim completed all CPUs

=== Simulation ===
CPU 0 runs /home/das/dpc3_traces/620.omnetpp_s-874B.champsimtrace.xzCPU 1 runs /home/das/dpc3_traces/654.roms_s-842B.champsimtrace.xzCPU 2 runs /home/das/dpc3_traces/623.xalancbmk_s-700B.champsimtrace.xzCPU 3 runs /home/das/dpc3_traces/627.cam4_s-573B.champsimtrace.xz
Total Simulation Statistics (not including warmup)

CPU 0 cumulative IPC: 0.1474 instructions: 150000002 cycles: 1017579545
CPU 0 Branch Prediction Accuracy: 94.9% MPKI: 10.6 Average ROB Occupancy at Mispredict: 82.1
Branch type MPKI
BRANCH_DIRECT_JUMP: 0.923
BRANCH_INDIRECT: 0.128
BRANCH_CONDITIONAL: 8.42
BRANCH_DIRECT_CALL: 0.00016
BRANCH_INDIRECT_CALL: 0.734
BRANCH_RETURN: 0.399


CPU 1 cumulative IPC: 1.14 instructions: 1160287756 cycles: 1017579545
CPU 1 Branch Prediction Accuracy: 90.42% MPKI: 11.89 Average ROB Occupancy at Mispredict: 98.01
Branch type MPKI
BRANCH_DIRECT_JUMP: 0.0537
BRANCH_INDIRECT: 0
BRANCH_CONDITIONAL: 6.9
BRANCH_DIRECT_CALL: 6.89e-06
BRANCH_INDIRECT_CALL: 0
BRANCH_RETURN: 4.94


CPU 2 cumulative IPC: 0.9371 instructions: 953555792 cycles: 1017579545
CPU 2 Branch Prediction Accuracy: 97.23% MPKI: 7.915 Average ROB Occupancy at Mispredict: 41.4
Branch type MPKI
BRANCH_DIRECT_JUMP: 0.109
BRANCH_INDIRECT: 0.339
BRANCH_CONDITIONAL: 5.67
BRANCH_DIRECT_CALL: 0.00028
BRANCH_INDIRECT_CALL: 0.37
BRANCH_RETURN: 1.43


CPU 3 cumulative IPC: 0.9814 instructions: 998675956 cycles: 1017579545
CPU 3 Branch Prediction Accuracy: 94.72% MPKI: 7.106 Average ROB Occupancy at Mispredict: 66.2
Branch type MPKI
BRANCH_DIRECT_JUMP: 0.00542
BRANCH_INDIRECT: 0.00154
BRANCH_CONDITIONAL: 6.45
BRANCH_DIRECT_CALL: 0.0184
BRANCH_INDIRECT_CALL: 0
BRANCH_RETURN: 0.627

LLC TOTAL        ACCESS:    4784206 HIT:    1939849 MISS:    2844357
LLC LOAD         ACCESS:    1680618 HIT:     511290 MISS:    1169328
LLC RFO          ACCESS:     257171 HIT:     128308 MISS:     128863
LLC PREFETCH     ACCESS:    1285417 HIT:     373921 MISS:     911496
LLC WRITE        ACCESS:     964548 HIT:     868204 MISS:      96344
LLC TRANSLATION  ACCESS:     596452 HIT:      58126 MISS:     538326
LLC PREFETCH REQUESTED:          0 ISSUED:          0 USEFUL:          0 USELESS:          0
LLC AVERAGE MISS LATENCY: 2215 cycles
LLC TOTAL        ACCESS:    5889130 HIT:    1594004 MISS:    4295126
LLC LOAD         ACCESS:    1210193 HIT:     251334 MISS:     958859
LLC RFO          ACCESS:    1202020 HIT:       4123 MISS:    1197897
LLC PREFETCH     ACCESS:    2263705 HIT:     202753 MISS:    2060952
LLC WRITE        ACCESS:    1201379 HIT:    1133069 MISS:      68310
LLC TRANSLATION  ACCESS:      11833 HIT:       2725 MISS:       9108
LLC PREFETCH REQUESTED:          0 ISSUED:          0 USEFUL:          0 USELESS:          0
LLC AVERAGE MISS LATENCY: 2215 cycles
LLC TOTAL        ACCESS:   20315353 HIT:   18158867 MISS:    2156486
LLC LOAD         ACCESS:    1874225 HIT:    1581961 MISS:     292264
LLC RFO          ACCESS:    1187471 HIT:     100084 MISS:    1087387
LLC PREFETCH     ACCESS:   15620279 HIT:   14974796 MISS:     645483
LLC WRITE        ACCESS:    1433672 HIT:    1378558 MISS:      55114
LLC TRANSLATION  ACCESS:     199706 HIT:     123468 MISS:      76238
LLC PREFETCH REQUESTED:          0 ISSUED:          0 USEFUL:          0 USELESS:          0
LLC AVERAGE MISS LATENCY: 2215 cycles
LLC TOTAL        ACCESS:   11872991 HIT:    5976641 MISS:    5896350
LLC LOAD         ACCESS:     657861 HIT:     265343 MISS:     392518
LLC RFO          ACCESS:    5163434 HIT:     114463 MISS:    5048971
LLC PREFETCH     ACCESS:     795592 HIT:     405835 MISS:     389757
LLC WRITE        ACCESS:    5238923 HIT:    5189432 MISS:      49491
LLC TRANSLATION  ACCESS:      17181 HIT:       1568 MISS:      15613
LLC PREFETCH REQUESTED:          0 ISSUED:          0 USEFUL:          0 USELESS:          0
LLC AVERAGE MISS LATENCY: 2215 cycles
cpu0_DTLB TOTAL        ACCESS:   38249852 HIT:   34952404 MISS:    3297448
cpu0_DTLB LOAD         ACCESS:   38249852 HIT:   34952404 MISS:    3297448
cpu0_DTLB RFO          ACCESS:          0 HIT:          0 MISS:          0
cpu0_DTLB PREFETCH     ACCESS:          0 HIT:          0 MISS:          0
cpu0_DTLB WRITE        ACCESS:          0 HIT:          0 MISS:          0
cpu0_DTLB TRANSLATION  ACCESS:          0 HIT:          0 MISS:          0
cpu0_DTLB PREFETCH REQUESTED:          0 ISSUED:          0 USEFUL:          0 USELESS:          0
cpu0_DTLB AVERAGE MISS LATENCY: 220.2 cycles
cpu0_DTLB TOTAL        ACCESS:          0 HIT:          0 MISS:          0
cpu0_DTLB LOAD         ACCESS:          0 HIT:          0 MISS:          0
cpu0_DTLB RFO          ACCESS:          0 HIT:          0 MISS:          0
cpu0_DTLB PREFETCH     ACCESS:          0 HIT:          0 MISS:          0
cpu0_DTLB WRITE        ACCESS:          0 HIT:          0 MISS:          0
cpu0_DTLB TRANSLATION  ACCESS:          0 HIT:          0 MISS:          0
cpu0_DTLB PREFETCH REQUESTED:          0 ISSUED:          0 USEFUL:          0 USELESS:          0
cpu0_DTLB AVERAGE MISS LATENCY: 220.2 cycles
cpu0_DTLB TOTAL        ACCESS:          0 HIT:          0 MISS:          0
cpu0_DTLB LOAD         ACCESS:          0 HIT:          0 MISS:          0
cpu0_DTLB RFO          ACCESS:          0 HIT:          0 MISS:          0
cpu0_DTLB PREFETCH     ACCESS:          0 HIT:          0 MISS:          0
cpu0_DTLB WRITE        ACCESS:          0 HIT:          0 MISS:          0
cpu0_DTLB TRANSLATION  ACCESS:          0 HIT:          0 MISS:          0
cpu0_DTLB PREFETCH REQUESTED:          0 ISSUED:          0 USEFUL:          0 USELESS:          0
cpu0_DTLB AVERAGE MISS LATENCY: 220.2 cycles
cpu0_DTLB TOTAL        ACCESS:          0 HIT:          0 MISS:          0
cpu0_DTLB LOAD         ACCESS:          0 HIT:          0 MISS:          0
cpu0_DTLB RFO          ACCESS:          0 HIT:          0 MISS:          0
cpu0_DTLB PREFETCH     ACCESS:          0 HIT:          0 MISS:          0
cpu0_DTLB WRITE        ACCESS:          0 HIT:          0 MISS:          0
cpu0_DTLB TRANSLATION  ACCESS:          0 HIT:          0 MISS:          0
cpu0_DTLB PREFETCH REQUESTED:          0 ISSUED:          0 USEFUL:          0 USELESS:          0
cpu0_DTLB AVERAGE MISS LATENCY: 220.2 cycles
cpu0_ITLB TOTAL        ACCESS:   10769735 HIT:   10499045 MISS:     270690
cpu0_ITLB LOAD         ACCESS:   10769735 HIT:   10499045 MISS:     270690
cpu0_ITLB RFO          ACCESS:          0 HIT:          0 MISS:          0
cpu0_ITLB PREFETCH     ACCESS:          0 HIT:          0 MISS:          0
cpu0_ITLB WRITE        ACCESS:          0 HIT:          0 MISS:          0
cpu0_ITLB TRANSLATION  ACCESS:          0 HIT:          0 MISS:          0
cpu0_ITLB PREFETCH REQUESTED:          0 ISSUED:          0 USEFUL:          0 USELESS:          0
cpu0_ITLB AVERAGE MISS LATENCY: 16.27 cycles
cpu0_ITLB TOTAL        ACCESS:          0 HIT:          0 MISS:          0
cpu0_ITLB LOAD         ACCESS:          0 HIT:          0 MISS:          0
cpu0_ITLB RFO          ACCESS:          0 HIT:          0 MISS:          0
cpu0_ITLB PREFETCH     ACCESS:          0 HIT:          0 MISS:          0
cpu0_ITLB WRITE        ACCESS:          0 HIT:          0 MISS:          0
cpu0_ITLB TRANSLATION  ACCESS:          0 HIT:          0 MISS:          0
cpu0_ITLB PREFETCH REQUESTED:          0 ISSUED:          0 USEFUL:          0 USELESS:          0
cpu0_ITLB AVERAGE MISS LATENCY: 16.27 cycles
cpu0_ITLB TOTAL        ACCESS:          0 HIT:          0 MISS:          0
cpu0_ITLB LOAD         ACCESS:          0 HIT:          0 MISS:          0
cpu0_ITLB RFO          ACCESS:          0 HIT:          0 MISS:          0
cpu0_ITLB PREFETCH     ACCESS:          0 HIT:          0 MISS:          0
cpu0_ITLB WRITE        ACCESS:          0 HIT:          0 MISS:          0
cpu0_ITLB TRANSLATION  ACCESS:          0 HIT:          0 MISS:          0
cpu0_ITLB PREFETCH REQUESTED:          0 ISSUED:          0 USEFUL:          0 USELESS:          0
cpu0_ITLB AVERAGE MISS LATENCY: 16.27 cycles
cpu0_ITLB TOTAL        ACCESS:          0 HIT:          0 MISS:          0
cpu0_ITLB LOAD         ACCESS:          0 HIT:          0 MISS:          0
cpu0_ITLB RFO          ACCESS:          0 HIT:          0 MISS:          0
cpu0_ITLB PREFETCH     ACCESS:          0 HIT:          0 MISS:          0
cpu0_ITLB WRITE        ACCESS:          0 HIT:          0 MISS:          0
cpu0_ITLB TRANSLATION  ACCESS:          0 HIT:          0 MISS:          0
cpu0_ITLB PREFETCH REQUESTED:          0 ISSUED:          0 USEFUL:          0 USELESS:          0
cpu0_ITLB AVERAGE MISS LATENCY: 16.27 cycles
cpu0_L1D TOTAL        ACCESS:   49800870 HIT:   44945410 MISS:    4855460
cpu0_L1D LOAD         ACCESS:   22932277 HIT:   19893385 MISS:    3038892
cpu0_L1D RFO          ACCESS:          0 HIT:          0 MISS:          0
cpu0_L1D PREFETCH     ACCESS:          0 HIT:          0 MISS:          0
cpu0_L1D WRITE        ACCESS:   25977377 HIT:   24906819 MISS:    1070558
cpu0_L1D TRANSLATION  ACCESS:     891216 HIT:     145206 MISS:     746010
cpu0_L1D PREFETCH REQUESTED:          0 ISSUED:          0 USEFUL:          0 USELESS:          0
cpu0_L1D AVERAGE MISS LATENCY: 523.1 cycles
cpu0_L1D TOTAL        ACCESS:          0 HIT:          0 MISS:          0
cpu0_L1D LOAD         ACCESS:          0 HIT:          0 MISS:          0
cpu0_L1D RFO          ACCESS:          0 HIT:          0 MISS:          0
cpu0_L1D PREFETCH     ACCESS:          0 HIT:          0 MISS:          0
cpu0_L1D WRITE        ACCESS:          0 HIT:          0 MISS:          0
cpu0_L1D TRANSLATION  ACCESS:          0 HIT:          0 MISS:          0
cpu0_L1D PREFETCH REQUESTED:          0 ISSUED:          0 USEFUL:          0 USELESS:          0
cpu0_L1D AVERAGE MISS LATENCY: 523.1 cycles
cpu0_L1D TOTAL        ACCESS:          0 HIT:          0 MISS:          0
cpu0_L1D LOAD         ACCESS:          0 HIT:          0 MISS:          0
cpu0_L1D RFO          ACCESS:          0 HIT:          0 MISS:          0
cpu0_L1D PREFETCH     ACCESS:          0 HIT:          0 MISS:          0
cpu0_L1D WRITE        ACCESS:          0 HIT:          0 MISS:          0
cpu0_L1D TRANSLATION  ACCESS:          0 HIT:          0 MISS:          0
cpu0_L1D PREFETCH REQUESTED:          0 ISSUED:          0 USEFUL:          0 USELESS:          0
cpu0_L1D AVERAGE MISS LATENCY: 523.1 cycles
cpu0_L1D TOTAL        ACCESS:          0 HIT:          0 MISS:          0
cpu0_L1D LOAD         ACCESS:          0 HIT:          0 MISS:          0
cpu0_L1D RFO          ACCESS:          0 HIT:          0 MISS:          0
cpu0_L1D PREFETCH     ACCESS:          0 HIT:          0 MISS:          0
cpu0_L1D WRITE        ACCESS:          0 HIT:          0 MISS:          0
cpu0_L1D TRANSLATION  ACCESS:          0 HIT:          0 MISS:          0
cpu0_L1D PREFETCH REQUESTED:          0 ISSUED:          0 USEFUL:          0 USELESS:          0
cpu0_L1D AVERAGE MISS LATENCY: 523.1 cycles
cpu0_L1I TOTAL        ACCESS:   12870400 HIT:   12796359 MISS:      74041
cpu0_L1I LOAD         ACCESS:   12870400 HIT:   12796359 MISS:      74041
cpu0_L1I RFO          ACCESS:          0 HIT:          0 MISS:          0
cpu0_L1I PREFETCH     ACCESS:          0 HIT:          0 MISS:          0
cpu0_L1I WRITE        ACCESS:          0 HIT:          0 MISS:          0
cpu0_L1I TRANSLATION  ACCESS:          0 HIT:          0 MISS:          0
cpu0_L1I PREFETCH REQUESTED:          0 ISSUED:          0 USEFUL:          0 USELESS:          0
cpu0_L1I AVERAGE MISS LATENCY: 99.48 cycles
cpu0_L1I TOTAL        ACCESS:          0 HIT:          0 MISS:          0
cpu0_L1I LOAD         ACCESS:          0 HIT:          0 MISS:          0
cpu0_L1I RFO          ACCESS:          0 HIT:          0 MISS:          0
cpu0_L1I PREFETCH     ACCESS:          0 HIT:          0 MISS:          0
cpu0_L1I WRITE        ACCESS:          0 HIT:          0 MISS:          0
cpu0_L1I TRANSLATION  ACCESS:          0 HIT:          0 MISS:          0
cpu0_L1I PREFETCH REQUESTED:          0 ISSUED:          0 USEFUL:          0 USELESS:          0
cpu0_L1I AVERAGE MISS LATENCY: 99.48 cycles
cpu0_L1I TOTAL        ACCESS:          0 HIT:          0 MISS:          0
cpu0_L1I LOAD         ACCESS:          0 HIT:          0 MISS:          0
cpu0_L1I RFO          ACCESS:          0 HIT:          0 MISS:          0
cpu0_L1I PREFETCH     ACCESS:          0 HIT:          0 MISS:          0
cpu0_L1I WRITE        ACCESS:          0 HIT:          0 MISS:          0
cpu0_L1I TRANSLATION  ACCESS:          0 HIT:          0 MISS:          0
cpu0_L1I PREFETCH REQUESTED:          0 ISSUED:          0 USEFUL:          0 USELESS:          0
cpu0_L1I AVERAGE MISS LATENCY: 99.48 cycles
cpu0_L1I TOTAL        ACCESS:          0 HIT:          0 MISS:          0
cpu0_L1I LOAD         ACCESS:          0 HIT:          0 MISS:          0
cpu0_L1I RFO          ACCESS:          0 HIT:          0 MISS:          0
cpu0_L1I PREFETCH     ACCESS:          0 HIT:          0 MISS:          0
cpu0_L1I WRITE        ACCESS:          0 HIT:          0 MISS:          0
cpu0_L1I TRANSLATION  ACCESS:          0 HIT:          0 MISS:          0
cpu0_L1I PREFETCH REQUESTED:          0 ISSUED:          0 USEFUL:          0 USELESS:          0
cpu0_L1I AVERAGE MISS LATENCY: 99.48 cycles
cpu0_L2C TOTAL        ACCESS:    7693818 HIT:    3197892 MISS:    4495926
cpu0_L2C LOAD         ACCESS:    2539618 HIT:     856681 MISS:    1682937
cpu0_L2C RFO          ACCESS:     365367 HIT:     108137 MISS:     257230
cpu0_L2C PREFETCH     ACCESS:    2644176 HIT:     686856 MISS:    1957320
cpu0_L2C WRITE        ACCESS:    1399442 HIT:    1397455 MISS:       1987
cpu0_L2C TRANSLATION  ACCESS:     745215 HIT:     148763 MISS:     596452
cpu0_L2C PREFETCH REQUESTED:    2644217 ISSUED:    2644176 USEFUL:       5224 USELESS:      10534
cpu0_L2C AVERAGE MISS LATENCY: 572.6 cycles
cpu0_L2C TOTAL        ACCESS:          0 HIT:          0 MISS:          0
cpu0_L2C LOAD         ACCESS:          0 HIT:          0 MISS:          0
cpu0_L2C RFO          ACCESS:          0 HIT:          0 MISS:          0
cpu0_L2C PREFETCH     ACCESS:          0 HIT:          0 MISS:          0
cpu0_L2C WRITE        ACCESS:          0 HIT:          0 MISS:          0
cpu0_L2C TRANSLATION  ACCESS:          0 HIT:          0 MISS:          0
cpu0_L2C PREFETCH REQUESTED:    2644217 ISSUED:    2644176 USEFUL:       5224 USELESS:      10534
cpu0_L2C AVERAGE MISS LATENCY: 572.6 cycles
cpu0_L2C TOTAL        ACCESS:          0 HIT:          0 MISS:          0
cpu0_L2C LOAD         ACCESS:          0 HIT:          0 MISS:          0
cpu0_L2C RFO          ACCESS:          0 HIT:          0 MISS:          0
cpu0_L2C PREFETCH     ACCESS:          0 HIT:          0 MISS:          0
cpu0_L2C WRITE        ACCESS:          0 HIT:          0 MISS:          0
cpu0_L2C TRANSLATION  ACCESS:          0 HIT:          0 MISS:          0
cpu0_L2C PREFETCH REQUESTED:    2644217 ISSUED:    2644176 USEFUL:       5224 USELESS:      10534
cpu0_L2C AVERAGE MISS LATENCY: 572.6 cycles
cpu0_L2C TOTAL        ACCESS:          0 HIT:          0 MISS:          0
cpu0_L2C LOAD         ACCESS:          0 HIT:          0 MISS:          0
cpu0_L2C RFO          ACCESS:          0 HIT:          0 MISS:          0
cpu0_L2C PREFETCH     ACCESS:          0 HIT:          0 MISS:          0
cpu0_L2C WRITE        ACCESS:          0 HIT:          0 MISS:          0
cpu0_L2C TRANSLATION  ACCESS:          0 HIT:          0 MISS:          0
cpu0_L2C PREFETCH REQUESTED:    2644217 ISSUED:    2644176 USEFUL:       5224 USELESS:      10534
cpu0_L2C AVERAGE MISS LATENCY: 572.6 cycles
cpu0_STLB TOTAL        ACCESS:    3013799 HIT:    2371375 MISS:     642424
cpu0_STLB LOAD         ACCESS:    3013799 HIT:    2371375 MISS:     642424
cpu0_STLB RFO          ACCESS:          0 HIT:          0 MISS:          0
cpu0_STLB PREFETCH     ACCESS:          0 HIT:          0 MISS:          0
cpu0_STLB WRITE        ACCESS:          0 HIT:          0 MISS:          0
cpu0_STLB TRANSLATION  ACCESS:          0 HIT:          0 MISS:          0
cpu0_STLB PREFETCH REQUESTED:          0 ISSUED:          0 USEFUL:          0 USELESS:          0
cpu0_STLB AVERAGE MISS LATENCY: 1125 cycles
cpu0_STLB TOTAL        ACCESS:          0 HIT:          0 MISS:          0
cpu0_STLB LOAD         ACCESS:          0 HIT:          0 MISS:          0
cpu0_STLB RFO          ACCESS:          0 HIT:          0 MISS:          0
cpu0_STLB PREFETCH     ACCESS:          0 HIT:          0 MISS:          0
cpu0_STLB WRITE        ACCESS:          0 HIT:          0 MISS:          0
cpu0_STLB TRANSLATION  ACCESS:          0 HIT:          0 MISS:          0
cpu0_STLB PREFETCH REQUESTED:          0 ISSUED:          0 USEFUL:          0 USELESS:          0
cpu0_STLB AVERAGE MISS LATENCY: 1125 cycles
cpu0_STLB TOTAL        ACCESS:          0 HIT:          0 MISS:          0
cpu0_STLB LOAD         ACCESS:          0 HIT:          0 MISS:          0
cpu0_STLB RFO          ACCESS:          0 HIT:          0 MISS:          0
cpu0_STLB PREFETCH     ACCESS:          0 HIT:          0 MISS:          0
cpu0_STLB WRITE        ACCESS:          0 HIT:          0 MISS:          0
cpu0_STLB TRANSLATION  ACCESS:          0 HIT:          0 MISS:          0
cpu0_STLB PREFETCH REQUESTED:          0 ISSUED:          0 USEFUL:          0 USELESS:          0
cpu0_STLB AVERAGE MISS LATENCY: 1125 cycles
cpu0_STLB TOTAL        ACCESS:          0 HIT:          0 MISS:          0
cpu0_STLB LOAD         ACCESS:          0 HIT:          0 MISS:          0
cpu0_STLB RFO          ACCESS:          0 HIT:          0 MISS:          0
cpu0_STLB PREFETCH     ACCESS:          0 HIT:          0 MISS:          0
cpu0_STLB WRITE        ACCESS:          0 HIT:          0 MISS:          0
cpu0_STLB TRANSLATION  ACCESS:          0 HIT:          0 MISS:          0
cpu0_STLB PREFETCH REQUESTED:          0 ISSUED:          0 USEFUL:          0 USELESS:          0
cpu0_STLB AVERAGE MISS LATENCY: 1125 cycles
cpu1_DTLB TOTAL        ACCESS:          0 HIT:          0 MISS:          0
cpu1_DTLB LOAD         ACCESS:          0 HIT:          0 MISS:          0
cpu1_DTLB RFO          ACCESS:          0 HIT:          0 MISS:          0
cpu1_DTLB PREFETCH     ACCESS:          0 HIT:          0 MISS:          0
cpu1_DTLB WRITE        ACCESS:          0 HIT:          0 MISS:          0
cpu1_DTLB TRANSLATION  ACCESS:          0 HIT:          0 MISS:          0
cpu1_DTLB PREFETCH REQUESTED:          0 ISSUED:          0 USEFUL:          0 USELESS:          0
cpu1_DTLB AVERAGE MISS LATENCY: 52.29 cycles
cpu1_DTLB TOTAL        ACCESS:  163048427 HIT:  162725411 MISS:     323016
cpu1_DTLB LOAD         ACCESS:  163048427 HIT:  162725411 MISS:     323016
cpu1_DTLB RFO          ACCESS:          0 HIT:          0 MISS:          0
cpu1_DTLB PREFETCH     ACCESS:          0 HIT:          0 MISS:          0
cpu1_DTLB WRITE        ACCESS:          0 HIT:          0 MISS:          0
cpu1_DTLB TRANSLATION  ACCESS:          0 HIT:          0 MISS:          0
cpu1_DTLB PREFETCH REQUESTED:          0 ISSUED:          0 USEFUL:          0 USELESS:          0
cpu1_DTLB AVERAGE MISS LATENCY: 52.29 cycles
cpu1_DTLB TOTAL        ACCESS:          0 HIT:          0 MISS:          0
cpu1_DTLB LOAD         ACCESS:          0 HIT:          0 MISS:          0
cpu1_DTLB RFO          ACCESS:          0 HIT:          0 MISS:          0
cpu1_DTLB PREFETCH     ACCESS:          0 HIT:          0 MISS:          0
cpu1_DTLB WRITE        ACCESS:          0 HIT:          0 MISS:          0
cpu1_DTLB TRANSLATION  ACCESS:          0 HIT:          0 MISS:          0
cpu1_DTLB PREFETCH REQUESTED:          0 ISSUED:          0 USEFUL:          0 USELESS:          0
cpu1_DTLB AVERAGE MISS LATENCY: 52.29 cycles
cpu1_DTLB TOTAL        ACCESS:          0 HIT:          0 MISS:          0
cpu1_DTLB LOAD         ACCESS:          0 HIT:          0 MISS:          0
cpu1_DTLB RFO          ACCESS:          0 HIT:          0 MISS:          0
cpu1_DTLB PREFETCH     ACCESS:          0 HIT:          0 MISS:          0
cpu1_DTLB WRITE        ACCESS:          0 HIT:          0 MISS:          0
cpu1_DTLB TRANSLATION  ACCESS:          0 HIT:          0 MISS:          0
cpu1_DTLB PREFETCH REQUESTED:          0 ISSUED:          0 USEFUL:          0 USELESS:          0
cpu1_DTLB AVERAGE MISS LATENCY: 52.29 cycles
cpu1_ITLB TOTAL        ACCESS:          0 HIT:          0 MISS:          0
cpu1_ITLB LOAD         ACCESS:          0 HIT:          0 MISS:          0
cpu1_ITLB RFO          ACCESS:          0 HIT:          0 MISS:          0
cpu1_ITLB PREFETCH     ACCESS:          0 HIT:          0 MISS:          0
cpu1_ITLB WRITE        ACCESS:          0 HIT:          0 MISS:          0
cpu1_ITLB TRANSLATION  ACCESS:          0 HIT:          0 MISS:          0
cpu1_ITLB PREFETCH REQUESTED:          0 ISSUED:          0 USEFUL:          0 USELESS:          0
cpu1_ITLB AVERAGE MISS LATENCY: 631.2 cycles
cpu1_ITLB TOTAL        ACCESS:    3810900 HIT:    3810890 MISS:         10
cpu1_ITLB LOAD         ACCESS:    3810900 HIT:    3810890 MISS:         10
cpu1_ITLB RFO          ACCESS:          0 HIT:          0 MISS:          0
cpu1_ITLB PREFETCH     ACCESS:          0 HIT:          0 MISS:          0
cpu1_ITLB WRITE        ACCESS:          0 HIT:          0 MISS:          0
cpu1_ITLB TRANSLATION  ACCESS:          0 HIT:          0 MISS:          0
cpu1_ITLB PREFETCH REQUESTED:          0 ISSUED:          0 USEFUL:          0 USELESS:          0
cpu1_ITLB AVERAGE MISS LATENCY: 631.2 cycles
cpu1_ITLB TOTAL        ACCESS:          0 HIT:          0 MISS:          0
cpu1_ITLB LOAD         ACCESS:          0 HIT:          0 MISS:          0
cpu1_ITLB RFO          ACCESS:          0 HIT:          0 MISS:          0
cpu1_ITLB PREFETCH     ACCESS:          0 HIT:          0 MISS:          0
cpu1_ITLB WRITE        ACCESS:          0 HIT:          0 MISS:          0
cpu1_ITLB TRANSLATION  ACCESS:          0 HIT:          0 MISS:          0
cpu1_ITLB PREFETCH REQUESTED:          0 ISSUED:          0 USEFUL:          0 USELESS:          0
cpu1_ITLB AVERAGE MISS LATENCY: 631.2 cycles
cpu1_ITLB TOTAL        ACCESS:          0 HIT:          0 MISS:          0
cpu1_ITLB LOAD         ACCESS:          0 HIT:          0 MISS:          0
cpu1_ITLB RFO          ACCESS:          0 HIT:          0 MISS:          0
cpu1_ITLB PREFETCH     ACCESS:          0 HIT:          0 MISS:          0
cpu1_ITLB WRITE        ACCESS:          0 HIT:          0 MISS:          0
cpu1_ITLB TRANSLATION  ACCESS:          0 HIT:          0 MISS:          0
cpu1_ITLB PREFETCH REQUESTED:          0 ISSUED:          0 USEFUL:          0 USELESS:          0
cpu1_ITLB AVERAGE MISS LATENCY: 631.2 cycles
cpu1_L1D TOTAL        ACCESS:          0 HIT:          0 MISS:          0
cpu1_L1D LOAD         ACCESS:          0 HIT:          0 MISS:          0
cpu1_L1D RFO          ACCESS:          0 HIT:          0 MISS:          0
cpu1_L1D PREFETCH     ACCESS:          0 HIT:          0 MISS:          0
cpu1_L1D WRITE        ACCESS:          0 HIT:          0 MISS:          0
cpu1_L1D TRANSLATION  ACCESS:          0 HIT:          0 MISS:          0
cpu1_L1D PREFETCH REQUESTED:          0 ISSUED:          0 USEFUL:          0 USELESS:          0
cpu1_L1D AVERAGE MISS LATENCY: 402.2 cycles
cpu1_L1D TOTAL        ACCESS:  223558909 HIT:  211942732 MISS:   11616177
cpu1_L1D LOAD         ACCESS:  119610160 HIT:  116550813 MISS:    3059347
cpu1_L1D RFO          ACCESS:          0 HIT:          0 MISS:          0
cpu1_L1D PREFETCH     ACCESS:          0 HIT:          0 MISS:          0
cpu1_L1D WRITE        ACCESS:  103889851 HIT:   95345155 MISS:    8544696
cpu1_L1D TRANSLATION  ACCESS:      58898 HIT:      46764 MISS:      12134
cpu1_L1D PREFETCH REQUESTED:          0 ISSUED:          0 USEFUL:          0 USELESS:          0
cpu1_L1D AVERAGE MISS LATENCY: 402.2 cycles
cpu1_L1D TOTAL        ACCESS:          0 HIT:          0 MISS:          0
cpu1_L1D LOAD         ACCESS:          0 HIT:          0 MISS:          0
cpu1_L1D RFO          ACCESS:          0 HIT:          0 MISS:          0
cpu1_L1D PREFETCH     ACCESS:          0 HIT:          0 MISS:          0
cpu1_L1D WRITE        ACCESS:          0 HIT:          0 MISS:          0
cpu1_L1D TRANSLATION  ACCESS:          0 HIT:          0 MISS:          0
cpu1_L1D PREFETCH REQUESTED:          0 ISSUED:          0 USEFUL:          0 USELESS:          0
cpu1_L1D AVERAGE MISS LATENCY: 402.2 cycles
cpu1_L1D TOTAL        ACCESS:          0 HIT:          0 MISS:          0
cpu1_L1D LOAD         ACCESS:          0 HIT:          0 MISS:          0
cpu1_L1D RFO          ACCESS:          0 HIT:          0 MISS:          0
cpu1_L1D PREFETCH     ACCESS:          0 HIT:          0 MISS:          0
cpu1_L1D WRITE        ACCESS:          0 HIT:          0 MISS:          0
cpu1_L1D TRANSLATION  ACCESS:          0 HIT:          0 MISS:          0
cpu1_L1D PREFETCH REQUESTED:          0 ISSUED:          0 USEFUL:          0 USELESS:          0
cpu1_L1D AVERAGE MISS LATENCY: 402.2 cycles
cpu1_L1I TOTAL        ACCESS:          0 HIT:          0 MISS:          0
cpu1_L1I LOAD         ACCESS:          0 HIT:          0 MISS:          0
cpu1_L1I RFO          ACCESS:          0 HIT:          0 MISS:          0
cpu1_L1I PREFETCH     ACCESS:          0 HIT:          0 MISS:          0
cpu1_L1I WRITE        ACCESS:          0 HIT:          0 MISS:          0
cpu1_L1I TRANSLATION  ACCESS:          0 HIT:          0 MISS:          0
cpu1_L1I PREFETCH REQUESTED:          0 ISSUED:          0 USEFUL:          0 USELESS:          0
cpu1_L1I AVERAGE MISS LATENCY: 607.3 cycles
cpu1_L1I TOTAL        ACCESS:    4635322 HIT:    4635142 MISS:        180
cpu1_L1I LOAD         ACCESS:    4635322 HIT:    4635142 MISS:        180
cpu1_L1I RFO          ACCESS:          0 HIT:          0 MISS:          0
cpu1_L1I PREFETCH     ACCESS:          0 HIT:          0 MISS:          0
cpu1_L1I WRITE        ACCESS:          0 HIT:          0 MISS:          0
cpu1_L1I TRANSLATION  ACCESS:          0 HIT:          0 MISS:          0
cpu1_L1I PREFETCH REQUESTED:          0 ISSUED:          0 USEFUL:          0 USELESS:          0
cpu1_L1I AVERAGE MISS LATENCY: 607.3 cycles
cpu1_L1I TOTAL        ACCESS:          0 HIT:          0 MISS:          0
cpu1_L1I LOAD         ACCESS:          0 HIT:          0 MISS:          0
cpu1_L1I RFO          ACCESS:          0 HIT:          0 MISS:          0
cpu1_L1I PREFETCH     ACCESS:          0 HIT:          0 MISS:          0
cpu1_L1I WRITE        ACCESS:          0 HIT:          0 MISS:          0
cpu1_L1I TRANSLATION  ACCESS:          0 HIT:          0 MISS:          0
cpu1_L1I PREFETCH REQUESTED:          0 ISSUED:          0 USEFUL:          0 USELESS:          0
cpu1_L1I AVERAGE MISS LATENCY: 607.3 cycles
cpu1_L1I TOTAL        ACCESS:          0 HIT:          0 MISS:          0
cpu1_L1I LOAD         ACCESS:          0 HIT:          0 MISS:          0
cpu1_L1I RFO          ACCESS:          0 HIT:          0 MISS:          0
[...]
cpu2_L1I WRITE        ACCESS:          0 HIT:          0 MISS:          0
cpu2_L1I TRANSLATION  ACCESS:          0 HIT:          0 MISS:          0
cpu2_L1I PREFETCH REQUESTED:          0 ISSUED:          0 USEFUL:          0 USELESS:          0
cpu2_L1I AVERAGE MISS LATENCY: 20.93 cycles
cpu2_L1I TOTAL        ACCESS:          0 HIT:          0 MISS:          0
cpu2_L1I LOAD         ACCESS:          0 HIT:          0 MISS:          0
cpu2_L1I RFO          ACCESS:          0 HIT:          0 MISS:          0
cpu2_L1I PREFETCH     ACCESS:          0 HIT:          0 MISS:          0
cpu2_L1I WRITE        ACCESS:          0 HIT:          0 MISS:          0
cpu2_L1I TRANSLATION  ACCESS:          0 HIT:          0 MISS:          0
cpu2_L1I PREFETCH REQUESTED:          0 ISSUED:          0 USEFUL:          0 USELESS:          0
cpu2_L1I AVERAGE MISS LATENCY: 20.93 cycles
cpu2_L2C TOTAL        ACCESS:          0 HIT:          0 MISS:          0
cpu2_L2C LOAD         ACCESS:          0 HIT:          0 MISS:          0
cpu2_L2C RFO          ACCESS:          0 HIT:          0 MISS:          0
cpu2_L2C PREFETCH     ACCESS:          0 HIT:          0 MISS:          0
cpu2_L2C WRITE        ACCESS:          0 HIT:          0 MISS:          0
cpu2_L2C TRANSLATION  ACCESS:          0 HIT:          0 MISS:          0
cpu2_L2C PREFETCH REQUESTED:   48167406 ISSUED:   47830835 USEFUL:      34755 USELESS:      14460
cpu2_L2C AVERAGE MISS LATENCY: 175.2 cycles
cpu2_L2C TOTAL        ACCESS:          0 HIT:          0 MISS:          0
cpu2_L2C LOAD         ACCESS:          0 HIT:          0 MISS:          0
cpu2_L2C RFO          ACCESS:          0 HIT:          0 MISS:          0
cpu2_L2C PREFETCH     ACCESS:          0 HIT:          0 MISS:          0
cpu2_L2C WRITE        ACCESS:          0 HIT:          0 MISS:          0
cpu2_L2C TRANSLATION  ACCESS:          0 HIT:          0 MISS:          0
cpu2_L2C PREFETCH REQUESTED:   48167406 ISSUED:   47830835 USEFUL:      34755 USELESS:      14460
cpu2_L2C AVERAGE MISS LATENCY: 175.2 cycles
cpu2_L2C TOTAL        ACCESS:   16615182 HIT:   13263483 MISS:    3351699
cpu2_L2C LOAD         ACCESS:    7780456 HIT:    7475479 MISS:     304977
cpu2_L2C RFO          ACCESS:     204170 HIT:      40030 MISS:     164140
cpu2_L2C PREFETCH     ACCESS:    8036708 HIT:    5189943 MISS:    2846765
cpu2_L2C WRITE        ACCESS:     336161 HIT:     336157 MISS:          4
cpu2_L2C TRANSLATION  ACCESS:     257687 HIT:     221874 MISS:      35813
cpu2_L2C PREFETCH REQUESTED:   48167406 ISSUED:   47830835 USEFUL:      34755 USELESS:      14460
cpu2_L2C AVERAGE MISS LATENCY: 175.2 cycles
cpu2_L2C TOTAL        ACCESS:          0 HIT:          0 MISS:          0
cpu2_L2C LOAD         ACCESS:          0 HIT:          0 MISS:          0
cpu2_L2C RFO          ACCESS:          0 HIT:          0 MISS:          0
cpu2_L2C PREFETCH     ACCESS:          0 HIT:          0 MISS:          0
cpu2_L2C WRITE        ACCESS:          0 HIT:          0 MISS:          0
cpu2_L2C TRANSLATION  ACCESS:          0 HIT:          0 MISS:          0
cpu2_L2C PREFETCH REQUESTED:   48167406 ISSUED:   47830835 USEFUL:      34755 USELESS:      14460
cpu2_L2C AVERAGE MISS LATENCY: 175.2 cycles
cpu2_STLB TOTAL        ACCESS:          0 HIT:          0 MISS:          0
cpu2_STLB LOAD         ACCESS:          0 HIT:          0 MISS:          0
cpu2_STLB RFO          ACCESS:          0 HIT:          0 MISS:          0
cpu2_STLB PREFETCH     ACCESS:          0 HIT:          0 MISS:          0
cpu2_STLB WRITE        ACCESS:          0 HIT:          0 MISS:          0
cpu2_STLB TRANSLATION  ACCESS:          0 HIT:          0 MISS:          0
cpu2_STLB PREFETCH REQUESTED:          0 ISSUED:          0 USEFUL:          0 USELESS:          0
cpu2_STLB AVERAGE MISS LATENCY: 134.9 cycles
cpu2_STLB TOTAL        ACCESS:          0 HIT:          0 MISS:          0
cpu2_STLB LOAD         ACCESS:          0 HIT:          0 MISS:          0
cpu2_STLB RFO          ACCESS:          0 HIT:          0 MISS:          0
cpu2_STLB PREFETCH     ACCESS:          0 HIT:          0 MISS:          0
cpu2_STLB WRITE        ACCESS:          0 HIT:          0 MISS:          0
cpu2_STLB TRANSLATION  ACCESS:          0 HIT:          0 MISS:          0
cpu2_STLB PREFETCH REQUESTED:          0 ISSUED:          0 USEFUL:          0 USELESS:          0
cpu2_STLB AVERAGE MISS LATENCY: 134.9 cycles
cpu2_STLB TOTAL        ACCESS:    4511605 HIT:    4242682 MISS:     268923
cpu2_STLB LOAD         ACCESS:    4511605 HIT:    4242682 MISS:     268923
cpu2_STLB RFO          ACCESS:          0 HIT:          0 MISS:          0
cpu2_STLB PREFETCH     ACCESS:          0 HIT:          0 MISS:          0
cpu2_STLB WRITE        ACCESS:          0 HIT:          0 MISS:          0
cpu2_STLB TRANSLATION  ACCESS:          0 HIT:          0 MISS:          0
cpu2_STLB PREFETCH REQUESTED:          0 ISSUED:          0 USEFUL:          0 USELESS:          0
cpu2_STLB AVERAGE MISS LATENCY: 134.9 cycles
cpu2_STLB TOTAL        ACCESS:          0 HIT:          0 MISS:          0
cpu2_STLB LOAD         ACCESS:          0 HIT:          0 MISS:          0
cpu2_STLB RFO          ACCESS:          0 HIT:          0 MISS:          0
cpu2_STLB PREFETCH     ACCESS:          0 HIT:          0 MISS:          0
cpu2_STLB WRITE        ACCESS:          0 HIT:          0 MISS:          0
cpu2_STLB TRANSLATION  ACCESS:          0 HIT:          0 MISS:          0
cpu2_STLB PREFETCH REQUESTED:          0 ISSUED:          0 USEFUL:          0 USELESS:          0
cpu2_STLB AVERAGE MISS LATENCY: 134.9 cycles
cpu3_DTLB TOTAL        ACCESS:          0 HIT:          0 MISS:          0
cpu3_DTLB LOAD         ACCESS:          0 HIT:          0 MISS:          0
cpu3_DTLB RFO          ACCESS:          0 HIT:          0 MISS:          0
cpu3_DTLB PREFETCH     ACCESS:          0 HIT:          0 MISS:          0
cpu3_DTLB WRITE        ACCESS:          0 HIT:          0 MISS:          0
cpu3_DTLB TRANSLATION  ACCESS:          0 HIT:          0 MISS:          0
cpu3_DTLB PREFETCH REQUESTED:          0 ISSUED:          0 USEFUL:          0 USELESS:          0
cpu3_DTLB AVERAGE MISS LATENCY: 13.59 cycles
cpu3_DTLB TOTAL        ACCESS:          0 HIT:          0 MISS:          0
cpu3_DTLB LOAD         ACCESS:          0 HIT:          0 MISS:          0
cpu3_DTLB RFO          ACCESS:          0 HIT:          0 MISS:          0
cpu3_DTLB PREFETCH     ACCESS:          0 HIT:          0 MISS:          0
cpu3_DTLB WRITE        ACCESS:          0 HIT:          0 MISS:          0
cpu3_DTLB TRANSLATION  ACCESS:          0 HIT:          0 MISS:          0
cpu3_DTLB PREFETCH REQUESTED:          0 ISSUED:          0 USEFUL:          0 USELESS:          0
cpu3_DTLB AVERAGE MISS LATENCY: 13.59 cycles
cpu3_DTLB TOTAL        ACCESS:          0 HIT:          0 MISS:          0
cpu3_DTLB LOAD         ACCESS:          0 HIT:          0 MISS:          0
cpu3_DTLB RFO          ACCESS:          0 HIT:          0 MISS:          0
cpu3_DTLB PREFETCH     ACCESS:          0 HIT:          0 MISS:          0
cpu3_DTLB WRITE        ACCESS:          0 HIT:          0 MISS:          0
cpu3_DTLB TRANSLATION  ACCESS:          0 HIT:          0 MISS:          0
cpu3_DTLB PREFETCH REQUESTED:          0 ISSUED:          0 USEFUL:          0 USELESS:          0
cpu3_DTLB AVERAGE MISS LATENCY: 13.59 cycles
cpu3_DTLB TOTAL        ACCESS:   21918434 HIT:   21645593 MISS:     272841
cpu3_DTLB LOAD         ACCESS:   21918434 HIT:   21645593 MISS:     272841
cpu3_DTLB RFO          ACCESS:          0 HIT:          0 MISS:          0
cpu3_DTLB PREFETCH     ACCESS:          0 HIT:          0 MISS:          0
cpu3_DTLB WRITE        ACCESS:          0 HIT:          0 MISS:          0
cpu3_DTLB TRANSLATION  ACCESS:          0 HIT:          0 MISS:          0
cpu3_DTLB PREFETCH REQUESTED:          0 ISSUED:          0 USEFUL:          0 USELESS:          0
cpu3_DTLB AVERAGE MISS LATENCY: 13.59 cycles
cpu3_ITLB TOTAL        ACCESS:          0 HIT:          0 MISS:          0
cpu3_ITLB LOAD         ACCESS:          0 HIT:          0 MISS:          0
cpu3_ITLB RFO          ACCESS:          0 HIT:          0 MISS:          0
cpu3_ITLB PREFETCH     ACCESS:          0 HIT:          0 MISS:          0
cpu3_ITLB WRITE        ACCESS:          0 HIT:          0 MISS:          0
cpu3_ITLB TRANSLATION  ACCESS:          0 HIT:          0 MISS:          0
cpu3_ITLB PREFETCH REQUESTED:          0 ISSUED:          0 USEFUL:          0 USELESS:          0
cpu3_ITLB AVERAGE MISS LATENCY: 94.13 cycles
cpu3_ITLB TOTAL        ACCESS:          0 HIT:          0 MISS:          0
cpu3_ITLB LOAD         ACCESS:          0 HIT:          0 MISS:          0
cpu3_ITLB RFO          ACCESS:          0 HIT:          0 MISS:          0
cpu3_ITLB PREFETCH     ACCESS:          0 HIT:          0 MISS:          0
cpu3_ITLB WRITE        ACCESS:          0 HIT:          0 MISS:          0
cpu3_ITLB TRANSLATION  ACCESS:          0 HIT:          0 MISS:          0
cpu3_ITLB PREFETCH REQUESTED:          0 ISSUED:          0 USEFUL:          0 USELESS:          0
cpu3_ITLB AVERAGE MISS LATENCY: 94.13 cycles
cpu3_ITLB TOTAL        ACCESS:          0 HIT:          0 MISS:          0
cpu3_ITLB LOAD         ACCESS:          0 HIT:          0 MISS:          0
cpu3_ITLB RFO          ACCESS:          0 HIT:          0 MISS:          0
cpu3_ITLB PREFETCH     ACCESS:          0 HIT:          0 MISS:          0
cpu3_ITLB WRITE        ACCESS:          0 HIT:          0 MISS:          0
cpu3_ITLB TRANSLATION  ACCESS:          0 HIT:          0 MISS:          0
cpu3_ITLB PREFETCH REQUESTED:          0 ISSUED:          0 USEFUL:          0 USELESS:          0
cpu3_ITLB AVERAGE MISS LATENCY: 94.13 cycles
cpu3_ITLB TOTAL        ACCESS:    2892097 HIT:    2888032 MISS:       4065
cpu3_ITLB LOAD         ACCESS:    2892097 HIT:    2888032 MISS:       4065
cpu3_ITLB RFO          ACCESS:          0 HIT:          0 MISS:          0
cpu3_ITLB PREFETCH     ACCESS:          0 HIT:          0 MISS:          0
cpu3_ITLB WRITE        ACCESS:          0 HIT:          0 MISS:          0
cpu3_ITLB TRANSLATION  ACCESS:          0 HIT:          0 MISS:          0
cpu3_ITLB PREFETCH REQUESTED:          0 ISSUED:          0 USEFUL:          0 USELESS:          0
cpu3_ITLB AVERAGE MISS LATENCY: 94.13 cycles
cpu3_L1D TOTAL        ACCESS:          0 HIT:          0 MISS:          0
cpu3_L1D LOAD         ACCESS:          0 HIT:          0 MISS:          0
cpu3_L1D RFO          ACCESS:          0 HIT:          0 MISS:          0
cpu3_L1D PREFETCH     ACCESS:          0 HIT:          0 MISS:          0
cpu3_L1D WRITE        ACCESS:          0 HIT:          0 MISS:          0
cpu3_L1D TRANSLATION  ACCESS:          0 HIT:          0 MISS:          0
cpu3_L1D PREFETCH REQUESTED:          0 ISSUED:          0 USEFUL:          0 USELESS:          0
cpu3_L1D AVERAGE MISS LATENCY: 561.4 cycles
cpu3_L1D TOTAL        ACCESS:          0 HIT:          0 MISS:          0
cpu3_L1D LOAD         ACCESS:          0 HIT:          0 MISS:          0
cpu3_L1D RFO          ACCESS:          0 HIT:          0 MISS:          0
cpu3_L1D PREFETCH     ACCESS:          0 HIT:          0 MISS:          0
cpu3_L1D WRITE        ACCESS:          0 HIT:          0 MISS:          0
cpu3_L1D TRANSLATION  ACCESS:          0 HIT:          0 MISS:          0
cpu3_L1D PREFETCH REQUESTED:          0 ISSUED:          0 USEFUL:          0 USELESS:          0
cpu3_L1D AVERAGE MISS LATENCY: 561.4 cycles
cpu3_L1D TOTAL        ACCESS:          0 HIT:          0 MISS:          0
cpu3_L1D LOAD         ACCESS:          0 HIT:          0 MISS:          0
cpu3_L1D RFO          ACCESS:          0 HIT:          0 MISS:          0
cpu3_L1D PREFETCH     ACCESS:          0 HIT:          0 MISS:          0
cpu3_L1D WRITE        ACCESS:          0 HIT:          0 MISS:          0
cpu3_L1D TRANSLATION  ACCESS:          0 HIT:          0 MISS:          0
cpu3_L1D PREFETCH REQUESTED:          0 ISSUED:          0 USEFUL:          0 USELESS:          0
cpu3_L1D AVERAGE MISS LATENCY: 561.4 cycles
cpu3_L1D TOTAL        ACCESS:   29269680 HIT:   24006139 MISS:    5263541
cpu3_L1D LOAD         ACCESS:   13968278 HIT:   13276873 MISS:     691405
cpu3_L1D RFO          ACCESS:          0 HIT:          0 MISS:          0
cpu3_L1D PREFETCH     ACCESS:          0 HIT:          0 MISS:          0
cpu3_L1D WRITE        ACCESS:   15281951 HIT:   10714117 MISS:    4567834
cpu3_L1D TRANSLATION  ACCESS:      19451 HIT:      15149 MISS:       4302
cpu3_L1D PREFETCH REQUESTED:          0 ISSUED:          0 USEFUL:          0 USELESS:          0
cpu3_L1D AVERAGE MISS LATENCY: 561.4 cycles
cpu3_L1I TOTAL        ACCESS:          0 HIT:          0 MISS:          0
cpu3_L1I LOAD         ACCESS:          0 HIT:          0 MISS:          0
cpu3_L1I RFO          ACCESS:          0 HIT:          0 MISS:          0
cpu3_L1I PREFETCH     ACCESS:          0 HIT:          0 MISS:          0
cpu3_L1I WRITE        ACCESS:          0 HIT:          0 MISS:          0
cpu3_L1I TRANSLATION  ACCESS:          0 HIT:          0 MISS:          0
cpu3_L1I PREFETCH REQUESTED:          0 ISSUED:          0 USEFUL:          0 USELESS:          0
cpu3_L1I AVERAGE MISS LATENCY: 142.9 cycles
cpu3_L1I TOTAL        ACCESS:          0 HIT:          0 MISS:          0
cpu3_L1I LOAD         ACCESS:          0 HIT:          0 MISS:          0
cpu3_L1I RFO          ACCESS:          0 HIT:          0 MISS:          0
cpu3_L1I PREFETCH     ACCESS:          0 HIT:          0 MISS:          0
cpu3_L1I WRITE        ACCESS:          0 HIT:          0 MISS:          0
cpu3_L1I TRANSLATION  ACCESS:          0 HIT:          0 MISS:          0
cpu3_L1I PREFETCH REQUESTED:          0 ISSUED:          0 USEFUL:          0 USELESS:          0
cpu3_L1I AVERAGE MISS LATENCY: 142.9 cycles
cpu3_L1I TOTAL        ACCESS:          0 HIT:          0 MISS:          0
cpu3_L1I LOAD         ACCESS:          0 HIT:          0 MISS:          0
cpu3_L1I RFO          ACCESS:          0 HIT:          0 MISS:          0
cpu3_L1I PREFETCH     ACCESS:          0 HIT:          0 MISS:          0
cpu3_L1I WRITE        ACCESS:          0 HIT:          0 MISS:          0
cpu3_L1I TRANSLATION  ACCESS:          0 HIT:          0 MISS:          0
cpu3_L1I PREFETCH REQUESTED:          0 ISSUED:          0 USEFUL:          0 USELESS:          0
cpu3_L1I AVERAGE MISS LATENCY: 142.9 cycles
cpu3_L1I TOTAL        ACCESS:    3627148 HIT:    3537275 MISS:      89873
cpu3_L1I LOAD         ACCESS:    3627148 HIT:    3537275 MISS:      89873
cpu3_L1I RFO          ACCESS:          0 HIT:          0 MISS:          0
cpu3_L1I PREFETCH     ACCESS:          0 HIT:          0 MISS:          0
cpu3_L1I WRITE        ACCESS:          0 HIT:          0 MISS:          0
cpu3_L1I TRANSLATION  ACCESS:          0 HIT:          0 MISS:          0
cpu3_L1I PREFETCH REQUESTED:          0 ISSUED:          0 USEFUL:          0 USELESS:          0
cpu3_L1I AVERAGE MISS LATENCY: 142.9 cycles
cpu3_L2C TOTAL        ACCESS:          0 HIT:          0 MISS:          0
cpu3_L2C LOAD         ACCESS:          0 HIT:          0 MISS:          0
cpu3_L2C RFO          ACCESS:          0 HIT:          0 MISS:          0
cpu3_L2C PREFETCH     ACCESS:          0 HIT:          0 MISS:          0
cpu3_L2C WRITE        ACCESS:          0 HIT:          0 MISS:          0
cpu3_L2C TRANSLATION  ACCESS:          0 HIT:          0 MISS:          0
cpu3_L2C PREFETCH REQUESTED:    7933625 ISSUED:    6324738 USEFUL:      66263 USELESS:       3785
cpu3_L2C AVERAGE MISS LATENCY: 2442 cycles
cpu3_L2C TOTAL        ACCESS:          0 HIT:          0 MISS:          0
cpu3_L2C LOAD         ACCESS:          0 HIT:          0 MISS:          0
cpu3_L2C RFO          ACCESS:          0 HIT:          0 MISS:          0
cpu3_L2C PREFETCH     ACCESS:          0 HIT:          0 MISS:          0
cpu3_L2C WRITE        ACCESS:          0 HIT:          0 MISS:          0
cpu3_L2C TRANSLATION  ACCESS:          0 HIT:          0 MISS:          0
cpu3_L2C PREFETCH REQUESTED:    7933625 ISSUED:    6324738 USEFUL:      66263 USELESS:       3785
cpu3_L2C AVERAGE MISS LATENCY: 2442 cycles
cpu3_L2C TOTAL        ACCESS:          0 HIT:          0 MISS:          0
cpu3_L2C LOAD         ACCESS:          0 HIT:          0 MISS:          0
cpu3_L2C RFO          ACCESS:          0 HIT:          0 MISS:          0
cpu3_L2C PREFETCH     ACCESS:          0 HIT:          0 MISS:          0
cpu3_L2C WRITE        ACCESS:          0 HIT:          0 MISS:          0
cpu3_L2C TRANSLATION  ACCESS:          0 HIT:          0 MISS:          0
cpu3_L2C PREFETCH REQUESTED:    7933625 ISSUED:    6324738 USEFUL:      66263 USELESS:       3785
cpu3_L2C AVERAGE MISS LATENCY: 2442 cycles
cpu3_L2C TOTAL        ACCESS:    3749291 HIT:    2517730 MISS:    1231561
cpu3_L2C LOAD         ACCESS:     532207 HIT:     424129 MISS:     108078
cpu3_L2C RFO          ACCESS:    1155629 HIT:     190419 MISS:     965210
cpu3_L2C PREFETCH     ACCESS:     826474 HIT:     671273 MISS:     155201
cpu3_L2C WRITE        ACCESS:    1230716 HIT:    1230679 MISS:         37
cpu3_L2C TRANSLATION  ACCESS:       4265 HIT:       1230 MISS:       3035
cpu3_L2C PREFETCH REQUESTED:    7933625 ISSUED:    6324738 USEFUL:      66263 USELESS:       3785
cpu3_L2C AVERAGE MISS LATENCY: 2442 cycles
cpu3_STLB TOTAL        ACCESS:          0 HIT:          0 MISS:          0
cpu3_STLB LOAD         ACCESS:          0 HIT:          0 MISS:          0
cpu3_STLB RFO          ACCESS:          0 HIT:          0 MISS:          0
cpu3_STLB PREFETCH     ACCESS:          0 HIT:          0 MISS:          0
cpu3_STLB WRITE        ACCESS:          0 HIT:          0 MISS:          0
cpu3_STLB TRANSLATION  ACCESS:          0 HIT:          0 MISS:          0
cpu3_STLB PREFETCH REQUESTED:          0 ISSUED:          0 USEFUL:          0 USELESS:          0
cpu3_STLB AVERAGE MISS LATENCY: 218.4 cycles
cpu3_STLB TOTAL        ACCESS:          0 HIT:          0 MISS:          0
cpu3_STLB LOAD         ACCESS:          0 HIT:          0 MISS:          0
cpu3_STLB RFO          ACCESS:          0 HIT:          0 MISS:          0
cpu3_STLB PREFETCH     ACCESS:          0 HIT:          0 MISS:          0
cpu3_STLB WRITE        ACCESS:          0 HIT:          0 MISS:          0
cpu3_STLB TRANSLATION  ACCESS:          0 HIT:          0 MISS:          0
cpu3_STLB PREFETCH REQUESTED:          0 ISSUED:          0 USEFUL:          0 USELESS:          0
cpu3_STLB AVERAGE MISS LATENCY: 218.4 cycles
cpu3_STLB TOTAL        ACCESS:          0 HIT:          0 MISS:          0
cpu3_STLB LOAD         ACCESS:          0 HIT:          0 MISS:          0
cpu3_STLB RFO          ACCESS:          0 HIT:          0 MISS:          0
cpu3_STLB PREFETCH     ACCESS:          0 HIT:          0 MISS:          0
cpu3_STLB WRITE        ACCESS:          0 HIT:          0 MISS:          0
cpu3_STLB TRANSLATION  ACCESS:          0 HIT:          0 MISS:          0
cpu3_STLB PREFETCH REQUESTED:          0 ISSUED:          0 USEFUL:          0 USELESS:          0
cpu3_STLB AVERAGE MISS LATENCY: 218.4 cycles
cpu3_STLB TOTAL        ACCESS:      95509 HIT:      76431 MISS:      19078
cpu3_STLB LOAD         ACCESS:      95509 HIT:      76431 MISS:      19078
cpu3_STLB RFO          ACCESS:          0 HIT:          0 MISS:          0
cpu3_STLB PREFETCH     ACCESS:          0 HIT:          0 MISS:          0
cpu3_STLB WRITE        ACCESS:          0 HIT:          0 MISS:          0
cpu3_STLB TRANSLATION  ACCESS:          0 HIT:          0 MISS:          0
cpu3_STLB PREFETCH REQUESTED:          0 ISSUED:          0 USEFUL:          0 USELESS:          0
cpu3_STLB AVERAGE MISS LATENCY: 218.4 cycles

DRAM Statistics

Channel 0 RQ ROW_BUFFER_HIT:    2452819
  ROW_BUFFER_MISS:   10958689
 AVG DBUS CONGESTED CYCLE: 3.99
WQ ROW_BUFFER_HIT: Channel 0 
  ROW_BUFFER_MISS:     195252
  FULL:    8078883
